MODEL 1
REMARK VINA RESULT:      -8.7      0.000      0.000
REMARK  8 active torsions:
REMARK  status: ('A' for Active; 'I' for Inactive)
REMARK    1  A    between atoms: O_2  and  C_3 
REMARK    2  A    between atoms: C_10  and  C_11 
REMARK    3  A    between atoms: N_12  and  N_13 
REMARK       I    between atoms: N_13  and  C_14 
REMARK    4  A    between atoms: C_14  and  C_15 
REMARK    5  A    between atoms: N_18  and  C_19 
REMARK    6  A    between atoms: C_23  and  N_24 
REMARK    7  A    between atoms: C_25  and  C_26 
REMARK    8  A    between atoms: C_26  and  N_27 
ROOT
HETATM    1  C   UNL     1      41.576 -16.852   4.001  1.00  0.00     0.176 C 
HETATM    2  N   UNL     1      40.756 -16.437   5.009  1.00  0.00    -0.124 NA
HETATM    3  N   UNL     1      41.304 -16.787   6.156  1.00  0.00    -0.058 NA
HETATM    4  N   UNL     1      42.439 -17.496   5.915  1.00  0.00    -0.191 N 
HETATM    5  C   UNL     1      42.715 -17.440   4.543  1.00  0.00     0.102 C 
ENDROOT
BRANCH   1   6
HETATM    6  C   UNL     1      41.248 -16.665   2.595  1.00  0.00     0.294 C 
HETATM    7  N   UNL     1      42.108 -15.822   1.918  1.00  0.00    -0.242 N 
HETATM    8  H   UNL     1      42.886 -15.383   2.406  1.00  0.00     0.192 HD
HETATM    9  O   UNL     1      40.282 -17.248   2.104  1.00  0.00    -0.264 OA
BRANCH   7  10
HETATM   10  N   UNL     1      41.901 -15.577   0.595  1.00  0.00    -0.183 NA
HETATM   11  C   UNL     1      41.578 -14.358   0.290  1.00  0.00     0.153 C 
BRANCH  11  12
HETATM   12  C   UNL     1      41.321 -13.960  -1.111  1.00  0.00     0.020 A 
HETATM   13  C   UNL     1      41.946 -12.826  -1.649  1.00  0.00     0.101 A 
HETATM   14  C   UNL     1      41.748 -12.509  -3.002  1.00  0.00     0.069 A 
HETATM   15 CL   UNL     1      42.575 -11.196  -3.759  1.00  0.00    -0.081 Cl
HETATM   16  C   UNL     1      40.886 -13.278  -3.788  1.00  0.00     0.050 A 
HETATM   17  C   UNL     1      40.240 -14.377  -3.229  1.00  0.00     0.036 A 
HETATM   18 CL   UNL     1      39.179 -15.325  -4.197  1.00  0.00    -0.084 Cl
HETATM   19  C   UNL     1      40.456 -14.729  -1.900  1.00  0.00     0.039 A 
BRANCH  13  20
HETATM   20  O   UNL     1      42.803 -12.097  -0.864  1.00  0.00    -0.353 OA
HETATM   21  C   UNL     1      42.147 -10.943  -0.327  1.00  0.00     0.210 C 
ENDBRANCH  13  20
ENDBRANCH  11  12
ENDBRANCH   7  10
ENDBRANCH   1   6
BRANCH   5  22
HETATM   22  C   UNL     1      43.936 -18.030   3.924  1.00  0.00     0.296 C 
BRANCH  22  23
HETATM   23  N   UNL     1      43.861 -19.507   3.564  1.00  0.00    -0.066 N 
HETATM   24  H   UNL     1      43.050 -19.882   4.097  1.00  0.00     0.280 HD
HETATM   25  C   UNL     1      43.568 -19.723   2.103  1.00  0.00     0.235 C 
HETATM   26  C   UNL     1      43.202 -21.169   1.791  1.00  0.00     0.028 C 
HETATM   27  C   UNL     1      44.402 -22.108   1.810  1.00  0.00     0.002 C 
HETATM   28  C   UNL     1      44.750 -22.672   3.181  1.00  0.00     0.002 C 
HETATM   29  C   UNL     1      44.708 -21.714   4.368  1.00  0.00     0.028 C 
HETATM   30  C   UNL     1      45.071 -20.265   4.073  1.00  0.00     0.235 C 
ENDBRANCH  22  23
ENDBRANCH   5  22
BRANCH   4  31
HETATM   31  C   UNL     1      43.134 -18.173   6.947  1.00  0.00     0.229 A 
HETATM   32  N   UNL     1      43.398 -19.476   6.837  1.00  0.00    -0.081 NA
HETATM   33  O   UNL     1      44.050 -19.786   8.034  1.00  0.00    -0.103 OA
HETATM   34  N   UNL     1      44.169 -18.666   8.845  1.00  0.00    -0.083 NA
HETATM   35  C   UNL     1      43.597 -17.668   8.176  1.00  0.00     0.201 A 
BRANCH  35  36
HETATM   36  N   UNL     1      43.505 -16.406   8.625  1.00  0.00    -0.379 N 
HETATM   37  H   UNL     1      43.044 -16.221   9.512  1.00  0.00     0.158 HD
HETATM   38  H   UNL     1      43.599 -15.590   8.024  1.00  0.00     0.158 HD
ENDBRANCH  35  36
ENDBRANCH   4  31
TORSDOF 8
ENDMDL
MODEL 2
REMARK VINA RESULT:      -8.5      4.568      9.896
REMARK  8 active torsions:
REMARK  status: ('A' for Active; 'I' for Inactive)
REMARK    1  A    between atoms: O_2  and  C_3 
REMARK    2  A    between atoms: C_10  and  C_11 
REMARK    3  A    between atoms: N_12  and  N_13 
REMARK       I    between atoms: N_13  and  C_14 
REMARK    4  A    between atoms: C_14  and  C_15 
REMARK    5  A    between atoms: N_18  and  C_19 
REMARK    6  A    between atoms: C_23  and  N_24 
REMARK    7  A    between atoms: C_25  and  C_26 
REMARK    8  A    between atoms: C_26  and  N_27 
ROOT
HETATM    1  C   UNL     1      40.791 -14.977  -1.596  1.00  0.00     0.176 C 
HETATM    2  N   UNL     1      41.237 -15.337  -2.833  1.00  0.00    -0.124 NA
HETATM    3  N   UNL     1      40.300 -15.037  -3.712  1.00  0.00    -0.058 NA
HETATM    4  N   UNL     1      39.209 -14.554  -3.059  1.00  0.00    -0.191 N 
HETATM    5  C   UNL     1      39.541 -14.375  -1.710  1.00  0.00     0.102 C 
ENDROOT
BRANCH   1   6
HETATM    6  C   UNL     1      41.564 -15.209  -0.384  1.00  0.00     0.294 C 
HETATM    7  N   UNL     1      41.689 -16.540  -0.036  1.00  0.00    -0.242 N 
HETATM    8  H   UNL     1      41.251 -17.263  -0.605  1.00  0.00     0.192 HD
HETATM    9  O   UNL     1      42.052 -14.260   0.229  1.00  0.00    -0.264 OA
BRANCH   7  10
HETATM   10  N   UNL     1      42.396 -16.877   1.078  1.00  0.00    -0.183 NA
HETATM   11  C   UNL     1      41.794 -17.669   1.910  1.00  0.00     0.153 C 
BRANCH  11  12
HETATM   12  C   UNL     1      42.448 -18.108   3.161  1.00  0.00     0.020 A 
HETATM   13  C   UNL     1      43.452 -19.086   3.129  1.00  0.00     0.101 A 
HETATM   14  C   UNL     1      44.112 -19.434   4.317  1.00  0.00     0.069 A 
HETATM   15 CL   UNL     1      45.434 -20.545   4.332  1.00  0.00    -0.081 Cl
HETATM   16  C   UNL     1      43.730 -18.859   5.531  1.00  0.00     0.050 A 
HETATM   17  C   UNL     1      42.703 -17.919   5.555  1.00  0.00     0.036 A 
HETATM   18 CL   UNL     1      42.231 -17.208   7.050  1.00  0.00    -0.084 Cl
HETATM   19  C   UNL     1      42.064 -17.533   4.380  1.00  0.00     0.039 A 
BRANCH  13  20
HETATM   20  O   UNL     1      43.824 -19.625   1.922  1.00  0.00    -0.353 OA
HETATM   21  C   UNL     1      43.365 -20.975   1.802  1.00  0.00     0.210 C 
ENDBRANCH  13  20
ENDBRANCH  11  12
ENDBRANCH   7  10
ENDBRANCH   1   6
BRANCH   5  22
HETATM   22  C   UNL     1      38.617 -13.773  -0.707  1.00  0.00     0.296 C 
BRANCH  22  23
HETATM   23  N   UNL     1      39.200 -13.513   0.674  1.00  0.00    -0.066 N 
HETATM   24  H   UNL     1      40.217 -13.717   0.590  1.00  0.00     0.280 HD
HETATM   25  C   UNL     1      39.072 -12.070   1.085  1.00  0.00     0.235 C 
HETATM   26  C   UNL     1      39.903 -11.740   2.318  1.00  0.00     0.028 C 
HETATM   27  C   UNL     1      39.301 -12.283   3.609  1.00  0.00     0.002 C 
HETATM   28  C   UNL     1      39.690 -13.717   3.941  1.00  0.00     0.002 C 
HETATM   29  C   UNL     1      39.694 -14.728   2.799  1.00  0.00     0.028 C 
HETATM   30  C   UNL     1      38.669 -14.499   1.696  1.00  0.00     0.235 C 
ENDBRANCH  22  23
ENDBRANCH   5  22
BRANCH   4  31
HETATM   31  C   UNL     1      37.976 -14.335  -3.720  1.00  0.00     0.229 A 
HETATM   32  N   UNL     1      37.282 -15.365  -4.208  1.00  0.00    -0.081 NA
HETATM   33  O   UNL     1      36.168 -14.765  -4.802  1.00  0.00    -0.103 OA
HETATM   34  N   UNL     1      36.208 -13.385  -4.663  1.00  0.00    -0.083 NA
HETATM   35  C   UNL     1      37.329 -13.117  -3.999  1.00  0.00     0.201 A 
BRANCH  35  36
HETATM   36  N   UNL     1      37.737 -11.883  -3.661  1.00  0.00    -0.379 N 
HETATM   37  H   UNL     1      37.174 -11.078  -3.926  1.00  0.00     0.158 HD
HETATM   38  H   UNL     1      38.699 -11.658  -3.416  1.00  0.00     0.158 HD
ENDBRANCH  35  36
ENDBRANCH   4  31
TORSDOF 8
ENDMDL
MODEL 3
REMARK VINA RESULT:      -8.4      4.332     10.085
REMARK  8 active torsions:
REMARK  status: ('A' for Active; 'I' for Inactive)
REMARK    1  A    between atoms: O_2  and  C_3 
REMARK    2  A    between atoms: C_10  and  C_11 
REMARK    3  A    between atoms: N_12  and  N_13 
REMARK       I    between atoms: N_13  and  C_14 
REMARK    4  A    between atoms: C_14  and  C_15 
REMARK    5  A    between atoms: N_18  and  C_19 
REMARK    6  A    between atoms: C_23  and  N_24 
REMARK    7  A    between atoms: C_25  and  C_26 
REMARK    8  A    between atoms: C_26  and  N_27 
ROOT
HETATM    1  C   UNL     1      39.882 -14.439  -0.159  1.00  0.00     0.176 C 
HETATM    2  N   UNL     1      38.698 -14.188   0.468  1.00  0.00    -0.124 NA
HETATM    3  N   UNL     1      37.903 -13.569  -0.385  1.00  0.00    -0.058 NA
HETATM    4  N   UNL     1      38.577 -13.341  -1.543  1.00  0.00    -0.191 N 
HETATM    5  C   UNL     1      39.808 -14.007  -1.480  1.00  0.00     0.102 C 
ENDROOT
BRANCH   1   6
HETATM    6  C   UNL     1      41.007 -15.074   0.512  1.00  0.00     0.294 C 
HETATM    7  N   UNL     1      41.181 -16.406   0.193  1.00  0.00    -0.242 N 
HETATM    8  H   UNL     1      40.544 -16.866  -0.455  1.00  0.00     0.192 HD
HETATM    9  O   UNL     1      41.717 -14.423   1.279  1.00  0.00    -0.264 OA
BRANCH   7  10
HETATM   10  N   UNL     1      42.206 -17.102   0.759  1.00  0.00    -0.183 NA
HETATM   11  C   UNL     1      41.886 -17.867   1.756  1.00  0.00     0.153 C 
BRANCH  11  12
HETATM   12  C   UNL     1      42.905 -18.673   2.463  1.00  0.00     0.020 A 
HETATM   13  C   UNL     1      43.499 -18.190   3.637  1.00  0.00     0.101 A 
HETATM   14  C   UNL     1      44.408 -19.002   4.332  1.00  0.00     0.069 A 
HETATM   15 CL   UNL     1      45.090 -18.517   5.843  1.00  0.00    -0.081 Cl
HETATM   16  C   UNL     1      44.765 -20.254   3.827  1.00  0.00     0.050 A 
HETATM   17  C   UNL     1      44.198 -20.705   2.639  1.00  0.00     0.036 A 
HETATM   18 CL   UNL     1      44.636 -22.248   2.016  1.00  0.00    -0.084 Cl
HETATM   19  C   UNL     1      43.265 -19.929   1.957  1.00  0.00     0.039 A 
BRANCH  13  20
HETATM   20  O   UNL     1      43.119 -16.964   4.125  1.00  0.00    -0.353 OA
HETATM   21  C   UNL     1      42.078 -17.102   5.097  1.00  0.00     0.210 C 
ENDBRANCH  13  20
ENDBRANCH  11  12
ENDBRANCH   7  10
ENDBRANCH   1   6
BRANCH   5  22
HETATM   22  C   UNL     1      40.776 -14.057  -2.613  1.00  0.00     0.296 C 
BRANCH  22  23
HETATM   23  N   UNL     1      41.680 -12.843  -2.779  1.00  0.00    -0.066 N 
HETATM   24  H   UNL     1      42.637 -13.227  -2.924  1.00  0.00     0.280 HD
HETATM   25  C   UNL     1      41.336 -12.040  -4.005  1.00  0.00     0.235 C 
HETATM   26  C   UNL     1      42.402 -11.006  -4.342  1.00  0.00     0.028 C 
HETATM   27  C   UNL     1      42.388  -9.803  -3.406  1.00  0.00     0.002 C 
HETATM   28  C   UNL     1      43.203  -9.977  -2.130  1.00  0.00     0.002 C 
HETATM   29  C   UNL     1      43.097 -11.315  -1.405  1.00  0.00     0.028 C 
HETATM   30  C   UNL     1      41.756 -12.028  -1.504  1.00  0.00     0.235 C 
ENDBRANCH  22  23
ENDBRANCH   5  22
BRANCH   4  31
HETATM   31  C   UNL     1      38.048 -12.521  -2.569  1.00  0.00     0.229 A 
HETATM   32  N   UNL     1      38.088 -11.192  -2.455  1.00  0.00    -0.081 NA
HETATM   33  O   UNL     1      37.459 -10.738  -3.618  1.00  0.00    -0.103 OA
HETATM   34  N   UNL     1      37.051 -11.799  -4.414  1.00  0.00    -0.083 NA
HETATM   35  C   UNL     1      37.409 -12.903  -3.763  1.00  0.00     0.201 A 
BRANCH  35  36
HETATM   36  N   UNL     1      37.191 -14.152  -4.205  1.00  0.00    -0.379 N 
HETATM   37  H   UNL     1      37.938 -14.656  -4.676  1.00  0.00     0.158 HD
HETATM   38  H   UNL     1      36.262 -14.534  -4.367  1.00  0.00     0.158 HD
ENDBRANCH  35  36
ENDBRANCH   4  31
TORSDOF 8
ENDMDL
MODEL 4
REMARK VINA RESULT:      -8.4      1.374      2.034
REMARK  8 active torsions:
REMARK  status: ('A' for Active; 'I' for Inactive)
REMARK    1  A    between atoms: O_2  and  C_3 
REMARK    2  A    between atoms: C_10  and  C_11 
REMARK    3  A    between atoms: N_12  and  N_13 
REMARK       I    between atoms: N_13  and  C_14 
REMARK    4  A    between atoms: C_14  and  C_15 
REMARK    5  A    between atoms: N_18  and  C_19 
REMARK    6  A    between atoms: C_23  and  N_24 
REMARK    7  A    between atoms: C_25  and  C_26 
REMARK    8  A    between atoms: C_26  and  N_27 
ROOT
HETATM    1  C   UNL     1      41.650 -16.502   3.590  1.00  0.00     0.176 C 
HETATM    2  N   UNL     1      40.822 -16.041   4.571  1.00  0.00    -0.124 NA
HETATM    3  N   UNL     1      41.308 -16.429   5.735  1.00  0.00    -0.058 NA
HETATM    4  N   UNL     1      42.405 -17.206   5.528  1.00  0.00    -0.191 N 
HETATM    5  C   UNL     1      42.731 -17.161   4.166  1.00  0.00     0.102 C 
ENDROOT
BRANCH   1   6
HETATM    6  C   UNL     1      41.383 -16.290   2.174  1.00  0.00     0.294 C 
HETATM    7  N   UNL     1      41.795 -15.062   1.696  1.00  0.00    -0.242 N 
HETATM    8  H   UNL     1      42.235 -14.389   2.321  1.00  0.00     0.192 HD
HETATM    9  O   UNL     1      40.845 -17.174   1.508  1.00  0.00    -0.264 OA
BRANCH   7  10
HETATM   10  N   UNL     1      41.600 -14.754   0.384  1.00  0.00    -0.183 NA
HETATM   11  C   UNL     1      40.828 -13.739   0.150  1.00  0.00     0.153 C 
BRANCH  11  12
HETATM   12  C   UNL     1      40.531 -13.303  -1.231  1.00  0.00     0.020 A 
HETATM   13  C   UNL     1      39.241 -13.456  -1.759  1.00  0.00     0.101 A 
HETATM   14  C   UNL     1      38.960 -12.968  -3.044  1.00  0.00     0.069 A 
HETATM   15 CL   UNL     1      37.368 -13.020  -3.710  1.00  0.00    -0.081 Cl
HETATM   16  C   UNL     1      39.972 -12.391  -3.816  1.00  0.00     0.050 A 
HETATM   17  C   UNL     1      41.258 -12.282  -3.295  1.00  0.00     0.036 A 
HETATM   18 CL   UNL     1      42.505 -11.571  -4.244  1.00  0.00    -0.084 Cl
HETATM   19  C   UNL     1      41.544 -12.726  -2.007  1.00  0.00     0.039 A 
BRANCH  13  20
HETATM   20  O   UNL     1      38.258 -14.009  -0.976  1.00  0.00    -0.353 OA
HETATM   21  C   UNL     1      37.587 -13.002  -0.211  1.00  0.00     0.210 C 
ENDBRANCH  13  20
ENDBRANCH  11  12
ENDBRANCH   7  10
ENDBRANCH   1   6
BRANCH   5  22
HETATM   22  C   UNL     1      43.935 -17.822   3.586  1.00  0.00     0.296 C 
BRANCH  22  23
HETATM   23  N   UNL     1      43.834 -19.324   3.360  1.00  0.00    -0.066 N 
HETATM   24  H   UNL     1      43.051 -19.645   3.967  1.00  0.00     0.280 HD
HETATM   25  C   UNL     1      43.461 -19.664   1.942  1.00  0.00     0.235 C 
HETATM   26  C   UNL     1      43.072 -21.128   1.776  1.00  0.00     0.028 C 
HETATM   27  C   UNL     1      44.268 -22.072   1.813  1.00  0.00     0.002 C 
HETATM   28  C   UNL     1      44.687 -22.518   3.208  1.00  0.00     0.002 C 
HETATM   29  C   UNL     1      44.713 -21.460   4.307  1.00  0.00     0.028 C 
HETATM   30  C   UNL     1      45.066 -20.046   3.868  1.00  0.00     0.235 C 
ENDBRANCH  22  23
ENDBRANCH   5  22
BRANCH   4  31
HETATM   31  C   UNL     1      43.022 -17.928   6.579  1.00  0.00     0.229 A 
HETATM   32  N   UNL     1      43.154 -19.253   6.497  1.00  0.00    -0.081 NA
HETATM   33  O   UNL     1      43.763 -19.603   7.705  1.00  0.00    -0.103 OA
HETATM   34  N   UNL     1      43.989 -18.485   8.495  1.00  0.00    -0.083 NA
HETATM   35  C   UNL     1      43.525 -17.448   7.802  1.00  0.00     0.201 A 
BRANCH  35  36
HETATM   36  N   UNL     1      43.557 -16.174   8.225  1.00  0.00    -0.379 N 
HETATM   37  H   UNL     1      42.699 -15.629   8.243  1.00  0.00     0.158 HD
HETATM   38  H   UNL     1      44.408 -15.616   8.258  1.00  0.00     0.158 HD
ENDBRANCH  35  36
ENDBRANCH   4  31
TORSDOF 8
ENDMDL
MODEL 5
REMARK VINA RESULT:      -8.4      4.501      8.198
REMARK  8 active torsions:
REMARK  status: ('A' for Active; 'I' for Inactive)
REMARK    1  A    between atoms: O_2  and  C_3 
REMARK    2  A    between atoms: C_10  and  C_11 
REMARK    3  A    between atoms: N_12  and  N_13 
REMARK       I    between atoms: N_13  and  C_14 
REMARK    4  A    between atoms: C_14  and  C_15 
REMARK    5  A    between atoms: N_18  and  C_19 
REMARK    6  A    between atoms: C_23  and  N_24 
REMARK    7  A    between atoms: C_25  and  C_26 
REMARK    8  A    between atoms: C_26  and  N_27 
ROOT
HETATM    1  C   UNL     1      40.534 -14.463   2.855  1.00  0.00     0.176 C 
HETATM    2  N   UNL     1      40.559 -13.522   1.868  1.00  0.00    -0.124 NA
HETATM    3  N   UNL     1      40.263 -12.354   2.407  1.00  0.00    -0.058 NA
HETATM    4  N   UNL     1      39.969 -12.527   3.723  1.00  0.00    -0.191 N 
HETATM    5  C   UNL     1      40.265 -13.851   4.075  1.00  0.00     0.102 C 
ENDROOT
BRANCH   1   6
HETATM    6  C   UNL     1      40.772 -15.876   2.597  1.00  0.00     0.294 C 
HETATM    7  N   UNL     1      42.012 -16.328   3.004  1.00  0.00    -0.242 N 
HETATM    8  H   UNL     1      42.676 -15.686   3.434  1.00  0.00     0.192 HD
HETATM    9  O   UNL     1      39.897 -16.564   2.070  1.00  0.00    -0.264 OA
BRANCH   7  10
HETATM   10  N   UNL     1      42.343 -17.635   2.817  1.00  0.00    -0.183 NA
HETATM   11  C   UNL     1      43.369 -18.059   3.487  1.00  0.00     0.153 C 
BRANCH  11  12
HETATM   12  C   UNL     1      43.837 -19.457   3.371  1.00  0.00     0.020 A 
HETATM   13  C   UNL     1      44.406 -20.106   4.476  1.00  0.00     0.101 A 
HETATM   14  C   UNL     1      44.775 -21.456   4.366  1.00  0.00     0.069 A 
HETATM   15 CL   UNL     1      45.375 -22.348   5.717  1.00  0.00    -0.081 Cl
HETATM   16  C   UNL     1      44.635 -22.129   3.150  1.00  0.00     0.050 A 
HETATM   17  C   UNL     1      44.105 -21.460   2.050  1.00  0.00     0.036 A 
HETATM   18 CL   UNL     1      43.932 -22.288   0.551  1.00  0.00    -0.084 Cl
HETATM   19  C   UNL     1      43.699 -20.133   2.152  1.00  0.00     0.039 A 
BRANCH  13  20
HETATM   20  O   UNL     1      44.517 -19.431   5.666  1.00  0.00    -0.353 OA
HETATM   21  C   UNL     1      43.600 -19.950   6.635  1.00  0.00     0.210 C 
ENDBRANCH  13  20
ENDBRANCH  11  12
ENDBRANCH   7  10
ENDBRANCH   1   6
BRANCH   5  22
HETATM   22  C   UNL     1      40.154 -14.378   5.464  1.00  0.00     0.296 C 
BRANCH  22  23
HETATM   23  N   UNL     1      41.465 -14.659   6.184  1.00  0.00    -0.066 N 
HETATM   24  H   UNL     1      41.337 -14.292   7.150  1.00  0.00     0.280 HD
HETATM   25  C   UNL     1      41.744 -16.134   6.306  1.00  0.00     0.235 C 
HETATM   26  C   UNL     1      42.886 -16.433   7.269  1.00  0.00     0.028 C 
HETATM   27  C   UNL     1      44.257 -16.102   6.693  1.00  0.00     0.002 C 
HETATM   28  C   UNL     1      44.699 -14.657   6.887  1.00  0.00     0.002 C 
HETATM   29  C   UNL     1      43.660 -13.565   6.651  1.00  0.00     0.028 C 
HETATM   30  C   UNL     1      42.607 -13.858   5.592  1.00  0.00     0.235 C 
ENDBRANCH  22  23
ENDBRANCH   5  22
BRANCH   4  31
HETATM   31  C   UNL     1      39.424 -11.485   4.513  1.00  0.00     0.229 A 
HETATM   32  N   UNL     1      39.930 -11.222   5.719  1.00  0.00    -0.081 NA
HETATM   33  O   UNL     1      39.132 -10.178   6.195  1.00  0.00    -0.103 OA
HETATM   34  N   UNL     1      38.159  -9.828   5.269  1.00  0.00    -0.083 NA
HETATM   35  C   UNL     1      38.335 -10.641   4.230  1.00  0.00     0.201 A 
BRANCH  35  36
HETATM   36  N   UNL     1      37.587 -10.624   3.114  1.00  0.00    -0.379 N 
HETATM   37  H   UNL     1      37.987 -10.946   2.237  1.00  0.00     0.158 HD
HETATM   38  H   UNL     1      36.753 -10.051   3.009  1.00  0.00     0.158 HD
ENDBRANCH  35  36
ENDBRANCH   4  31
TORSDOF 8
ENDMDL
MODEL 6
REMARK VINA RESULT:      -8.3      4.574      9.696
REMARK  8 active torsions:
REMARK  status: ('A' for Active; 'I' for Inactive)
REMARK    1  A    between atoms: O_2  and  C_3 
REMARK    2  A    between atoms: C_10  and  C_11 
REMARK    3  A    between atoms: N_12  and  N_13 
REMARK       I    between atoms: N_13  and  C_14 
REMARK    4  A    between atoms: C_14  and  C_15 
REMARK    5  A    between atoms: N_18  and  C_19 
REMARK    6  A    between atoms: C_23  and  N_24 
REMARK    7  A    between atoms: C_25  and  C_26 
REMARK    8  A    between atoms: C_26  and  N_27 
ROOT
HETATM    1  C   UNL     1      40.775 -14.707  -1.776  1.00  0.00     0.176 C 
HETATM    2  N   UNL     1      41.205 -14.947  -3.048  1.00  0.00    -0.124 NA
HETATM    3  N   UNL     1      40.210 -14.685  -3.874  1.00  0.00    -0.058 NA
HETATM    4  N   UNL     1      39.105 -14.349  -3.156  1.00  0.00    -0.191 N 
HETATM    5  C   UNL     1      39.472 -14.222  -1.810  1.00  0.00     0.102 C 
ENDROOT
BRANCH   1   6
HETATM    6  C   UNL     1      41.614 -14.938  -0.609  1.00  0.00     0.294 C 
HETATM    7  N   UNL     1      41.913 -16.266  -0.378  1.00  0.00    -0.242 N 
HETATM    8  H   UNL     1      41.547 -16.990  -0.994  1.00  0.00     0.192 HD
HETATM    9  O   UNL     1      42.004 -13.988   0.069  1.00  0.00    -0.264 OA
BRANCH   7  10
HETATM   10  N   UNL     1      42.695 -16.602   0.686  1.00  0.00    -0.183 NA
HETATM   11  C   UNL     1      42.180 -17.451   1.520  1.00  0.00     0.153 C 
BRANCH  11  12
HETATM   12  C   UNL     1      42.922 -17.894   2.720  1.00  0.00     0.020 A 
HETATM   13  C   UNL     1      43.052 -17.043   3.826  1.00  0.00     0.101 A 
HETATM   14  C   UNL     1      43.695 -17.511   4.982  1.00  0.00     0.069 A 
HETATM   15 CL   UNL     1      43.790 -16.557   6.419  1.00  0.00    -0.081 Cl
HETATM   16  C   UNL     1      44.255 -18.790   5.009  1.00  0.00     0.050 A 
HETATM   17  C   UNL     1      44.154 -19.611   3.889  1.00  0.00     0.036 A 
HETATM   18 CL   UNL     1      44.843 -21.187   3.922  1.00  0.00    -0.084 Cl
HETATM   19  C   UNL     1      43.485 -19.176   2.748  1.00  0.00     0.039 A 
BRANCH  13  20
HETATM   20  O   UNL     1      42.477 -15.797   3.784  1.00  0.00    -0.353 OA
HETATM   21  C   UNL     1      43.460 -14.789   3.524  1.00  0.00     0.210 C 
ENDBRANCH  13  20
ENDBRANCH  11  12
ENDBRANCH   7  10
ENDBRANCH   1   6
BRANCH   5  22
HETATM   22  C   UNL     1      38.536 -13.773  -0.741  1.00  0.00     0.296 C 
BRANCH  22  23
HETATM   23  N   UNL     1      39.156 -13.486   0.620  1.00  0.00    -0.066 N 
HETATM   24  H   UNL     1      40.166 -13.715   0.518  1.00  0.00     0.280 HD
HETATM   25  C   UNL     1      39.069 -12.030   0.991  1.00  0.00     0.235 C 
HETATM   26  C   UNL     1      39.934 -11.683   2.196  1.00  0.00     0.028 C 
HETATM   27  C   UNL     1      39.350 -12.176   3.515  1.00  0.00     0.002 C 
HETATM   28  C   UNL     1      39.716 -13.608   3.879  1.00  0.00     0.002 C 
HETATM   29  C   UNL     1      39.671 -14.651   2.767  1.00  0.00     0.028 C 
HETATM   30  C   UNL     1      38.627 -14.430   1.681  1.00  0.00     0.235 C 
ENDBRANCH  22  23
ENDBRANCH   5  22
BRANCH   4  31
HETATM   31  C   UNL     1      37.832 -14.208  -3.760  1.00  0.00     0.229 A 
HETATM   32  N   UNL     1      37.199 -15.276  -4.251  1.00  0.00    -0.081 NA
HETATM   33  O   UNL     1      36.018 -14.749  -4.781  1.00  0.00    -0.103 OA
HETATM   34  N   UNL     1      35.958 -13.374  -4.602  1.00  0.00    -0.083 NA
HETATM   35  C   UNL     1      37.082 -13.038  -3.976  1.00  0.00     0.201 A 
BRANCH  35  36
HETATM   36  N   UNL     1      37.408 -11.785  -3.618  1.00  0.00    -0.379 N 
HETATM   37  H   UNL     1      36.745 -11.030  -3.772  1.00  0.00     0.158 HD
HETATM   38  H   UNL     1      38.367 -11.477  -3.470  1.00  0.00     0.158 HD
ENDBRANCH  35  36
ENDBRANCH   4  31
TORSDOF 8
ENDMDL
MODEL 7
REMARK VINA RESULT:      -8.2      5.791      9.071
REMARK  8 active torsions:
REMARK  status: ('A' for Active; 'I' for Inactive)
REMARK    1  A    between atoms: O_2  and  C_3 
REMARK    2  A    between atoms: C_10  and  C_11 
REMARK    3  A    between atoms: N_12  and  N_13 
REMARK       I    between atoms: N_13  and  C_14 
REMARK    4  A    between atoms: C_14  and  C_15 
REMARK    5  A    between atoms: N_18  and  C_19 
REMARK    6  A    between atoms: C_23  and  N_24 
REMARK    7  A    between atoms: C_25  and  C_26 
REMARK    8  A    between atoms: C_26  and  N_27 
ROOT
HETATM    1  C   UNL     1      41.942 -12.835   1.819  1.00  0.00     0.176 C 
HETATM    2  N   UNL     1      42.178 -11.739   1.042  1.00  0.00    -0.124 NA
HETATM    3  N   UNL     1      41.837 -12.033  -0.198  1.00  0.00    -0.058 NA
HETATM    4  N   UNL     1      41.449 -13.335  -0.262  1.00  0.00    -0.191 N 
HETATM    5  C   UNL     1      41.376 -13.841   1.042  1.00  0.00     0.102 C 
ENDROOT
BRANCH   1   6
HETATM    6  C   UNL     1      42.251 -12.870   3.241  1.00  0.00     0.294 C 
HETATM    7  N   UNL     1      41.431 -12.078   4.021  1.00  0.00    -0.242 N 
HETATM    8  H   UNL     1      40.692 -11.525   3.591  1.00  0.00     0.192 HD
HETATM    9  O   UNL     1      43.169 -13.577   3.656  1.00  0.00    -0.264 OA
BRANCH   7  10
HETATM   10  N   UNL     1      41.625 -12.036   5.368  1.00  0.00    -0.183 NA
HETATM   11  C   UNL     1      41.259 -10.940   5.957  1.00  0.00     0.153 C 
BRANCH  11  12
HETATM   12  C   UNL     1      41.420 -10.763   7.417  1.00  0.00     0.020 A 
HETATM   13  C   UNL     1      40.323 -10.393   8.209  1.00  0.00     0.101 A 
HETATM   14  C   UNL     1      40.480 -10.304   9.600  1.00  0.00     0.069 A 
HETATM   15 CL   UNL     1      39.148  -9.966  10.646  1.00  0.00    -0.081 Cl
HETATM   16  C   UNL     1      41.730 -10.519  10.185  1.00  0.00     0.050 A 
HETATM   17  C   UNL     1      42.819 -10.846   9.383  1.00  0.00     0.036 A 
HETATM   18 CL   UNL     1      44.360 -11.112  10.102  1.00  0.00    -0.084 Cl
HETATM   19  C   UNL     1      42.673 -10.977   8.004  1.00  0.00     0.039 A 
BRANCH  13  20
HETATM   20  O   UNL     1      39.100 -10.205   7.615  1.00  0.00    -0.353 OA
HETATM   21  C   UNL     1      38.846  -8.813   7.400  1.00  0.00     0.210 C 
ENDBRANCH  13  20
ENDBRANCH  11  12
ENDBRANCH   7  10
ENDBRANCH   1   6
BRANCH   5  22
HETATM   22  C   UNL     1      40.894 -15.214   1.366  1.00  0.00     0.296 C 
BRANCH  22  23
HETATM   23  N   UNL     1      41.934 -16.178   1.920  1.00  0.00    -0.066 N 
HETATM   24  H   UNL     1      42.721 -15.581   2.247  1.00  0.00     0.280 HD
HETATM   25  C   UNL     1      41.427 -16.935   3.119  1.00  0.00     0.235 C 
HETATM   26  C   UNL     1      42.539 -17.675   3.853  1.00  0.00     0.028 C 
HETATM   27  C   UNL     1      43.014 -18.923   3.118  1.00  0.00     0.002 C 
HETATM   28  C   UNL     1      44.099 -18.677   2.077  1.00  0.00     0.002 C 
HETATM   29  C   UNL     1      43.941 -17.460   1.171  1.00  0.00     0.028 C 
HETATM   30  C   UNL     1      42.513 -17.057   0.830  1.00  0.00     0.235 C 
ENDBRANCH  22  23
ENDBRANCH   5  22
BRANCH   4  31
HETATM   31  C   UNL     1      41.216 -13.988  -1.497  1.00  0.00     0.229 A 
HETATM   32  N   UNL     1      40.152 -14.778  -1.649  1.00  0.00    -0.081 NA
HETATM   33  O   UNL     1      40.276 -15.257  -2.956  1.00  0.00    -0.103 OA
HETATM   34  N   UNL     1      41.412 -14.749  -3.571  1.00  0.00    -0.083 NA
HETATM   35  C   UNL     1      41.998 -13.968  -2.666  1.00  0.00     0.201 A 
BRANCH  35  36
HETATM   36  N   UNL     1      43.136 -13.285  -2.874  1.00  0.00    -0.379 N 
HETATM   37  H   UNL     1      43.391 -13.009  -3.819  1.00  0.00     0.158 HD
HETATM   38  H   UNL     1      43.907 -13.268  -2.210  1.00  0.00     0.158 HD
ENDBRANCH  35  36
ENDBRANCH   4  31
TORSDOF 8
ENDMDL
MODEL 8
REMARK VINA RESULT:      -8.1      4.318      9.965
REMARK  8 active torsions:
REMARK  status: ('A' for Active; 'I' for Inactive)
REMARK    1  A    between atoms: O_2  and  C_3 
REMARK    2  A    between atoms: C_10  and  C_11 
REMARK    3  A    between atoms: N_12  and  N_13 
REMARK       I    between atoms: N_13  and  C_14 
REMARK    4  A    between atoms: C_14  and  C_15 
REMARK    5  A    between atoms: N_18  and  C_19 
REMARK    6  A    between atoms: C_23  and  N_24 
REMARK    7  A    between atoms: C_25  and  C_26 
REMARK    8  A    between atoms: C_26  and  N_27 
ROOT
HETATM    1  C   UNL     1      41.329 -15.263  -1.050  1.00  0.00     0.176 C 
HETATM    2  N   UNL     1      41.105 -15.891  -2.240  1.00  0.00    -0.124 NA
HETATM    3  N   UNL     1      41.196 -14.994  -3.202  1.00  0.00    -0.058 NA
HETATM    4  N   UNL     1      41.401 -13.766  -2.655  1.00  0.00    -0.191 N 
HETATM    5  C   UNL     1      41.626 -13.924  -1.281  1.00  0.00     0.102 C 
ENDROOT
BRANCH   1   6
HETATM    6  C   UNL     1      41.259 -15.956   0.229  1.00  0.00     0.294 C 
HETATM    7  N   UNL     1      42.248 -16.900   0.419  1.00  0.00    -0.242 N 
HETATM    8  H   UNL     1      42.941 -17.070  -0.308  1.00  0.00     0.192 HD
HETATM    9  O   UNL     1      40.376 -15.670   1.038  1.00  0.00    -0.264 OA
BRANCH   7  10
HETATM   10  N   UNL     1      42.284 -17.607   1.582  1.00  0.00    -0.183 NA
HETATM   11  C   UNL     1      43.384 -17.517   2.264  1.00  0.00     0.153 C 
BRANCH  11  12
HETATM   12  C   UNL     1      43.555 -18.240   3.542  1.00  0.00     0.020 A 
HETATM   13  C   UNL     1      44.158 -19.506   3.564  1.00  0.00     0.101 A 
HETATM   14  C   UNL     1      44.379 -20.141   4.795  1.00  0.00     0.069 A 
HETATM   15 CL   UNL     1      45.217 -21.647   4.905  1.00  0.00    -0.081 Cl
HETATM   16  C   UNL     1      43.946 -19.548   5.984  1.00  0.00     0.050 A 
HETATM   17  C   UNL     1      43.312 -18.309   5.944  1.00  0.00     0.036 A 
HETATM   18 CL   UNL     1      42.778 -17.577   7.407  1.00  0.00    -0.084 Cl
HETATM   19  C   UNL     1      43.120 -17.647   4.735  1.00  0.00     0.039 A 
BRANCH  13  20
HETATM   20  O   UNL     1      44.592 -20.061   2.386  1.00  0.00    -0.353 OA
HETATM   21  C   UNL     1      43.633 -20.993   1.876  1.00  0.00     0.210 C 
ENDBRANCH  13  20
ENDBRANCH  11  12
ENDBRANCH   7  10
ENDBRANCH   1   6
BRANCH   5  22
HETATM   22  C   UNL     1      41.979 -12.798  -0.371  1.00  0.00     0.296 C 
BRANCH  22  23
HETATM   23  N   UNL     1      41.248 -12.757   0.964  1.00  0.00    -0.066 N 
HETATM   24  H   UNL     1      40.741 -13.664   1.031  1.00  0.00     0.280 HD
HETATM   25  C   UNL     1      42.196 -12.694   2.132  1.00  0.00     0.235 C 
HETATM   26  C   UNL     1      41.499 -12.948   3.462  1.00  0.00     0.028 C 
HETATM   27  C   UNL     1      40.655 -11.768   3.931  1.00  0.00     0.002 C 
HETATM   28  C   UNL     1      39.233 -11.743   3.386  1.00  0.00     0.002 C 
HETATM   29  C   UNL     1      39.039 -12.082   1.911  1.00  0.00     0.028 C 
HETATM   30  C   UNL     1      40.174 -11.688   0.976  1.00  0.00     0.235 C 
ENDBRANCH  22  23
ENDBRANCH   5  22
BRANCH   4  31
HETATM   31  C   UNL     1      41.341 -12.581  -3.429  1.00  0.00     0.229 A 
HETATM   32  N   UNL     1      42.434 -11.837  -3.603  1.00  0.00    -0.081 NA
HETATM   33  O   UNL     1      41.986 -10.761  -4.374  1.00  0.00    -0.103 OA
HETATM   34  N   UNL     1      40.631 -10.874  -4.653  1.00  0.00    -0.083 NA
HETATM   35  C   UNL     1      40.229 -11.997  -4.063  1.00  0.00     0.201 A 
BRANCH  35  36
HETATM   36  N   UNL     1      38.971 -12.467  -4.096  1.00  0.00    -0.379 N 
HETATM   37  H   UNL     1      38.668 -13.034  -4.883  1.00  0.00     0.158 HD
HETATM   38  H   UNL     1      38.211 -12.069  -3.549  1.00  0.00     0.158 HD
ENDBRANCH  35  36
ENDBRANCH   4  31
TORSDOF 8
ENDMDL
MODEL 9
REMARK VINA RESULT:      -8.1      3.943      9.440
REMARK  8 active torsions:
REMARK  status: ('A' for Active; 'I' for Inactive)
REMARK    1  A    between atoms: O_2  and  C_3 
REMARK    2  A    between atoms: C_10  and  C_11 
REMARK    3  A    between atoms: N_12  and  N_13 
REMARK       I    between atoms: N_13  and  C_14 
REMARK    4  A    between atoms: C_14  and  C_15 
REMARK    5  A    between atoms: N_18  and  C_19 
REMARK    6  A    between atoms: C_23  and  N_24 
REMARK    7  A    between atoms: C_25  and  C_26 
REMARK    8  A    between atoms: C_26  and  N_27 
ROOT
HETATM    1  C   UNL     1      41.509 -13.752   1.546  1.00  0.00     0.176 C 
HETATM    2  N   UNL     1      41.387 -12.717   2.425  1.00  0.00    -0.124 NA
HETATM    3  N   UNL     1      41.535 -11.589   1.756  1.00  0.00    -0.058 NA
HETATM    4  N   UNL     1      41.830 -11.871   0.459  1.00  0.00    -0.191 N 
HETATM    5  C   UNL     1      41.688 -13.250   0.260  1.00  0.00     0.102 C 
ENDROOT
BRANCH   1   6
HETATM    6  C   UNL     1      41.443 -15.146   1.960  1.00  0.00     0.294 C 
HETATM    7  N   UNL     1      42.641 -15.661   2.416  1.00  0.00    -0.242 N 
HETATM    8  H   UNL     1      43.476 -15.080   2.433  1.00  0.00     0.192 HD
HETATM    9  O   UNL     1      40.377 -15.759   1.900  1.00  0.00    -0.264 OA
BRANCH   7  10
HETATM   10  N   UNL     1      42.697 -16.956   2.835  1.00  0.00    -0.183 NA
HETATM   11  C   UNL     1      43.880 -17.408   3.114  1.00  0.00     0.153 C 
BRANCH  11  12
HETATM   12  C   UNL     1      44.081 -18.799   3.574  1.00  0.00     0.020 A 
HETATM   13  C   UNL     1      44.009 -19.109   4.940  1.00  0.00     0.101 A 
HETATM   14  C   UNL     1      44.128 -20.446   5.348  1.00  0.00     0.069 A 
HETATM   15 CL   UNL     1      43.936 -20.913   7.000  1.00  0.00    -0.081 Cl
HETATM   16  C   UNL     1      44.378 -21.451   4.411  1.00  0.00     0.050 A 
HETATM   17  C   UNL     1      44.487 -21.124   3.062  1.00  0.00     0.036 A 
HETATM   18 CL   UNL     1      44.794 -22.361   1.906  1.00  0.00    -0.084 Cl
HETATM   19  C   UNL     1      44.333 -19.808   2.635  1.00  0.00     0.039 A 
BRANCH  13  20
HETATM   20  O   UNL     1      43.744 -18.108   5.841  1.00  0.00    -0.353 OA
HETATM   21  C   UNL     1      44.927 -17.742   6.560  1.00  0.00     0.210 C 
ENDBRANCH  13  20
ENDBRANCH  11  12
ENDBRANCH   7  10
ENDBRANCH   1   6
BRANCH   5  22
HETATM   22  C   UNL     1      41.842 -13.911  -1.067  1.00  0.00     0.296 C 
BRANCH  22  23
HETATM   23  N   UNL     1      40.563 -14.420  -1.718  1.00  0.00    -0.066 N 
HETATM   24  H   UNL     1      40.297 -15.270  -1.179  1.00  0.00     0.280 HD
HETATM   25  C   UNL     1      39.427 -13.440  -1.585  1.00  0.00     0.235 C 
HETATM   26  C   UNL     1      38.084 -14.051  -1.964  1.00  0.00     0.028 C 
HETATM   27  C   UNL     1      37.910 -14.230  -3.468  1.00  0.00     0.002 C 
HETATM   28  C   UNL     1      38.467 -15.534  -4.025  1.00  0.00     0.002 C 
HETATM   29  C   UNL     1      39.828 -15.994  -3.510  1.00  0.00     0.028 C 
HETATM   30  C   UNL     1      40.811 -14.894  -3.135  1.00  0.00     0.235 C 
ENDBRANCH  22  23
ENDBRANCH   5  22
BRANCH   4  31
HETATM   31  C   UNL     1      42.237 -10.866  -0.452  1.00  0.00     0.229 A 
HETATM   32  N   UNL     1      43.501 -10.817  -0.878  1.00  0.00    -0.081 NA
HETATM   33  O   UNL     1      43.527  -9.700  -1.717  1.00  0.00    -0.103 OA
HETATM   34  N   UNL     1      42.280  -9.095  -1.785  1.00  0.00    -0.083 NA
HETATM   35  C   UNL     1      41.483  -9.812  -0.998  1.00  0.00     0.201 A 
BRANCH  35  36
HETATM   36  N   UNL     1      40.182  -9.549  -0.790  1.00  0.00    -0.379 N 
HETATM   37  H   UNL     1      39.577 -10.275  -0.412  1.00  0.00     0.158 HD
HETATM   38  H   UNL     1      39.686  -8.785  -1.244  1.00  0.00     0.158 HD
ENDBRANCH  35  36
ENDBRANCH   4  31
TORSDOF 8
ENDMDL
MODEL 10
REMARK VINA RESULT:      -8.0      6.208      9.306
REMARK  8 active torsions:
REMARK  status: ('A' for Active; 'I' for Inactive)
REMARK    1  A    between atoms: O_2  and  C_3 
REMARK    2  A    between atoms: C_10  and  C_11 
REMARK    3  A    between atoms: N_12  and  N_13 
REMARK       I    between atoms: N_13  and  C_14 
REMARK    4  A    between atoms: C_14  and  C_15 
REMARK    5  A    between atoms: N_18  and  C_19 
REMARK    6  A    between atoms: C_23  and  N_24 
REMARK    7  A    between atoms: C_25  and  C_26 
REMARK    8  A    between atoms: C_26  and  N_27 
ROOT
HETATM    1  C   UNL     1      40.418 -12.283   6.668  1.00  0.00     0.176 C 
HETATM    2  N   UNL     1      39.082 -12.517   6.813  1.00  0.00    -0.124 NA
HETATM    3  N   UNL     1      38.627 -11.726   7.766  1.00  0.00    -0.058 NA
HETATM    4  N   UNL     1      39.663 -11.028   8.304  1.00  0.00    -0.191 N 
HETATM    5  C   UNL     1      40.807 -11.263   7.530  1.00  0.00     0.102 C 
ENDROOT
BRANCH   1   6
HETATM    6  C   UNL     1      41.246 -13.023   5.726  1.00  0.00     0.294 C 
HETATM    7  N   UNL     1      41.370 -14.368   6.013  1.00  0.00    -0.242 N 
HETATM    8  H   UNL     1      40.910 -14.763   6.832  1.00  0.00     0.192 HD
HETATM    9  O   UNL     1      41.755 -12.446   4.766  1.00  0.00    -0.264 OA
BRANCH   7  10
HETATM   10  N   UNL     1      42.118 -15.161   5.197  1.00  0.00    -0.183 NA
HETATM   11  C   UNL     1      42.069 -16.433   5.445  1.00  0.00     0.153 C 
BRANCH  11  12
HETATM   12  C   UNL     1      42.839 -17.403   4.636  1.00  0.00     0.020 A 
HETATM   13  C   UNL     1      43.431 -18.519   5.245  1.00  0.00     0.101 A 
HETATM   14  C   UNL     1      44.093 -19.466   4.449  1.00  0.00     0.069 A 
HETATM   15 CL   UNL     1      44.744 -20.919   5.117  1.00  0.00    -0.081 Cl
HETATM   16  C   UNL     1      44.217 -19.268   3.072  1.00  0.00     0.050 A 
HETATM   17  C   UNL     1      43.660 -18.134   2.486  1.00  0.00     0.036 A 
HETATM   18 CL   UNL     1      43.811 -17.889   0.790  1.00  0.00    -0.084 Cl
HETATM   19  C   UNL     1      42.966 -17.204   3.256  1.00  0.00     0.039 A 
BRANCH  13  20
HETATM   20  O   UNL     1      43.280 -18.703   6.597  1.00  0.00    -0.353 OA
HETATM   21  C   UNL     1      44.456 -18.293   7.303  1.00  0.00     0.210 C 
ENDBRANCH  13  20
ENDBRANCH  11  12
ENDBRANCH   7  10
ENDBRANCH   1   6
BRANCH   5  22
HETATM   22  C   UNL     1      42.115 -10.588   7.768  1.00  0.00     0.296 C 
BRANCH  22  23
HETATM   23  N   UNL     1      42.902 -11.058   8.983  1.00  0.00    -0.066 N 
HETATM   24  H   UNL     1      42.277 -11.728   9.478  1.00  0.00     0.280 HD
HETATM   25  C   UNL     1      44.145 -11.815   8.599  1.00  0.00     0.235 C 
HETATM   26  C   UNL     1      44.777 -12.536   9.783  1.00  0.00     0.028 C 
HETATM   27  C   UNL     1      45.503 -11.595  10.738  1.00  0.00     0.002 C 
HETATM   28  C   UNL     1      44.621 -10.968  11.810  1.00  0.00     0.002 C 
HETATM   29  C   UNL     1      43.247 -10.460  11.382  1.00  0.00     0.028 C 
HETATM   30  C   UNL     1      43.142  -9.925   9.961  1.00  0.00     0.235 C 
ENDBRANCH  22  23
ENDBRANCH   5  22
BRANCH   4  31
HETATM   31  C   UNL     1      39.513 -10.248   9.476  1.00  0.00     0.229 A 
HETATM   32  N   UNL     1      39.210  -8.951   9.387  1.00  0.00    -0.081 NA
HETATM   33  O   UNL     1      39.179  -8.524  10.717  1.00  0.00    -0.103 OA
HETATM   34  N   UNL     1      39.463  -9.568  11.586  1.00  0.00    -0.083 NA
HETATM   35  C   UNL     1      39.676 -10.634  10.819  1.00  0.00     0.201 A 
BRANCH  35  36
HETATM   36  N   UNL     1      39.982 -11.857  11.283  1.00  0.00    -0.379 N 
HETATM   37  H   UNL     1      39.896 -12.663  10.669  1.00  0.00     0.158 HD
HETATM   38  H   UNL     1      40.017 -12.086  12.274  1.00  0.00     0.158 HD
ENDBRANCH  35  36
ENDBRANCH   4  31
TORSDOF 8
ENDMDL
