MODEL 1
REMARK VINA RESULT:      -8.0      0.000      0.000
REMARK  10 active torsions:
REMARK  status: ('A' for Active; 'I' for Inactive)
REMARK    1  A    between atoms: C_2  and  O_3 
REMARK    2  A    between atoms: O_3  and  C_4 
REMARK    3  A    between atoms: C_7  and  C_8 
REMARK    4  A    between atoms: C_8  and  C_9 
REMARK    5  A    between atoms: C_10  and  C_11 
REMARK    6  A    between atoms: C_14  and  N_15 
REMARK    7  A    between atoms: N_20  and  C_21 
REMARK    8  A    between atoms: C_21  and  C_22 
REMARK    9  A    between atoms: C_22  and  N_23 
REMARK   10  A    between atoms: C_34  and  O_35 
ROOT
HETATM    1  C   UNL     1      41.418 -13.799   2.332  1.00  0.00     0.059 C 
HETATM    2  C   UNL     1      40.669 -14.198   3.565  1.00  0.00     0.161 C 
HETATM    3  N   UNL     1      40.332 -12.884   4.112  1.00  0.00    -0.332 N 
HETATM    4  C   UNL     1      41.073 -11.890   3.497  1.00  0.00     0.278 C 
HETATM    5  O   UNL     1      41.164 -10.742   3.897  1.00  0.00    -0.265 OA
HETATM    6  C   UNL     1      41.685 -12.485   2.293  1.00  0.00     0.146 C 
ENDROOT
BRANCH   1   7
HETATM    7  C   UNL     1      41.920 -14.691   1.271  1.00  0.00     0.193 C 
HETATM    8  O   UNL     1      42.041 -14.264   0.126  1.00  0.00    -0.287 OA
BRANCH   7   9
HETATM    9  C   UNL     1      42.322 -16.072   1.595  1.00  0.00     0.015 A 
HETATM   10  C   UNL     1      43.617 -16.382   2.022  1.00  0.00     0.018 A 
HETATM   11  C   UNL     1      43.961 -17.710   2.305  1.00  0.00     0.038 A 
HETATM   12  C   UNL     1      43.009 -18.723   2.186  1.00  0.00     0.069 A 
HETATM   13  C   UNL     1      41.707 -18.394   1.800  1.00  0.00     0.038 A 
HETATM   14  C   UNL     1      41.356 -17.076   1.506  1.00  0.00     0.018 A 
BRANCH  12  15
HETATM   15  O   UNL     1      43.194 -20.050   2.442  1.00  0.00    -0.347 OA
BRANCH  15  16
HETATM   16  C   UNL     1      44.515 -20.583   2.576  1.00  0.00     0.120 C 
HETATM   17  C   UNL     1      44.589 -21.945   1.890  1.00  0.00     0.040 C 
HETATM   18  C   UNL     1      44.783 -20.733   4.071  1.00  0.00     0.040 C 
ENDBRANCH  15  16
ENDBRANCH  12  15
ENDBRANCH   7   9
ENDBRANCH   1   7
BRANCH   2  19
HETATM   19  C   UNL     1      41.498 -15.031   4.531  1.00  0.00    -0.030 A 
HETATM   20  C   UNL     1      42.773 -14.615   4.965  1.00  0.00     0.012 A 
HETATM   21  C   UNL     1      43.534 -15.409   5.827  1.00  0.00     0.037 A 
HETATM   22  C   UNL     1      43.029 -16.638   6.260  1.00  0.00     0.102 A 
HETATM   23  C   UNL     1      41.770 -17.076   5.835  1.00  0.00     0.037 A 
HETATM   24  C   UNL     1      41.010 -16.272   4.979  1.00  0.00     0.012 A 
BRANCH  22  25
HETATM   25  N   UNL     1      43.821 -17.466   7.177  1.00  0.00    -0.116 N 
HETATM   26  O   UNL     1      44.787 -18.077   6.697  1.00  0.00    -0.532 OA
HETATM   27  O   UNL     1      43.493 -17.478   8.369  1.00  0.00    -0.532 OA
ENDBRANCH  22  25
ENDBRANCH   2  19
BRANCH   6  28
HETATM   28  O   UNL     1      42.389 -11.772   1.369  1.00  0.00    -0.355 OA
HETATM   29  H   UNL     1      43.091 -11.271   1.849  1.00  0.00     0.218 HD
ENDBRANCH   6  28
BRANCH   3  30
HETATM   30  C   UNL     1      39.601 -12.684   5.359  1.00  0.00     0.155 C 
BRANCH  30  31
HETATM   31  C   UNL     1      40.525 -12.266   6.538  1.00  0.00     0.254 C 
BRANCH  31  32
HETATM   32  N   UNL     1      40.331 -10.826   7.032  1.00  0.00    -0.066 N 
HETATM   33  H   UNL     1      39.935 -10.327   6.218  1.00  0.00     0.280 HD
HETATM   34  C   UNL     1      41.681 -10.145   7.324  1.00  0.00     0.262 C 
HETATM   35  C   UNL     1      42.247 -10.532   8.716  1.00  0.00     0.260 C 
HETATM   36  N   UNL     1      41.246 -10.250   9.803  1.00  0.00    -0.072 N 
HETATM   37  H   UNL     1      41.132  -9.235   9.960  1.00  0.00     0.277 HD
HETATM   38  H   UNL     1      41.627 -10.600  10.700  1.00  0.00     0.277 HD
HETATM   39  C   UNL     1      39.913 -10.918   9.587  1.00  0.00     0.260 C 
HETATM   40  C   UNL     1      39.336 -10.611   8.184  1.00  0.00     0.262 C 
ENDBRANCH  31  32
ENDBRANCH  30  31
ENDBRANCH   3  30
TORSDOF 10
ENDMDL
MODEL 2
REMARK VINA RESULT:      -7.9      3.366      6.632
REMARK  10 active torsions:
REMARK  status: ('A' for Active; 'I' for Inactive)
REMARK    1  A    between atoms: C_2  and  O_3 
REMARK    2  A    between atoms: O_3  and  C_4 
REMARK    3  A    between atoms: C_7  and  C_8 
REMARK    4  A    between atoms: C_8  and  C_9 
REMARK    5  A    between atoms: C_10  and  C_11 
REMARK    6  A    between atoms: C_14  and  N_15 
REMARK    7  A    between atoms: N_20  and  C_21 
REMARK    8  A    between atoms: C_21  and  C_22 
REMARK    9  A    between atoms: C_22  and  N_23 
REMARK   10  A    between atoms: C_34  and  O_35 
ROOT
HETATM    1  C   UNL     1      41.555 -14.323   3.566  1.00  0.00     0.059 C 
HETATM    2  C   UNL     1      42.065 -14.756   2.227  1.00  0.00     0.161 C 
HETATM    3  N   UNL     1      40.876 -14.539   1.403  1.00  0.00    -0.332 N 
HETATM    4  C   UNL     1      39.755 -14.359   2.195  1.00  0.00     0.278 C 
HETATM    5  O   UNL     1      38.606 -14.379   1.789  1.00  0.00    -0.265 OA
HETATM    6  C   UNL     1      40.229 -14.122   3.573  1.00  0.00     0.146 C 
ENDROOT
BRANCH   1   7
HETATM    7  C   UNL     1      42.333 -14.190   4.811  1.00  0.00     0.193 C 
HETATM    8  O   UNL     1      42.705 -13.078   5.178  1.00  0.00    -0.287 OA
BRANCH   7   9
HETATM    9  C   UNL     1      42.618 -15.378   5.636  1.00  0.00     0.015 A 
HETATM   10  C   UNL     1      41.594 -16.158   6.184  1.00  0.00     0.018 A 
HETATM   11  C   UNL     1      41.909 -17.271   6.973  1.00  0.00     0.038 A 
HETATM   12  C   UNL     1      43.242 -17.620   7.196  1.00  0.00     0.069 A 
HETATM   13  C   UNL     1      44.255 -16.857   6.608  1.00  0.00     0.038 A 
HETATM   14  C   UNL     1      43.952 -15.741   5.827  1.00  0.00     0.018 A 
BRANCH  12  15
HETATM   15  O   UNL     1      43.697 -18.679   7.925  1.00  0.00    -0.347 OA
BRANCH  15  16
HETATM   16  C   UNL     1      44.214 -19.840   7.267  1.00  0.00     0.120 C 
HETATM   17  C   UNL     1      43.925 -19.752   5.771  1.00  0.00     0.040 C 
HETATM   18  C   UNL     1      43.498 -21.046   7.870  1.00  0.00     0.040 C 
ENDBRANCH  15  16
ENDBRANCH  12  15
ENDBRANCH   7   9
ENDBRANCH   1   7
BRANCH   2  19
HETATM   19  C   UNL     1      42.532 -16.203   2.199  1.00  0.00    -0.030 A 
HETATM   20  C   UNL     1      41.725 -17.253   2.682  1.00  0.00     0.012 A 
HETATM   21  C   UNL     1      42.184 -18.573   2.679  1.00  0.00     0.037 A 
HETATM   22  C   UNL     1      43.465 -18.858   2.196  1.00  0.00     0.102 A 
HETATM   23  C   UNL     1      44.287 -17.830   1.719  1.00  0.00     0.037 A 
HETATM   24  C   UNL     1      43.817 -16.512   1.719  1.00  0.00     0.012 A 
BRANCH  22  25
HETATM   25  N   UNL     1      43.942 -20.245   2.177  1.00  0.00    -0.116 N 
HETATM   26  O   UNL     1      45.091 -20.454   2.593  1.00  0.00    -0.532 OA
HETATM   27  O   UNL     1      43.160 -21.116   1.779  1.00  0.00    -0.532 OA
ENDBRANCH  22  25
ENDBRANCH   2  19
BRANCH   6  28
HETATM   28  O   UNL     1      39.410 -13.782   4.609  1.00  0.00    -0.355 OA
HETATM   29  H   UNL     1      39.823 -13.018   5.078  1.00  0.00     0.218 HD
ENDBRANCH   6  28
BRANCH   3  30
HETATM   30  C   UNL     1      40.810 -14.830  -0.025  1.00  0.00     0.155 C 
BRANCH  30  31
HETATM   31  C   UNL     1      41.747 -13.919  -0.868  1.00  0.00     0.254 C 
BRANCH  31  32
HETATM   32  N   UNL     1      41.827 -14.278  -2.358  1.00  0.00    -0.066 N 
HETATM   33  H   UNL     1      42.782 -14.652  -2.481  1.00  0.00     0.280 HD
HETATM   34  C   UNL     1      41.753 -13.021  -3.244  1.00  0.00     0.262 C 
HETATM   35  C   UNL     1      40.295 -12.533  -3.453  1.00  0.00     0.260 C 
HETATM   36  N   UNL     1      39.429 -13.637  -3.998  1.00  0.00    -0.072 N 
HETATM   37  H   UNL     1      39.662 -13.852  -4.981  1.00  0.00     0.277 HD
HETATM   38  H   UNL     1      38.452 -13.297  -4.041  1.00  0.00     0.277 HD
HETATM   39  C   UNL     1      39.437 -14.884  -3.153  1.00  0.00     0.260 C 
HETATM   40  C   UNL     1      40.877 -15.375  -2.864  1.00  0.00     0.262 C 
ENDBRANCH  31  32
ENDBRANCH  30  31
ENDBRANCH   3  30
TORSDOF 10
ENDMDL
MODEL 3
REMARK VINA RESULT:      -7.7      2.928      4.896
REMARK  10 active torsions:
REMARK  status: ('A' for Active; 'I' for Inactive)
REMARK    1  A    between atoms: C_2  and  O_3 
REMARK    2  A    between atoms: O_3  and  C_4 
REMARK    3  A    between atoms: C_7  and  C_8 
REMARK    4  A    between atoms: C_8  and  C_9 
REMARK    5  A    between atoms: C_10  and  C_11 
REMARK    6  A    between atoms: C_14  and  N_15 
REMARK    7  A    between atoms: N_20  and  C_21 
REMARK    8  A    between atoms: C_21  and  C_22 
REMARK    9  A    between atoms: C_22  and  N_23 
REMARK   10  A    between atoms: C_34  and  O_35 
ROOT
HETATM    1  C   UNL     1      41.150 -15.329   1.618  1.00  0.00     0.059 C 
HETATM    2  C   UNL     1      40.977 -14.131   2.497  1.00  0.00     0.161 C 
HETATM    3  N   UNL     1      41.116 -13.055   1.517  1.00  0.00    -0.332 N 
HETATM    4  C   UNL     1      41.644 -13.534   0.331  1.00  0.00     0.278 C 
HETATM    5  O   UNL     1      42.070 -12.837  -0.573  1.00  0.00    -0.265 OA
HETATM    6  C   UNL     1      41.563 -15.007   0.382  1.00  0.00     0.146 C 
ENDROOT
BRANCH   1   7
HETATM    7  C   UNL     1      40.992 -16.744   2.002  1.00  0.00     0.193 C 
HETATM    8  O   UNL     1      40.120 -17.425   1.468  1.00  0.00    -0.287 OA
BRANCH   7   9
HETATM    9  C   UNL     1      41.908 -17.350   2.986  1.00  0.00     0.015 A 
HETATM   10  C   UNL     1      43.228 -17.677   2.660  1.00  0.00     0.018 A 
HETATM   11  C   UNL     1      44.061 -18.264   3.621  1.00  0.00     0.038 A 
HETATM   12  C   UNL     1      43.586 -18.502   4.911  1.00  0.00     0.069 A 
HETATM   13  C   UNL     1      42.278 -18.131   5.236  1.00  0.00     0.038 A 
HETATM   14  C   UNL     1      41.438 -17.554   4.283  1.00  0.00     0.018 A 
BRANCH  12  15
HETATM   15  O   UNL     1      44.282 -19.049   5.949  1.00  0.00    -0.347 OA
BRANCH  15  16
HETATM   16  C   UNL     1      43.613 -19.394   7.166  1.00  0.00     0.120 C 
HETATM   17  C   UNL     1      44.293 -18.695   8.340  1.00  0.00     0.040 C 
HETATM   18  C   UNL     1      43.725 -20.908   7.319  1.00  0.00     0.040 C 
ENDBRANCH  15  16
ENDBRANCH  12  15
ENDBRANCH   7   9
ENDBRANCH   1   7
BRANCH   2  19
HETATM   19  C   UNL     1      42.016 -14.042   3.605  1.00  0.00    -0.030 A 
HETATM   20  C   UNL     1      43.398 -14.042   3.328  1.00  0.00     0.012 A 
HETATM   21  C   UNL     1      44.339 -13.992   4.360  1.00  0.00     0.037 A 
HETATM   22  C   UNL     1      43.904 -13.949   5.689  1.00  0.00     0.102 A 
HETATM   23  C   UNL     1      42.537 -13.957   5.988  1.00  0.00     0.037 A 
HETATM   24  C   UNL     1      41.601 -13.999   4.948  1.00  0.00     0.012 A 
BRANCH  22  25
HETATM   25  N   UNL     1      44.890 -13.881   6.773  1.00  0.00    -0.116 N 
HETATM   26  O   UNL     1      44.558 -14.354   7.871  1.00  0.00    -0.532 OA
HETATM   27  O   UNL     1      45.994 -13.388   6.516  1.00  0.00    -0.532 OA
ENDBRANCH  22  25
ENDBRANCH   2  19
BRANCH   6  28
HETATM   28  O   UNL     1      41.879 -15.821  -0.665  1.00  0.00    -0.355 OA
HETATM   29  H   UNL     1      42.765 -15.544  -1.002  1.00  0.00     0.218 HD
ENDBRANCH   6  28
BRANCH   3  30
HETATM   30  C   UNL     1      41.052 -11.636   1.850  1.00  0.00     0.155 C 
BRANCH  30  31
HETATM   31  C   UNL     1      39.618 -11.173   2.236  1.00  0.00     0.254 C 
BRANCH  31  32
HETATM   32  N   UNL     1      38.907 -10.323   1.173  1.00  0.00    -0.066 N 
HETATM   33  H   UNL     1      39.240  -9.361   1.349  1.00  0.00     0.280 HD
HETATM   34  C   UNL     1      37.385 -10.289   1.406  1.00  0.00     0.262 C 
HETATM   35  C   UNL     1      36.676 -11.553   0.853  1.00  0.00     0.260 C 
HETATM   36  N   UNL     1      37.001 -11.760  -0.602  1.00  0.00    -0.072 N 
HETATM   37  H   UNL     1      36.542 -11.052  -1.198  1.00  0.00     0.277 HD
HETATM   38  H   UNL     1      36.580 -12.655  -0.908  1.00  0.00     0.277 HD
HETATM   39  C   UNL     1      38.478 -11.834  -0.887  1.00  0.00     0.260 C 
HETATM   40  C   UNL     1      39.240 -10.622  -0.298  1.00  0.00     0.262 C 
ENDBRANCH  31  32
ENDBRANCH  30  31
ENDBRANCH   3  30
TORSDOF 10
ENDMDL
MODEL 4
REMARK VINA RESULT:      -7.7      4.197      7.593
REMARK  10 active torsions:
REMARK  status: ('A' for Active; 'I' for Inactive)
REMARK    1  A    between atoms: C_2  and  O_3 
REMARK    2  A    between atoms: O_3  and  C_4 
REMARK    3  A    between atoms: C_7  and  C_8 
REMARK    4  A    between atoms: C_8  and  C_9 
REMARK    5  A    between atoms: C_10  and  C_11 
REMARK    6  A    between atoms: C_14  and  N_15 
REMARK    7  A    between atoms: N_20  and  C_21 
REMARK    8  A    between atoms: C_21  and  C_22 
REMARK    9  A    between atoms: C_22  and  N_23 
REMARK   10  A    between atoms: C_34  and  O_35 
ROOT
HETATM    1  C   UNL     1      40.969 -14.653   1.543  1.00  0.00     0.059 C 
HETATM    2  C   UNL     1      41.612 -14.269   0.247  1.00  0.00     0.161 C 
HETATM    3  N   UNL     1      41.786 -12.831   0.449  1.00  0.00    -0.332 N 
HETATM    4  C   UNL     1      41.039 -12.392   1.528  1.00  0.00     0.278 C 
HETATM    5  O   UNL     1      40.818 -11.222   1.791  1.00  0.00    -0.265 OA
HETATM    6  C   UNL     1      40.607 -13.589   2.275  1.00  0.00     0.146 C 
ENDROOT
BRANCH   1   7
HETATM    7  C   UNL     1      40.653 -16.016   2.007  1.00  0.00     0.193 C 
HETATM    8  O   UNL     1      39.483 -16.336   2.201  1.00  0.00    -0.287 OA
BRANCH   7   9
HETATM    9  C   UNL     1      41.733 -17.004   2.189  1.00  0.00     0.015 A 
HETATM   10  C   UNL     1      42.603 -17.344   1.148  1.00  0.00     0.018 A 
HETATM   11  C   UNL     1      43.607 -18.299   1.360  1.00  0.00     0.038 A 
HETATM   12  C   UNL     1      43.757 -18.894   2.613  1.00  0.00     0.069 A 
HETATM   13  C   UNL     1      42.907 -18.514   3.656  1.00  0.00     0.038 A 
HETATM   14  C   UNL     1      41.899 -17.572   3.453  1.00  0.00     0.018 A 
BRANCH  12  15
HETATM   15  O   UNL     1      44.692 -19.821   2.968  1.00  0.00    -0.347 OA
BRANCH  15  16
HETATM   16  C   UNL     1      44.298 -21.159   3.291  1.00  0.00     0.120 C 
HETATM   17  C   UNL     1      45.066 -21.636   4.520  1.00  0.00     0.040 C 
HETATM   18  C   UNL     1      44.647 -22.026   2.084  1.00  0.00     0.040 C 
ENDBRANCH  15  16
ENDBRANCH  12  15
ENDBRANCH   7   9
ENDBRANCH   1   7
BRANCH   2  19
HETATM   19  C   UNL     1      40.753 -14.582  -0.968  1.00  0.00    -0.030 A 
HETATM   20  C   UNL     1      39.484 -13.994  -1.152  1.00  0.00     0.012 A 
HETATM   21  C   UNL     1      38.695 -14.319  -2.258  1.00  0.00     0.037 A 
HETATM   22  C   UNL     1      39.164 -15.246  -3.194  1.00  0.00     0.102 A 
HETATM   23  C   UNL     1      40.416 -15.849  -3.027  1.00  0.00     0.037 A 
HETATM   24  C   UNL     1      41.205 -15.513  -1.921  1.00  0.00     0.012 A 
BRANCH  22  25
HETATM   25  N   UNL     1      38.343 -15.577  -4.364  1.00  0.00    -0.116 N 
HETATM   26  O   UNL     1      37.257 -14.990  -4.477  1.00  0.00    -0.532 OA
HETATM   27  O   UNL     1      38.798 -16.394  -5.173  1.00  0.00    -0.532 OA
ENDBRANCH  22  25
ENDBRANCH   2  19
BRANCH   6  28
HETATM   28  O   UNL     1      39.952 -13.543   3.470  1.00  0.00    -0.355 OA
HETATM   29  H   UNL     1      40.577 -13.858   4.165  1.00  0.00     0.218 HD
ENDBRANCH   6  28
BRANCH   3  30
HETATM   30  C   UNL     1      42.363 -11.932  -0.545  1.00  0.00     0.155 C 
BRANCH  30  31
HETATM   31  C   UNL     1      41.385 -10.801  -0.973  1.00  0.00     0.254 C 
BRANCH  31  32
HETATM   32  N   UNL     1      41.577 -10.290  -2.407  1.00  0.00    -0.066 N 
HETATM   33  H   UNL     1      42.225  -9.491  -2.311  1.00  0.00     0.280 HD
HETATM   34  C   UNL     1      40.272  -9.704  -2.976  1.00  0.00     0.262 C 
HETATM   35  C   UNL     1      39.315 -10.803  -3.509  1.00  0.00     0.260 C 
HETATM   36  N   UNL     1      40.007 -11.676  -4.520  1.00  0.00    -0.072 N 
HETATM   37  H   UNL     1      40.172 -11.172  -5.407  1.00  0.00     0.277 HD
HETATM   38  H   UNL     1      39.365 -12.444  -4.785  1.00  0.00     0.277 HD
HETATM   39  C   UNL     1      41.278 -12.304  -4.009  1.00  0.00     0.260 C 
HETATM   40  C   UNL     1      42.240 -11.250  -3.409  1.00  0.00     0.262 C 
ENDBRANCH  31  32
ENDBRANCH  30  31
ENDBRANCH   3  30
TORSDOF 10
ENDMDL
MODEL 5
REMARK VINA RESULT:      -7.6      2.347      7.592
REMARK  10 active torsions:
REMARK  status: ('A' for Active; 'I' for Inactive)
REMARK    1  A    between atoms: C_2  and  O_3 
REMARK    2  A    between atoms: O_3  and  C_4 
REMARK    3  A    between atoms: C_7  and  C_8 
REMARK    4  A    between atoms: C_8  and  C_9 
REMARK    5  A    between atoms: C_10  and  C_11 
REMARK    6  A    between atoms: C_14  and  N_15 
REMARK    7  A    between atoms: N_20  and  C_21 
REMARK    8  A    between atoms: C_21  and  C_22 
REMARK    9  A    between atoms: C_22  and  N_23 
REMARK   10  A    between atoms: C_34  and  O_35 
ROOT
HETATM    1  C   UNL     1      40.520 -14.424   2.255  1.00  0.00     0.059 C 
HETATM    2  C   UNL     1      41.999 -14.655   2.261  1.00  0.00     0.161 C 
HETATM    3  N   UNL     1      42.072 -15.949   1.584  1.00  0.00    -0.332 N 
HETATM    4  C   UNL     1      40.823 -16.542   1.519  1.00  0.00     0.278 C 
HETATM    5  O   UNL     1      40.620 -17.705   1.213  1.00  0.00    -0.265 OA
HETATM    6  C   UNL     1      39.830 -15.506   1.862  1.00  0.00     0.146 C 
ENDROOT
BRANCH   1   7
HETATM    7  C   UNL     1      39.809 -13.209   2.693  1.00  0.00     0.193 C 
HETATM    8  O   UNL     1      39.030 -12.650   1.925  1.00  0.00    -0.287 OA
BRANCH   7   9
HETATM    9  C   UNL     1      39.996 -12.697   4.063  1.00  0.00     0.015 A 
HETATM   10  C   UNL     1      39.417 -13.326   5.170  1.00  0.00     0.018 A 
HETATM   11  C   UNL     1      39.609 -12.798   6.454  1.00  0.00     0.038 A 
HETATM   12  C   UNL     1      40.395 -11.660   6.635  1.00  0.00     0.069 A 
HETATM   13  C   UNL     1      41.003 -11.066   5.526  1.00  0.00     0.038 A 
HETATM   14  C   UNL     1      40.811 -11.578   4.242  1.00  0.00     0.018 A 
BRANCH  12  15
HETATM   15  O   UNL     1      40.681 -11.047   7.820  1.00  0.00    -0.347 OA
BRANCH  15  16
HETATM   16  C   UNL     1      40.136  -9.757   8.115  1.00  0.00     0.120 C 
HETATM   17  C   UNL     1      41.187  -8.909   8.827  1.00  0.00     0.040 C 
HETATM   18  C   UNL     1      38.935  -9.983   9.030  1.00  0.00     0.040 C 
ENDBRANCH  15  16
ENDBRANCH  12  15
ENDBRANCH   7   9
ENDBRANCH   1   7
BRANCH   2  19
HETATM   19  C   UNL     1      42.594 -14.701   3.660  1.00  0.00    -0.030 A 
HETATM   20  C   UNL     1      42.047 -15.513   4.674  1.00  0.00     0.012 A 
HETATM   21  C   UNL     1      42.588 -15.518   5.963  1.00  0.00     0.037 A 
HETATM   22  C   UNL     1      43.684 -14.700   6.255  1.00  0.00     0.102 A 
HETATM   23  C   UNL     1      44.238 -13.878   5.267  1.00  0.00     0.037 A 
HETATM   24  C   UNL     1      43.696 -13.885   3.977  1.00  0.00     0.012 A 
BRANCH  22  25
HETATM   25  N   UNL     1      44.262 -14.714   7.603  1.00  0.00    -0.116 N 
HETATM   26  O   UNL     1      44.032 -15.709   8.307  1.00  0.00    -0.532 OA
HETATM   27  O   UNL     1      44.963 -13.752   7.938  1.00  0.00    -0.532 OA
ENDBRANCH  22  25
ENDBRANCH   2  19
BRANCH   6  28
HETATM   28  O   UNL     1      38.481 -15.691   1.784  1.00  0.00    -0.355 OA
HETATM   29  H   UNL     1      38.052 -15.000   2.344  1.00  0.00     0.218 HD
ENDBRANCH   6  28
BRANCH   3  30
HETATM   30  C   UNL     1      43.316 -16.671   1.338  1.00  0.00     0.155 C 
BRANCH  30  31
HETATM   31  C   UNL     1      43.858 -17.385   2.609  1.00  0.00     0.254 C 
BRANCH  31  32
HETATM   32  N   UNL     1      43.095 -18.654   3.012  1.00  0.00    -0.066 N 
HETATM   33  H   UNL     1      42.101 -18.412   2.869  1.00  0.00     0.280 HD
HETATM   34  C   UNL     1      43.244 -18.946   4.517  1.00  0.00     0.262 C 
HETATM   35  C   UNL     1      44.581 -19.659   4.849  1.00  0.00     0.260 C 
HETATM   36  N   UNL     1      44.742 -20.912   4.032  1.00  0.00    -0.072 N 
HETATM   37  H   UNL     1      44.091 -21.653   4.340  1.00  0.00     0.277 HD
HETATM   38  H   UNL     1      45.680 -21.309   4.220  1.00  0.00     0.277 HD
HETATM   39  C   UNL     1      44.638 -20.683   2.546  1.00  0.00     0.260 C 
HETATM   40  C   UNL     1      43.346 -19.916   2.171  1.00  0.00     0.262 C 
ENDBRANCH  31  32
ENDBRANCH  30  31
ENDBRANCH   3  30
TORSDOF 10
ENDMDL
MODEL 6
REMARK VINA RESULT:      -7.6      1.913      2.647
REMARK  10 active torsions:
REMARK  status: ('A' for Active; 'I' for Inactive)
REMARK    1  A    between atoms: C_2  and  O_3 
REMARK    2  A    between atoms: O_3  and  C_4 
REMARK    3  A    between atoms: C_7  and  C_8 
REMARK    4  A    between atoms: C_8  and  C_9 
REMARK    5  A    between atoms: C_10  and  C_11 
REMARK    6  A    between atoms: C_14  and  N_15 
REMARK    7  A    between atoms: N_20  and  C_21 
REMARK    8  A    between atoms: C_21  and  C_22 
REMARK    9  A    between atoms: C_22  and  N_23 
REMARK   10  A    between atoms: C_34  and  O_35 
ROOT
HETATM    1  C   UNL     1      41.498 -14.103   0.096  1.00  0.00     0.059 C 
HETATM    2  C   UNL     1      40.968 -13.526   1.371  1.00  0.00     0.161 C 
HETATM    3  N   UNL     1      41.232 -12.104   1.153  1.00  0.00    -0.332 N 
HETATM    4  C   UNL     1      42.100 -11.921   0.091  1.00  0.00     0.278 C 
HETATM    5  O   UNL     1      42.663 -10.873  -0.175  1.00  0.00    -0.265 OA
HETATM    6  C   UNL     1      42.176 -13.204  -0.634  1.00  0.00     0.146 C 
ENDROOT
BRANCH   1   7
HETATM    7  C   UNL     1      41.408 -15.505  -0.349  1.00  0.00     0.193 C 
HETATM    8  O   UNL     1      41.033 -15.757  -1.491  1.00  0.00    -0.287 OA
BRANCH   7   9
HETATM    9  C   UNL     1      41.813 -16.596   0.557  1.00  0.00     0.015 A 
HETATM   10  C   UNL     1      40.874 -17.424   1.179  1.00  0.00     0.018 A 
HETATM   11  C   UNL     1      41.301 -18.440   2.044  1.00  0.00     0.038 A 
HETATM   12  C   UNL     1      42.662 -18.645   2.268  1.00  0.00     0.069 A 
HETATM   13  C   UNL     1      43.592 -17.838   1.607  1.00  0.00     0.038 A 
HETATM   14  C   UNL     1      43.177 -16.817   0.751  1.00  0.00     0.018 A 
BRANCH  12  15
HETATM   15  O   UNL     1      43.223 -19.599   3.067  1.00  0.00    -0.347 OA
BRANCH  15  16
HETATM   16  C   UNL     1      44.414 -20.276   2.655  1.00  0.00     0.120 C 
HETATM   17  C   UNL     1      44.043 -21.542   1.887  1.00  0.00     0.040 C 
HETATM   18  C   UNL     1      45.180 -20.638   3.925  1.00  0.00     0.040 C 
ENDBRANCH  15  16
ENDBRANCH  12  15
ENDBRANCH   7   9
ENDBRANCH   1   7
BRANCH   2  19
HETATM   19  C   UNL     1      41.668 -14.061   2.611  1.00  0.00    -0.030 A 
HETATM   20  C   UNL     1      43.045 -13.857   2.832  1.00  0.00     0.012 A 
HETATM   21  C   UNL     1      43.678 -14.384   3.961  1.00  0.00     0.037 A 
HETATM   22  C   UNL     1      42.938 -15.130   4.883  1.00  0.00     0.102 A 
HETATM   23  C   UNL     1      41.571 -15.352   4.680  1.00  0.00     0.037 A 
HETATM   24  C   UNL     1      40.942 -14.814   3.551  1.00  0.00     0.012 A 
BRANCH  22  25
HETATM   25  N   UNL     1      43.597 -15.671   6.077  1.00  0.00    -0.116 N 
HETATM   26  O   UNL     1      43.239 -16.793   6.462  1.00  0.00    -0.532 OA
HETATM   27  O   UNL     1      44.485 -14.988   6.601  1.00  0.00    -0.532 OA
ENDBRANCH  22  25
ENDBRANCH   2  19
BRANCH   6  28
HETATM   28  O   UNL     1      42.844 -13.372  -1.811  1.00  0.00    -0.355 OA
HETATM   29  H   UNL     1      43.794 -13.527  -1.597  1.00  0.00     0.218 HD
ENDBRANCH   6  28
BRANCH   3  30
HETATM   30  C   UNL     1      40.923 -11.060   2.125  1.00  0.00     0.155 C 
BRANCH  30  31
HETATM   31  C   UNL     1      39.639 -11.365   2.947  1.00  0.00     0.254 C 
BRANCH  31  32
HETATM   32  N   UNL     1      39.587 -10.706   4.332  1.00  0.00    -0.066 N 
HETATM   33  H   UNL     1      39.171  -9.777   4.159  1.00  0.00     0.280 HD
HETATM   34  C   UNL     1      41.001 -10.437   4.881  1.00  0.00     0.262 C 
HETATM   35  C   UNL     1      41.636 -11.701   5.519  1.00  0.00     0.260 C 
HETATM   36  N   UNL     1      40.739 -12.276   6.581  1.00  0.00    -0.072 N 
HETATM   37  H   UNL     1      40.712 -11.676   7.422  1.00  0.00     0.277 HD
HETATM   38  H   UNL     1      41.157 -13.161   6.920  1.00  0.00     0.277 HD
HETATM   39  C   UNL     1      39.349 -12.591   6.094  1.00  0.00     0.260 C 
HETATM   40  C   UNL     1      38.696 -11.375   5.392  1.00  0.00     0.262 C 
ENDBRANCH  31  32
ENDBRANCH  30  31
ENDBRANCH   3  30
TORSDOF 10
ENDMDL
MODEL 7
REMARK VINA RESULT:      -7.4      3.050      6.224
REMARK  10 active torsions:
REMARK  status: ('A' for Active; 'I' for Inactive)
REMARK    1  A    between atoms: C_2  and  O_3 
REMARK    2  A    between atoms: O_3  and  C_4 
REMARK    3  A    between atoms: C_7  and  C_8 
REMARK    4  A    between atoms: C_8  and  C_9 
REMARK    5  A    between atoms: C_10  and  C_11 
REMARK    6  A    between atoms: C_14  and  N_15 
REMARK    7  A    between atoms: N_20  and  C_21 
REMARK    8  A    between atoms: C_21  and  C_22 
REMARK    9  A    between atoms: C_22  and  N_23 
REMARK   10  A    between atoms: C_34  and  O_35 
ROOT
HETATM    1  C   UNL     1      41.318 -13.350   4.089  1.00  0.00     0.059 C 
HETATM    2  C   UNL     1      41.976 -13.625   2.773  1.00  0.00     0.161 C 
HETATM    3  N   UNL     1      40.950 -13.138   1.852  1.00  0.00    -0.332 N 
HETATM    4  C   UNL     1      39.748 -12.948   2.510  1.00  0.00     0.278 C 
HETATM    5  O   UNL     1      38.675 -12.763   1.960  1.00  0.00    -0.265 OA
HETATM    6  C   UNL     1      40.031 -12.991   3.957  1.00  0.00     0.146 C 
ENDROOT
BRANCH   1   7
HETATM    7  C   UNL     1      41.910 -13.510   5.430  1.00  0.00     0.193 C 
HETATM    8  O   UNL     1      42.031 -12.531   6.161  1.00  0.00    -0.287 OA
BRANCH   7   9
HETATM    9  C   UNL     1      42.309 -14.847   5.907  1.00  0.00     0.015 A 
HETATM   10  C   UNL     1      41.374 -15.869   6.103  1.00  0.00     0.018 A 
HETATM   11  C   UNL     1      41.794 -17.121   6.570  1.00  0.00     0.038 A 
HETATM   12  C   UNL     1      43.145 -17.361   6.819  1.00  0.00     0.069 A 
HETATM   13  C   UNL     1      44.075 -16.345   6.579  1.00  0.00     0.038 A 
HETATM   14  C   UNL     1      43.666 -15.091   6.121  1.00  0.00     0.018 A 
BRANCH  12  15
HETATM   15  O   UNL     1      43.700 -18.527   7.259  1.00  0.00    -0.347 OA
BRANCH  15  16
HETATM   16  C   UNL     1      43.557 -19.728   6.494  1.00  0.00     0.120 C 
HETATM   17  C   UNL     1      43.659 -20.939   7.418  1.00  0.00     0.040 C 
HETATM   18  C   UNL     1      44.698 -19.744   5.479  1.00  0.00     0.040 C 
ENDBRANCH  15  16
ENDBRANCH  12  15
ENDBRANCH   7   9
ENDBRANCH   1   7
BRANCH   2  19
HETATM   19  C   UNL     1      42.297 -15.096   2.557  1.00  0.00    -0.030 A 
HETATM   20  C   UNL     1      41.282 -16.071   2.466  1.00  0.00     0.012 A 
HETATM   21  C   UNL     1      41.597 -17.423   2.299  1.00  0.00     0.037 A 
HETATM   22  C   UNL     1      42.937 -17.817   2.228  1.00  0.00     0.102 A 
HETATM   23  C   UNL     1      43.960 -16.867   2.325  1.00  0.00     0.037 A 
HETATM   24  C   UNL     1      43.637 -15.515   2.484  1.00  0.00     0.012 A 
BRANCH  22  25
HETATM   25  N   UNL     1      43.268 -19.233   2.038  1.00  0.00    -0.116 N 
HETATM   26  O   UNL     1      42.336 -20.000   1.754  1.00  0.00    -0.532 OA
HETATM   27  O   UNL     1      44.455 -19.564   2.142  1.00  0.00    -0.532 OA
ENDBRANCH  22  25
ENDBRANCH   2  19
BRANCH   6  28
HETATM   28  O   UNL     1      39.105 -12.721   4.921  1.00  0.00    -0.355 OA
HETATM   29  H   UNL     1      38.328 -12.301   4.479  1.00  0.00     0.218 HD
ENDBRANCH   6  28
BRANCH   3  30
HETATM   30  C   UNL     1      41.070 -13.190   0.399  1.00  0.00     0.155 C 
BRANCH  30  31
HETATM   31  C   UNL     1      41.544 -11.841  -0.214  1.00  0.00     0.254 C 
BRANCH  31  32
HETATM   32  N   UNL     1      42.776 -11.943  -1.123  1.00  0.00    -0.066 N 
HETATM   33  H   UNL     1      43.510 -12.344  -0.517  1.00  0.00     0.280 HD
HETATM   34  C   UNL     1      43.287 -10.551  -1.537  1.00  0.00     0.262 C 
HETATM   35  C   UNL     1      42.479  -9.954  -2.720  1.00  0.00     0.260 C 
HETATM   36  N   UNL     1      42.460 -10.899  -3.891  1.00  0.00    -0.072 N 
HETATM   37  H   UNL     1      43.384 -10.955  -4.348  1.00  0.00     0.277 HD
HETATM   38  H   UNL     1      41.843 -10.502  -4.622  1.00  0.00     0.277 HD
HETATM   39  C   UNL     1      41.938 -12.271  -3.553  1.00  0.00     0.260 C 
HETATM   40  C   UNL     1      42.673 -12.883  -2.336  1.00  0.00     0.262 C 
ENDBRANCH  31  32
ENDBRANCH  30  31
ENDBRANCH   3  30
TORSDOF 10
ENDMDL
MODEL 8
REMARK VINA RESULT:      -7.2      3.118      6.346
REMARK  10 active torsions:
REMARK  status: ('A' for Active; 'I' for Inactive)
REMARK    1  A    between atoms: C_2  and  O_3 
REMARK    2  A    between atoms: O_3  and  C_4 
REMARK    3  A    between atoms: C_7  and  C_8 
REMARK    4  A    between atoms: C_8  and  C_9 
REMARK    5  A    between atoms: C_10  and  C_11 
REMARK    6  A    between atoms: C_14  and  N_15 
REMARK    7  A    between atoms: N_20  and  C_21 
REMARK    8  A    between atoms: C_21  and  C_22 
REMARK    9  A    between atoms: C_22  and  N_23 
REMARK   10  A    between atoms: C_34  and  O_35 
ROOT
HETATM    1  C   UNL     1      40.099 -11.991   3.890  1.00  0.00     0.059 C 
HETATM    2  C   UNL     1      40.684 -12.270   2.541  1.00  0.00     0.161 C 
HETATM    3  N   UNL     1      39.637 -11.728   1.676  1.00  0.00    -0.332 N 
HETATM    4  C   UNL     1      38.475 -11.502   2.392  1.00  0.00     0.278 C 
HETATM    5  O   UNL     1      37.387 -11.266   1.895  1.00  0.00    -0.265 OA
HETATM    6  C   UNL     1      38.823 -11.579   3.823  1.00  0.00     0.146 C 
ENDROOT
BRANCH   1   7
HETATM    7  C   UNL     1      40.745 -12.196   5.199  1.00  0.00     0.193 C 
HETATM    8  O   UNL     1      40.777 -11.276   6.012  1.00  0.00    -0.287 OA
BRANCH   7   9
HETATM    9  C   UNL     1      41.307 -13.514   5.548  1.00  0.00     0.015 A 
HETATM   10  C   UNL     1      42.684 -13.715   5.686  1.00  0.00     0.018 A 
HETATM   11  C   UNL     1      43.176 -14.987   6.005  1.00  0.00     0.038 A 
HETATM   12  C   UNL     1      42.296 -16.050   6.209  1.00  0.00     0.069 A 
HETATM   13  C   UNL     1      40.920 -15.826   6.109  1.00  0.00     0.038 A 
HETATM   14  C   UNL     1      40.420 -14.565   5.783  1.00  0.00     0.018 A 
BRANCH  12  15
HETATM   15  O   UNL     1      42.628 -17.332   6.538  1.00  0.00    -0.347 OA
BRANCH  15  16
HETATM   16  C   UNL     1      44.000 -17.702   6.709  1.00  0.00     0.120 C 
HETATM   17  C   UNL     1      44.470 -18.499   5.495  1.00  0.00     0.040 C 
HETATM   18  C   UNL     1      44.071 -18.566   7.965  1.00  0.00     0.040 C 
ENDBRANCH  15  16
ENDBRANCH  12  15
ENDBRANCH   7   9
ENDBRANCH   1   7
BRANCH   2  19
HETATM   19  C   UNL     1      40.935 -13.749   2.289  1.00  0.00    -0.030 A 
HETATM   20  C   UNL     1      39.881 -14.685   2.252  1.00  0.00     0.012 A 
HETATM   21  C   UNL     1      40.134 -16.045   2.050  1.00  0.00     0.037 A 
HETATM   22  C   UNL     1      41.451 -16.486   1.890  1.00  0.00     0.102 A 
HETATM   23  C   UNL     1      42.514 -15.576   1.933  1.00  0.00     0.037 A 
HETATM   24  C   UNL     1      42.252 -14.216   2.126  1.00  0.00     0.012 A 
BRANCH  22  25
HETATM   25  N   UNL     1      41.717 -17.912   1.664  1.00  0.00    -0.116 N 
HETATM   26  O   UNL     1      40.947 -18.518   0.904  1.00  0.00    -0.532 OA
HETATM   27  O   UNL     1      42.705 -18.407   2.220  1.00  0.00    -0.532 OA
ENDBRANCH  22  25
ENDBRANCH   2  19
BRANCH   6  28
HETATM   28  O   UNL     1      37.954 -11.289   4.833  1.00  0.00    -0.355 OA
HETATM   29  H   UNL     1      38.348 -11.625   5.673  1.00  0.00     0.218 HD
ENDBRANCH   6  28
BRANCH   3  30
HETATM   30  C   UNL     1      39.688 -11.761   0.218  1.00  0.00     0.155 C 
BRANCH  30  31
HETATM   31  C   UNL     1      40.962 -11.078  -0.355  1.00  0.00     0.254 C 
BRANCH  31  32
HETATM   32  N   UNL     1      42.053 -12.045  -0.835  1.00  0.00    -0.066 N 
HETATM   33  H   UNL     1      42.611 -12.243   0.012  1.00  0.00     0.280 HD
HETATM   34  C   UNL     1      43.017 -11.362  -1.821  1.00  0.00     0.262 C 
HETATM   35  C   UNL     1      42.447 -11.311  -3.263  1.00  0.00     0.260 C 
HETATM   36  N   UNL     1      42.062 -12.685  -3.740  1.00  0.00    -0.072 N 
HETATM   37  H   UNL     1      42.894 -13.270  -3.923  1.00  0.00     0.277 HD
HETATM   38  H   UNL     1      41.609 -12.597  -4.667  1.00  0.00     0.277 HD
HETATM   39  C   UNL     1      41.093 -13.392  -2.829  1.00  0.00     0.260 C 
HETATM   40  C   UNL     1      41.591 -13.413  -1.363  1.00  0.00     0.262 C 
ENDBRANCH  31  32
ENDBRANCH  30  31
ENDBRANCH   3  30
TORSDOF 10
ENDMDL
MODEL 9
REMARK VINA RESULT:      -7.1      2.970      4.063
REMARK  10 active torsions:
REMARK  status: ('A' for Active; 'I' for Inactive)
REMARK    1  A    between atoms: C_2  and  O_3 
REMARK    2  A    between atoms: O_3  and  C_4 
REMARK    3  A    between atoms: C_7  and  C_8 
REMARK    4  A    between atoms: C_8  and  C_9 
REMARK    5  A    between atoms: C_10  and  C_11 
REMARK    6  A    between atoms: C_14  and  N_15 
REMARK    7  A    between atoms: N_20  and  C_21 
REMARK    8  A    between atoms: C_21  and  C_22 
REMARK    9  A    between atoms: C_22  and  N_23 
REMARK   10  A    between atoms: C_34  and  O_35 
ROOT
HETATM    1  C   UNL     1      41.427 -14.115   0.195  1.00  0.00     0.059 C 
HETATM    2  C   UNL     1      40.870 -13.563   1.470  1.00  0.00     0.161 C 
HETATM    3  N   UNL     1      40.999 -12.128   1.220  1.00  0.00    -0.332 N 
HETATM    4  C   UNL     1      41.825 -11.889   0.137  1.00  0.00     0.278 C 
HETATM    5  O   UNL     1      42.285 -10.799  -0.161  1.00  0.00    -0.265 OA
HETATM    6  C   UNL     1      42.005 -13.174  -0.566  1.00  0.00     0.146 C 
ENDROOT
BRANCH   1   7
HETATM    7  C   UNL     1      41.457 -15.529  -0.222  1.00  0.00     0.193 C 
HETATM    8  O   UNL     1      41.036 -15.844  -1.332  1.00  0.00    -0.287 OA
BRANCH   7   9
HETATM    9  C   UNL     1      42.035 -16.551   0.670  1.00  0.00     0.015 A 
HETATM   10  C   UNL     1      43.391 -16.548   1.013  1.00  0.00     0.018 A 
HETATM   11  C   UNL     1      43.902 -17.545   1.852  1.00  0.00     0.038 A 
HETATM   12  C   UNL     1      43.059 -18.530   2.368  1.00  0.00     0.069 A 
HETATM   13  C   UNL     1      41.698 -18.497   2.053  1.00  0.00     0.038 A 
HETATM   14  C   UNL     1      41.180 -17.512   1.210  1.00  0.00     0.018 A 
BRANCH  12  15
HETATM   15  O   UNL     1      43.410 -19.548   3.205  1.00  0.00    -0.347 OA
BRANCH  15  16
HETATM   16  C   UNL     1      44.608 -20.296   2.970  1.00  0.00     0.120 C 
HETATM   17  C   UNL     1      44.277 -21.553   2.170  1.00  0.00     0.040 C 
HETATM   18  C   UNL     1      45.167 -20.676   4.339  1.00  0.00     0.040 C 
ENDBRANCH  15  16
ENDBRANCH  12  15
ENDBRANCH   7   9
ENDBRANCH   1   7
BRANCH   2  19
HETATM   19  C   UNL     1      41.640 -14.006   2.705  1.00  0.00    -0.030 A 
HETATM   20  C   UNL     1      42.986 -13.638   2.912  1.00  0.00     0.012 A 
HETATM   21  C   UNL     1      43.687 -14.082   4.037  1.00  0.00     0.037 A 
HETATM   22  C   UNL     1      43.049 -14.908   4.967  1.00  0.00     0.102 A 
HETATM   23  C   UNL     1      41.717 -15.293   4.777  1.00  0.00     0.037 A 
HETATM   24  C   UNL     1      41.019 -14.839   3.653  1.00  0.00     0.012 A 
BRANCH  22  25
HETATM   25  N   UNL     1      43.780 -15.363   6.156  1.00  0.00    -0.116 N 
HETATM   26  O   UNL     1      43.552 -16.515   6.554  1.00  0.00    -0.532 OA
HETATM   27  O   UNL     1      44.594 -14.582   6.663  1.00  0.00    -0.532 OA
ENDBRANCH  22  25
ENDBRANCH   2  19
BRANCH   6  28
HETATM   28  O   UNL     1      42.662 -13.304  -1.754  1.00  0.00    -0.355 OA
HETATM   29  H   UNL     1      43.609 -13.496  -1.552  1.00  0.00     0.218 HD
ENDBRANCH   6  28
BRANCH   3  30
HETATM   30  C   UNL     1      40.614 -11.097   2.178  1.00  0.00     0.155 C 
BRANCH  30  31
HETATM   31  C   UNL     1      39.074 -10.994   2.366  1.00  0.00     0.254 C 
BRANCH  31  32
HETATM   32  N   UNL     1      38.270 -10.891   1.063  1.00  0.00    -0.066 N 
HETATM   33  H   UNL     1      38.649 -11.646   0.467  1.00  0.00     0.280 HD
HETATM   34  C   UNL     1      38.572  -9.578   0.317  1.00  0.00     0.262 C 
HETATM   35  C   UNL     1      37.773  -8.378   0.890  1.00  0.00     0.260 C 
HETATM   36  N   UNL     1      36.297  -8.671   0.904  1.00  0.00    -0.072 N 
HETATM   37  H   UNL     1      35.902  -8.677  -0.050  1.00  0.00     0.277 HD
HETATM   38  H   UNL     1      35.811  -7.884   1.370  1.00  0.00     0.277 HD
HETATM   39  C   UNL     1      35.936  -9.930   1.649  1.00  0.00     0.260 C 
HETATM   40  C   UNL     1      36.756 -11.146   1.153  1.00  0.00     0.262 C 
ENDBRANCH  31  32
ENDBRANCH  30  31
ENDBRANCH   3  30
TORSDOF 10
ENDMDL
MODEL 10
REMARK VINA RESULT:      -6.9      3.135      7.390
REMARK  10 active torsions:
REMARK  status: ('A' for Active; 'I' for Inactive)
REMARK    1  A    between atoms: C_2  and  O_3 
REMARK    2  A    between atoms: O_3  and  C_4 
REMARK    3  A    between atoms: C_7  and  C_8 
REMARK    4  A    between atoms: C_8  and  C_9 
REMARK    5  A    between atoms: C_10  and  C_11 
REMARK    6  A    between atoms: C_14  and  N_15 
REMARK    7  A    between atoms: N_20  and  C_21 
REMARK    8  A    between atoms: C_21  and  C_22 
REMARK    9  A    between atoms: C_22  and  N_23 
REMARK   10  A    between atoms: C_34  and  O_35 
ROOT
HETATM    1  C   UNL     1      41.422 -15.435   0.970  1.00  0.00     0.059 C 
HETATM    2  C   UNL     1      42.261 -14.795   2.032  1.00  0.00     0.161 C 
HETATM    3  N   UNL     1      42.819 -15.980   2.684  1.00  0.00    -0.332 N 
HETATM    4  C   UNL     1      42.136 -17.120   2.300  1.00  0.00     0.278 C 
HETATM    5  O   UNL     1      42.235 -18.207   2.845  1.00  0.00    -0.265 OA
HETATM    6  C   UNL     1      41.315 -16.763   1.127  1.00  0.00     0.146 C 
ENDROOT
BRANCH   1   7
HETATM    7  C   UNL     1      40.690 -14.754  -0.113  1.00  0.00     0.193 C 
HETATM    8  O   UNL     1      40.920 -15.052  -1.282  1.00  0.00    -0.287 OA
BRANCH   7   9
HETATM    9  C   UNL     1      39.653 -13.756   0.208  1.00  0.00     0.015 A 
HETATM   10  C   UNL     1      39.891 -12.383   0.092  1.00  0.00     0.018 A 
HETATM   11  C   UNL     1      38.882 -11.468   0.421  1.00  0.00     0.038 A 
HETATM   12  C   UNL     1      37.632 -11.923   0.842  1.00  0.00     0.069 A 
HETATM   13  C   UNL     1      37.394 -13.298   0.914  1.00  0.00     0.038 A 
HETATM   14  C   UNL     1      38.395 -14.217   0.597  1.00  0.00     0.018 A 
BRANCH  12  15
HETATM   15  O   UNL     1      36.556 -11.155   1.179  1.00  0.00    -0.347 OA
BRANCH  15  16
HETATM   16  C   UNL     1      35.331 -11.267   0.447  1.00  0.00     0.120 C 
HETATM   17  C   UNL     1      35.509 -10.660  -0.942  1.00  0.00     0.040 C 
HETATM   18  C   UNL     1      34.276 -10.489   1.229  1.00  0.00     0.040 C 
ENDBRANCH  15  16
ENDBRANCH  12  15
ENDBRANCH   7   9
ENDBRANCH   1   7
BRANCH   2  19
HETATM   19  C   UNL     1      41.459 -13.931   2.993  1.00  0.00    -0.030 A 
HETATM   20  C   UNL     1      40.332 -14.430   3.677  1.00  0.00     0.012 A 
HETATM   21  C   UNL     1      39.588 -13.612   4.532  1.00  0.00     0.037 A 
HETATM   22  C   UNL     1      39.961 -12.275   4.706  1.00  0.00     0.102 A 
HETATM   23  C   UNL     1      41.071 -11.755   4.030  1.00  0.00     0.037 A 
HETATM   24  C   UNL     1      41.815 -12.583   3.183  1.00  0.00     0.012 A 
BRANCH  22  25
HETATM   25  N   UNL     1      39.190 -11.419   5.614  1.00  0.00    -0.116 N 
HETATM   26  O   UNL     1      39.087 -11.790   6.792  1.00  0.00    -0.532 OA
HETATM   27  O   UNL     1      38.720 -10.371   5.154  1.00  0.00    -0.532 OA
ENDBRANCH  22  25
ENDBRANCH   2  19
BRANCH   6  28
HETATM   28  O   UNL     1      40.597 -17.666   0.400  1.00  0.00    -0.355 OA
HETATM   29  H   UNL     1      41.210 -18.394   0.138  1.00  0.00     0.218 HD
ENDBRANCH   6  28
BRANCH   3  30
HETATM   30  C   UNL     1      43.715 -15.930   3.835  1.00  0.00     0.155 C 
BRANCH  30  31
HETATM   31  C   UNL     1      42.960 -16.045   5.190  1.00  0.00     0.254 C 
BRANCH  31  32
HETATM   32  N   UNL     1      42.801 -17.476   5.721  1.00  0.00    -0.066 N 
HETATM   33  H   UNL     1      42.066 -17.891   5.125  1.00  0.00     0.280 HD
HETATM   34  C   UNL     1      42.233 -17.485   7.153  1.00  0.00     0.262 C 
HETATM   35  C   UNL     1      43.327 -17.223   8.222  1.00  0.00     0.260 C 
HETATM   36  N   UNL     1      44.464 -18.197   8.080  1.00  0.00    -0.072 N 
HETATM   37  H   UNL     1      44.188 -19.149   8.372  1.00  0.00     0.277 HD
HETATM   38  H   UNL     1      45.207 -17.935   8.752  1.00  0.00     0.277 HD
HETATM   39  C   UNL     1      45.082 -18.210   6.706  1.00  0.00     0.260 C 
HETATM   40  C   UNL     1      44.018 -18.406   5.598  1.00  0.00     0.262 C 
ENDBRANCH  31  32
ENDBRANCH  30  31
ENDBRANCH   3  30
TORSDOF 10
ENDMDL
