MODEL 1
REMARK VINA RESULT:      -8.4      0.000      0.000
REMARK  8 active torsions:
REMARK  status: ('A' for Active; 'I' for Inactive)
REMARK    1  A    between atoms: C_8  and  C_9 
REMARK       I    between atoms: C_9  and  N_10 
REMARK    2  A    between atoms: N_10  and  N_11 
REMARK    3  A    between atoms: N_11  and  C_12 
REMARK    4  A    between atoms: C_12  and  N_13 
REMARK    5  A    between atoms: N_13  and  C_14 
REMARK    6  A    between atoms: C_15  and  O_16 
REMARK    7  A    between atoms: C_19  and  O_20 
REMARK    8  A    between atoms: C_26  and  C_27 
ROOT
HETATM    1  C   UNL     1      44.996 -13.182   7.808  1.00  0.00     0.275 C 
HETATM    2  N   UNL     1      44.080 -14.217   7.801  1.00  0.00    -0.263 N 
HETATM    3  O   UNL     1      45.895 -13.089   6.975  1.00  0.00    -0.266 OA
HETATM    4  H   UNL     1      43.576 -14.437   8.659  1.00  0.00     0.190 HD
ENDROOT
BRANCH   2   5
HETATM    5  N   UNL     1      44.256 -15.268   6.883  1.00  0.00    -0.273 N 
HETATM    6  H   UNL     1      44.587 -16.136   7.307  1.00  0.00     0.189 HD
BRANCH   5   7
HETATM    7  C   UNL     1      43.448 -15.374   5.780  1.00  0.00     0.191 C 
HETATM    8  S   UNL     1      43.024 -14.083   4.792  1.00  0.00    -0.039 SA
BRANCH   7   9
HETATM    9  N   UNL     1      42.936 -16.602   5.489  1.00  0.00    -0.330 N 
HETATM   10  H   UNL     1      42.026 -16.786   5.907  1.00  0.00     0.168 HD
BRANCH   9  11
HETATM   11  C   UNL     1      43.420 -17.672   4.702  1.00  0.00     0.068 A 
HETATM   12  C   UNL     1      44.233 -18.627   5.351  1.00  0.00     0.097 A 
HETATM   13  C   UNL     1      44.742 -19.719   4.636  1.00  0.00     0.075 A 
HETATM   14  C   UNL     1      44.434 -19.876   3.283  1.00  0.00     0.070 A 
HETATM   15  C   UNL     1      43.594 -18.954   2.659  1.00  0.00     0.039 A 
HETATM   16  C   UNL     1      43.083 -17.860   3.362  1.00  0.00     0.035 A 
BRANCH  12  17
HETATM   17  O   UNL     1      44.464 -18.386   6.687  1.00  0.00    -0.354 OA
HETATM   18  C   UNL     1      43.831 -19.245   7.627  1.00  0.00     0.210 C 
ENDBRANCH  12  17
BRANCH  14  19
HETATM   19  O   UNL     1      44.862 -20.891   2.473  1.00  0.00    -0.356 OA
HETATM   20  C   UNL     1      44.416 -22.204   2.792  1.00  0.00     0.210 C 
ENDBRANCH  14  19
ENDBRANCH   9  11
ENDBRANCH   7   9
ENDBRANCH   5   7
ENDBRANCH   2   5
BRANCH   1  21
HETATM   21  C   UNL     1      44.834 -12.247   8.902  1.00  0.00     0.098 A 
HETATM   22  C   UNL     1      43.745 -11.459   9.226  1.00  0.00     0.138 A 
HETATM   23  N   UNL     1      42.550 -11.239   8.622  1.00  0.00    -0.370 N 
HETATM   24  N   UNL     1      44.089 -10.809  10.384  1.00  0.00    -0.240 N 
HETATM   25  C   UNL     1      41.545 -10.340   9.179  1.00  0.00     0.081 C 
HETATM   26  H   UNL     1      42.394 -11.496   7.647  1.00  0.00     0.161 HD
HETATM   27  C   UNL     1      40.410 -11.160   9.781  1.00  0.00     0.032 C 
HETATM   28  C   UNL     1      42.172  -9.306  10.123  1.00  0.00     0.061 C 
HETATM   29  C   UNL     1      43.248  -9.854  11.074  1.00  0.00     0.221 C 
HETATM   30  N   UNL     1      45.356 -11.026  10.774  1.00  0.00    -0.181 NA
HETATM   31  C   UNL     1      45.801 -11.916   9.881  1.00  0.00     0.160 A 
BRANCH  29  32
HETATM   32  C   UNL     1      42.699 -10.457  12.346  1.00  0.00     0.409 C 
HETATM   33  F   UNL     1      43.459 -10.221  13.433  1.00  0.00    -0.169 F 
HETATM   34  F   UNL     1      41.449 -10.024  12.625  1.00  0.00    -0.169 F 
HETATM   35  F   UNL     1      42.611 -11.807  12.217  1.00  0.00    -0.169 F 
ENDBRANCH  29  32
ENDBRANCH   1  21
TORSDOF 8
ENDMDL
MODEL 2
REMARK VINA RESULT:      -8.4      2.601      3.659
REMARK  8 active torsions:
REMARK  status: ('A' for Active; 'I' for Inactive)
REMARK    1  A    between atoms: C_8  and  C_9 
REMARK       I    between atoms: C_9  and  N_10 
REMARK    2  A    between atoms: N_10  and  N_11 
REMARK    3  A    between atoms: N_11  and  C_12 
REMARK    4  A    between atoms: C_12  and  N_13 
REMARK    5  A    between atoms: N_13  and  C_14 
REMARK    6  A    between atoms: C_15  and  O_16 
REMARK    7  A    between atoms: C_19  and  O_20 
REMARK    8  A    between atoms: C_26  and  C_27 
ROOT
HETATM    1  C   UNL     1      39.828 -11.549   7.380  1.00  0.00     0.275 C 
HETATM    2  N   UNL     1      40.065 -12.869   7.041  1.00  0.00    -0.263 N 
HETATM    3  O   UNL     1      38.867 -10.917   6.946  1.00  0.00    -0.266 OA
HETATM    4  H   UNL     1      41.006 -13.245   7.148  1.00  0.00     0.190 HD
ENDROOT
BRANCH   2   5
HETATM    5  N   UNL     1      39.247 -13.473   6.070  1.00  0.00    -0.273 N 
HETATM    6  H   UNL     1      38.518 -12.858   5.704  1.00  0.00     0.189 HD
BRANCH   5   7
HETATM    7  C   UNL     1      39.755 -14.423   5.222  1.00  0.00     0.191 C 
HETATM    8  S   UNL     1      39.883 -14.231   3.558  1.00  0.00    -0.039 SA
BRANCH   7   9
HETATM    9  N   UNL     1      40.151 -15.607   5.765  1.00  0.00    -0.330 N 
HETATM   10  H   UNL     1      39.490 -16.005   6.430  1.00  0.00     0.168 HD
BRANCH   9  11
HETATM   11  C   UNL     1      41.303 -16.404   5.573  1.00  0.00     0.068 A 
HETATM   12  C   UNL     1      42.545 -15.824   5.912  1.00  0.00     0.097 A 
HETATM   13  C   UNL     1      43.730 -16.557   5.755  1.00  0.00     0.075 A 
HETATM   14  C   UNL     1      43.684 -17.869   5.279  1.00  0.00     0.070 A 
HETATM   15  C   UNL     1      42.450 -18.451   4.989  1.00  0.00     0.039 A 
HETATM   16  C   UNL     1      41.263 -17.729   5.140  1.00  0.00     0.035 A 
BRANCH  12  17
HETATM   17  O   UNL     1      42.478 -14.532   6.383  1.00  0.00    -0.354 OA
HETATM   18  C   UNL     1      43.370 -13.580   5.815  1.00  0.00     0.210 C 
ENDBRANCH  12  17
BRANCH  14  19
HETATM   19  O   UNL     1      44.758 -18.691   5.082  1.00  0.00    -0.356 OA
HETATM   20  C   UNL     1      44.514 -19.923   4.415  1.00  0.00     0.210 C 
ENDBRANCH  14  19
ENDBRANCH   9  11
ENDBRANCH   7   9
ENDBRANCH   5   7
ENDBRANCH   2   5
BRANCH   1  21
HETATM   21  C   UNL     1      40.829 -10.965   8.249  1.00  0.00     0.098 A 
HETATM   22  C   UNL     1      40.782 -10.744   9.613  1.00  0.00     0.138 A 
HETATM   23  N   UNL     1      39.809 -10.911  10.545  1.00  0.00    -0.370 N 
HETATM   24  N   UNL     1      42.008 -10.229   9.948  1.00  0.00    -0.240 N 
HETATM   25  C   UNL     1      40.012 -10.598  11.955  1.00  0.00     0.081 C 
HETATM   26  H   UNL     1      38.832 -11.031  10.274  1.00  0.00     0.161 HD
HETATM   27  C   UNL     1      40.156 -11.892  12.746  1.00  0.00     0.032 C 
HETATM   28  C   UNL     1      41.149  -9.586  12.150  1.00  0.00     0.061 C 
HETATM   29  C   UNL     1      42.396  -9.824  11.283  1.00  0.00     0.221 C 
HETATM   30  N   UNL     1      42.805  -9.993   8.892  1.00  0.00    -0.181 NA
HETATM   31  C   UNL     1      42.093 -10.460   7.862  1.00  0.00     0.160 A 
BRANCH  29  32
HETATM   32  C   UNL     1      43.378 -10.811  11.869  1.00  0.00     0.409 C 
HETATM   33  F   UNL     1      43.195 -12.077  11.446  1.00  0.00    -0.169 F 
HETATM   34  F   UNL     1      44.662 -10.478  11.609  1.00  0.00    -0.169 F 
HETATM   35  F   UNL     1      43.260 -10.831  13.224  1.00  0.00    -0.169 F 
ENDBRANCH  29  32
ENDBRANCH   1  21
TORSDOF 8
ENDMDL
MODEL 3
REMARK VINA RESULT:      -8.3      6.209      9.666
REMARK  8 active torsions:
REMARK  status: ('A' for Active; 'I' for Inactive)
REMARK    1  A    between atoms: C_8  and  C_9 
REMARK       I    between atoms: C_9  and  N_10 
REMARK    2  A    between atoms: N_10  and  N_11 
REMARK    3  A    between atoms: N_11  and  C_12 
REMARK    4  A    between atoms: C_12  and  N_13 
REMARK    5  A    between atoms: N_13  and  C_14 
REMARK    6  A    between atoms: C_15  and  O_16 
REMARK    7  A    between atoms: C_19  and  O_20 
REMARK    8  A    between atoms: C_26  and  C_27 
ROOT
HETATM    1  C   UNL     1      41.207 -17.124   3.530  1.00  0.00     0.275 C 
HETATM    2  N   UNL     1      40.403 -16.560   2.556  1.00  0.00    -0.263 N 
HETATM    3  O   UNL     1      41.071 -16.874   4.726  1.00  0.00    -0.266 OA
HETATM    4  H   UNL     1      40.738 -16.531   1.595  1.00  0.00     0.190 HD
ENDROOT
BRANCH   2   5
HETATM    5  N   UNL     1      39.478 -15.571   2.935  1.00  0.00    -0.273 N 
HETATM    6  H   UNL     1      39.131 -15.675   3.891  1.00  0.00     0.189 HD
BRANCH   5   7
HETATM    7  C   UNL     1      39.570 -14.299   2.433  1.00  0.00     0.191 C 
HETATM    8  S   UNL     1      38.858 -13.797   0.997  1.00  0.00    -0.039 SA
BRANCH   7   9
HETATM    9  N   UNL     1      40.313 -13.396   3.132  1.00  0.00    -0.330 N 
HETATM   10  H   UNL     1      39.933 -12.451   3.131  1.00  0.00     0.168 HD
BRANCH   9  11
HETATM   11  C   UNL     1      41.508 -13.522   3.877  1.00  0.00     0.068 A 
HETATM   12  C   UNL     1      41.391 -13.494   5.284  1.00  0.00     0.097 A 
HETATM   13  C   UNL     1      42.533 -13.620   6.087  1.00  0.00     0.075 A 
HETATM   14  C   UNL     1      43.788 -13.789   5.499  1.00  0.00     0.070 A 
HETATM   15  C   UNL     1      43.891 -13.860   4.109  1.00  0.00     0.039 A 
HETATM   16  C   UNL     1      42.759 -13.734   3.299  1.00  0.00     0.035 A 
BRANCH  12  17
HETATM   17  O   UNL     1      40.109 -13.336   5.760  1.00  0.00    -0.354 OA
HETATM   18  C   UNL     1      39.845 -12.191   6.562  1.00  0.00     0.210 C 
ENDBRANCH  12  17
BRANCH  14  19
HETATM   19  O   UNL     1      44.976 -13.925   6.162  1.00  0.00    -0.356 OA
HETATM   20  C   UNL     1      44.989 -13.574   7.541  1.00  0.00     0.210 C 
ENDBRANCH  14  19
ENDBRANCH   9  11
ENDBRANCH   7   9
ENDBRANCH   5   7
ENDBRANCH   2   5
BRANCH   1  21
HETATM   21  C   UNL     1      42.245 -17.995   3.019  1.00  0.00     0.098 A 
HETATM   22  C   UNL     1      43.115 -18.818   3.709  1.00  0.00     0.138 A 
HETATM   23  N   UNL     1      43.343 -19.022   5.032  1.00  0.00    -0.370 N 
HETATM   24  N   UNL     1      43.848 -19.470   2.751  1.00  0.00    -0.240 N 
HETATM   25  C   UNL     1      44.341 -19.969   5.518  1.00  0.00     0.081 C 
HETATM   26  H   UNL     1      43.007 -18.363   5.735  1.00  0.00     0.161 HD
HETATM   27  C   UNL     1      43.641 -21.208   6.061  1.00  0.00     0.032 C 
HETATM   28  C   UNL     1      45.421 -20.241   4.463  1.00  0.00     0.061 C 
HETATM   29  C   UNL     1      44.906 -20.419   3.026  1.00  0.00     0.221 C 
HETATM   30  N   UNL     1      43.600 -19.051   1.499  1.00  0.00    -0.181 NA
HETATM   31  C   UNL     1      42.611 -18.168   1.663  1.00  0.00     0.160 A 
BRANCH  29  32
HETATM   32  C   UNL     1      44.451 -21.823   2.702  1.00  0.00     0.409 C 
HETATM   33  F   UNL     1      43.112 -21.961   2.642  1.00  0.00    -0.169 F 
HETATM   34  F   UNL     1      44.958 -22.273   1.532  1.00  0.00    -0.169 F 
HETATM   35  F   UNL     1      44.890 -22.684   3.659  1.00  0.00    -0.169 F 
ENDBRANCH  29  32
ENDBRANCH   1  21
TORSDOF 8
ENDMDL
MODEL 4
REMARK VINA RESULT:      -8.2      3.113      4.371
REMARK  8 active torsions:
REMARK  status: ('A' for Active; 'I' for Inactive)
REMARK    1  A    between atoms: C_8  and  C_9 
REMARK       I    between atoms: C_9  and  N_10 
REMARK    2  A    between atoms: N_10  and  N_11 
REMARK    3  A    between atoms: N_11  and  C_12 
REMARK    4  A    between atoms: C_12  and  N_13 
REMARK    5  A    between atoms: N_13  and  C_14 
REMARK    6  A    between atoms: C_15  and  O_16 
REMARK    7  A    between atoms: C_19  and  O_20 
REMARK    8  A    between atoms: C_26  and  C_27 
ROOT
HETATM    1  C   UNL     1      39.351 -10.809   8.917  1.00  0.00     0.275 C 
HETATM    2  N   UNL     1      39.378 -12.164   8.645  1.00  0.00    -0.263 N 
HETATM    3  O   UNL     1      39.023  -9.972   8.078  1.00  0.00    -0.266 OA
HETATM    4  H   UNL     1      39.946 -12.774   9.231  1.00  0.00     0.190 HD
ENDROOT
BRANCH   2   5
HETATM    5  N   UNL     1      39.139 -12.593   7.327  1.00  0.00    -0.273 N 
HETATM    6  H   UNL     1      38.405 -12.068   6.849  1.00  0.00     0.189 HD
BRANCH   5   7
HETATM    7  C   UNL     1      40.161 -13.089   6.558  1.00  0.00     0.191 C 
HETATM    8  S   UNL     1      41.340 -12.141   5.830  1.00  0.00    -0.039 SA
BRANCH   7   9
HETATM    9  N   UNL     1      40.198 -14.435   6.352  1.00  0.00    -0.330 N 
HETATM   10  H   UNL     1      39.892 -14.989   7.149  1.00  0.00     0.168 HD
BRANCH   9  11
HETATM   11  C   UNL     1      40.568 -15.216   5.233  1.00  0.00     0.068 A 
HETATM   12  C   UNL     1      41.275 -16.411   5.494  1.00  0.00     0.097 A 
HETATM   13  C   UNL     1      41.669 -17.239   4.434  1.00  0.00     0.075 A 
HETATM   14  C   UNL     1      41.349 -16.895   3.119  1.00  0.00     0.070 A 
HETATM   15  C   UNL     1      40.613 -15.736   2.872  1.00  0.00     0.039 A 
HETATM   16  C   UNL     1      40.217 -14.902   3.921  1.00  0.00     0.035 A 
BRANCH  12  17
HETATM   17  O   UNL     1      41.527 -16.662   6.824  1.00  0.00    -0.354 OA
HETATM   18  C   UNL     1      42.624 -17.514   7.132  1.00  0.00     0.210 C 
ENDBRANCH  12  17
BRANCH  14  19
HETATM   19  O   UNL     1      41.670 -17.611   1.999  1.00  0.00    -0.356 OA
HETATM   20  C   UNL     1      41.373 -17.013   0.743  1.00  0.00     0.210 C 
ENDBRANCH  14  19
ENDBRANCH   9  11
ENDBRANCH   7   9
ENDBRANCH   5   7
ENDBRANCH   2   5
BRANCH   1  21
HETATM   21  C   UNL     1      39.783 -10.457  10.253  1.00  0.00     0.098 A 
HETATM   22  C   UNL     1      40.985 -10.723  10.883  1.00  0.00     0.138 A 
HETATM   23  N   UNL     1      42.083 -11.434  10.519  1.00  0.00    -0.370 N 
HETATM   24  N   UNL     1      40.903 -10.118  12.111  1.00  0.00    -0.240 N 
HETATM   25  C   UNL     1      43.251 -11.567  11.381  1.00  0.00     0.081 C 
HETATM   26  H   UNL     1      42.050 -12.099   9.745  1.00  0.00     0.161 HD
HETATM   27  C   UNL     1      44.379 -10.695  10.844  1.00  0.00     0.032 C 
HETATM   28  C   UNL     1      42.895 -11.335  12.855  1.00  0.00     0.061 C 
HETATM   29  C   UNL     1      41.939 -10.161  13.122  1.00  0.00     0.221 C 
HETATM   30  N   UNL     1      39.701  -9.579  12.372  1.00  0.00    -0.181 NA
HETATM   31  C   UNL     1      39.028  -9.769  11.233  1.00  0.00     0.160 A 
BRANCH  29  32
HETATM   32  C   UNL     1      42.623  -8.819  13.233  1.00  0.00     0.409 C 
HETATM   33  F   UNL     1      42.760  -8.179  12.055  1.00  0.00    -0.169 F 
HETATM   34  F   UNL     1      41.981  -7.980  14.077  1.00  0.00    -0.169 F 
HETATM   35  F   UNL     1      43.875  -8.978  13.739  1.00  0.00    -0.169 F 
ENDBRANCH  29  32
ENDBRANCH   1  21
TORSDOF 8
ENDMDL
MODEL 5
REMARK VINA RESULT:      -8.2      3.017      4.415
REMARK  8 active torsions:
REMARK  status: ('A' for Active; 'I' for Inactive)
REMARK    1  A    between atoms: C_8  and  C_9 
REMARK       I    between atoms: C_9  and  N_10 
REMARK    2  A    between atoms: N_10  and  N_11 
REMARK    3  A    between atoms: N_11  and  C_12 
REMARK    4  A    between atoms: C_12  and  N_13 
REMARK    5  A    between atoms: N_13  and  C_14 
REMARK    6  A    between atoms: C_15  and  O_16 
REMARK    7  A    between atoms: C_19  and  O_20 
REMARK    8  A    between atoms: C_26  and  C_27 
ROOT
HETATM    1  C   UNL     1      39.614 -10.881   8.706  1.00  0.00     0.275 C 
HETATM    2  N   UNL     1      39.452 -12.218   8.395  1.00  0.00    -0.263 N 
HETATM    3  O   UNL     1      39.451  -9.985   7.880  1.00  0.00    -0.266 OA
HETATM    4  H   UNL     1      39.897 -12.920   8.985  1.00  0.00     0.190 HD
ENDROOT
BRANCH   2   5
HETATM    5  N   UNL     1      39.213 -12.575   7.056  1.00  0.00    -0.273 N 
HETATM    6  H   UNL     1      38.622 -11.912   6.552  1.00  0.00     0.189 HD
BRANCH   5   7
HETATM    7  C   UNL     1      40.163 -13.250   6.333  1.00  0.00     0.191 C 
HETATM    8  S   UNL     1      41.639 -12.595   5.870  1.00  0.00    -0.039 SA
BRANCH   7   9
HETATM    9  N   UNL     1      39.873 -14.522   5.942  1.00  0.00    -0.330 N 
HETATM   10  H   UNL     1      38.880 -14.747   5.955  1.00  0.00     0.168 HD
BRANCH   9  11
HETATM   11  C   UNL     1      40.686 -15.592   5.504  1.00  0.00     0.068 A 
HETATM   12  C   UNL     1      40.779 -15.796   4.110  1.00  0.00     0.097 A 
HETATM   13  C   UNL     1      41.574 -16.834   3.603  1.00  0.00     0.075 A 
HETATM   14  C   UNL     1      42.289 -17.659   4.474  1.00  0.00     0.070 A 
HETATM   15  C   UNL     1      42.227 -17.423   5.848  1.00  0.00     0.039 A 
HETATM   16  C   UNL     1      41.437 -16.393   6.364  1.00  0.00     0.035 A 
BRANCH  12  17
HETATM   17  O   UNL     1      40.046 -14.921   3.341  1.00  0.00    -0.354 OA
HETATM   18  C   UNL     1      39.594 -15.383   2.074  1.00  0.00     0.210 C 
ENDBRANCH  12  17
BRANCH  14  19
HETATM   19  O   UNL     1      43.097 -18.701   4.113  1.00  0.00    -0.356 OA
HETATM   20  C   UNL     1      43.895 -19.283   5.137  1.00  0.00     0.210 C 
ENDBRANCH  14  19
ENDBRANCH   9  11
ENDBRANCH   7   9
ENDBRANCH   5   7
ENDBRANCH   2   5
BRANCH   1  21
HETATM   21  C   UNL     1      40.033 -10.629  10.069  1.00  0.00     0.098 A 
HETATM   22  C   UNL     1      41.244 -10.903  10.677  1.00  0.00     0.138 A 
HETATM   23  N   UNL     1      42.367 -11.539  10.258  1.00  0.00    -0.370 N 
HETATM   24  N   UNL     1      41.139 -10.409  11.952  1.00  0.00    -0.240 N 
HETATM   25  C   UNL     1      43.540 -11.701  11.109  1.00  0.00     0.081 C 
HETATM   26  H   UNL     1      42.359 -12.135   9.429  1.00  0.00     0.161 HD
HETATM   27  C   UNL     1      44.634 -10.745  10.652  1.00  0.00     0.032 C 
HETATM   28  C   UNL     1      43.175 -11.609  12.596  1.00  0.00     0.061 C 
HETATM   29  C   UNL     1      42.175 -10.499  12.960  1.00  0.00     0.221 C 
HETATM   30  N   UNL     1      39.917  -9.939  12.255  1.00  0.00    -0.181 NA
HETATM   31  C   UNL     1      39.252 -10.056  11.102  1.00  0.00     0.160 A 
BRANCH  29  32
HETATM   32  C   UNL     1      42.809  -9.147  13.187  1.00  0.00     0.409 C 
HETATM   33  F   UNL     1      42.959  -8.420  12.063  1.00  0.00    -0.169 F 
HETATM   34  F   UNL     1      42.112  -8.392  14.067  1.00  0.00    -0.169 F 
HETATM   35  F   UNL     1      44.049  -9.301  13.722  1.00  0.00    -0.169 F 
ENDBRANCH  29  32
ENDBRANCH   1  21
TORSDOF 8
ENDMDL
MODEL 6
REMARK VINA RESULT:      -8.2      5.292      8.461
REMARK  8 active torsions:
REMARK  status: ('A' for Active; 'I' for Inactive)
REMARK    1  A    between atoms: C_8  and  C_9 
REMARK       I    between atoms: C_9  and  N_10 
REMARK    2  A    between atoms: N_10  and  N_11 
REMARK    3  A    between atoms: N_11  and  C_12 
REMARK    4  A    between atoms: C_12  and  N_13 
REMARK    5  A    between atoms: N_13  and  C_14 
REMARK    6  A    between atoms: C_15  and  O_16 
REMARK    7  A    between atoms: C_19  and  O_20 
REMARK    8  A    between atoms: C_26  and  C_27 
ROOT
HETATM    1  C   UNL     1      42.443 -17.681   1.773  1.00  0.00     0.275 C 
HETATM    2  N   UNL     1      41.196 -17.300   2.233  1.00  0.00    -0.263 N 
HETATM    3  O   UNL     1      42.869 -17.354   0.667  1.00  0.00    -0.266 OA
HETATM    4  H   UNL     1      40.759 -17.838   2.980  1.00  0.00     0.190 HD
ENDROOT
BRANCH   2   5
HETATM    5  N   UNL     1      40.334 -16.616   1.357  1.00  0.00    -0.273 N 
HETATM    6  H   UNL     1      39.412 -17.046   1.267  1.00  0.00     0.189 HD
BRANCH   5   7
HETATM    7  C   UNL     1      40.410 -15.253   1.225  1.00  0.00     0.191 C 
HETATM    8  S   UNL     1      40.424 -14.447  -0.248  1.00  0.00    -0.039 SA
BRANCH   7   9
HETATM    9  N   UNL     1      40.511 -14.514   2.365  1.00  0.00    -0.330 N 
HETATM   10  H   UNL     1      39.641 -14.072   2.655  1.00  0.00     0.168 HD
BRANCH   9  11
HETATM   11  C   UNL     1      41.593 -14.251   3.236  1.00  0.00     0.068 A 
HETATM   12  C   UNL     1      41.288 -14.099   4.606  1.00  0.00     0.097 A 
HETATM   13  C   UNL     1      42.311 -13.843   5.530  1.00  0.00     0.075 A 
HETATM   14  C   UNL     1      43.636 -13.755   5.101  1.00  0.00     0.070 A 
HETATM   15  C   UNL     1      43.936 -13.951   3.753  1.00  0.00     0.039 A 
HETATM   16  C   UNL     1      42.924 -14.203   2.823  1.00  0.00     0.035 A 
BRANCH  12  17
HETATM   17  O   UNL     1      39.953 -14.216   4.925  1.00  0.00    -0.354 OA
HETATM   18  C   UNL     1      39.402 -13.246   5.806  1.00  0.00     0.210 C 
ENDBRANCH  12  17
BRANCH  14  19
HETATM   19  O   UNL     1      44.724 -13.513   5.893  1.00  0.00    -0.356 OA
HETATM   20  C   UNL     1      44.589 -13.800   7.280  1.00  0.00     0.210 C 
ENDBRANCH  14  19
ENDBRANCH   9  11
ENDBRANCH   7   9
ENDBRANCH   5   7
ENDBRANCH   2   5
BRANCH   1  21
HETATM   21  C   UNL     1      43.182 -18.533   2.682  1.00  0.00     0.098 A 
HETATM   22  C   UNL     1      43.566 -18.294   3.988  1.00  0.00     0.138 A 
HETATM   23  N   UNL     1      43.463 -17.210   4.799  1.00  0.00    -0.370 N 
HETATM   24  N   UNL     1      44.183 -19.444   4.410  1.00  0.00    -0.240 N 
HETATM   25  C   UNL     1      43.958 -17.209   6.171  1.00  0.00     0.081 C 
HETATM   26  H   UNL     1      43.260 -16.284   4.422  1.00  0.00     0.161 HD
HETATM   27  C   UNL     1      42.781 -17.292   7.134  1.00  0.00     0.032 C 
HETATM   28  C   UNL     1      45.045 -18.271   6.380  1.00  0.00     0.061 C 
HETATM   29  C   UNL     1      44.770 -19.632   5.720  1.00  0.00     0.221 C 
HETATM   30  N   UNL     1      44.330 -20.367   3.445  1.00  0.00    -0.181 NA
HETATM   31  C   UNL     1      43.703 -19.819   2.400  1.00  0.00     0.160 A 
BRANCH  29  32
HETATM   32  C   UNL     1      43.916 -20.561   6.552  1.00  0.00     0.409 C 
HETATM   33  F   UNL     1      43.987 -20.325   7.876  1.00  0.00    -0.169 F 
HETATM   34  F   UNL     1      42.611 -20.514   6.201  1.00  0.00    -0.169 F 
HETATM   35  F   UNL     1      44.312 -21.847   6.362  1.00  0.00    -0.169 F 
ENDBRANCH  29  32
ENDBRANCH   1  21
TORSDOF 8
ENDMDL
MODEL 7
REMARK VINA RESULT:      -8.1      6.784      8.787
REMARK  8 active torsions:
REMARK  status: ('A' for Active; 'I' for Inactive)
REMARK    1  A    between atoms: C_8  and  C_9 
REMARK       I    between atoms: C_9  and  N_10 
REMARK    2  A    between atoms: N_10  and  N_11 
REMARK    3  A    between atoms: N_11  and  C_12 
REMARK    4  A    between atoms: C_12  and  N_13 
REMARK    5  A    between atoms: N_13  and  C_14 
REMARK    6  A    between atoms: C_15  and  O_16 
REMARK    7  A    between atoms: C_19  and  O_20 
REMARK    8  A    between atoms: C_26  and  C_27 
ROOT
HETATM    1  C   UNL     1      42.351 -13.950   2.429  1.00  0.00     0.275 C 
HETATM    2  N   UNL     1      41.554 -14.738   3.240  1.00  0.00    -0.263 N 
HETATM    3  O   UNL     1      43.367 -13.394   2.840  1.00  0.00    -0.266 OA
HETATM    4  H   UNL     1      40.586 -14.905   2.969  1.00  0.00     0.190 HD
ENDROOT
BRANCH   2   5
HETATM    5  N   UNL     1      41.849 -14.806   4.614  1.00  0.00    -0.273 N 
HETATM    6  H   UNL     1      41.369 -14.100   5.175  1.00  0.00     0.189 HD
BRANCH   5   7
HETATM    7  C   UNL     1      42.117 -16.011   5.211  1.00  0.00     0.191 C 
HETATM    8  S   UNL     1      41.063 -16.804   6.250  1.00  0.00    -0.039 SA
BRANCH   7   9
HETATM    9  N   UNL     1      43.330 -16.581   4.966  1.00  0.00    -0.330 N 
HETATM   10  H   UNL     1      44.125 -16.018   5.263  1.00  0.00     0.168 HD
BRANCH   9  11
HETATM   11  C   UNL     1      43.701 -17.816   4.387  1.00  0.00     0.068 A 
HETATM   12  C   UNL     1      44.448 -18.701   5.195  1.00  0.00     0.097 A 
HETATM   13  C   UNL     1      44.845 -19.948   4.690  1.00  0.00     0.075 A 
HETATM   14  C   UNL     1      44.488 -20.325   3.394  1.00  0.00     0.070 A 
HETATM   15  C   UNL     1      43.712 -19.464   2.618  1.00  0.00     0.039 A 
HETATM   16  C   UNL     1      43.313 -18.219   3.110  1.00  0.00     0.035 A 
BRANCH  12  17
HETATM   17  O   UNL     1      44.735 -18.238   6.459  1.00  0.00    -0.354 OA
HETATM   18  C   UNL     1      44.088 -18.876   7.553  1.00  0.00     0.210 C 
ENDBRANCH  12  17
BRANCH  14  19
HETATM   19  O   UNL     1      44.808 -21.506   2.783  1.00  0.00    -0.356 OA
HETATM   20  C   UNL     1      44.047 -21.865   1.636  1.00  0.00     0.210 C 
ENDBRANCH  14  19
ENDBRANCH   9  11
ENDBRANCH   7   9
ENDBRANCH   5   7
ENDBRANCH   2   5
BRANCH   1  21
HETATM   21  C   UNL     1      41.862 -13.801   1.074  1.00  0.00     0.098 A 
HETATM   22  C   UNL     1      41.904 -12.694   0.246  1.00  0.00     0.138 A 
HETATM   23  N   UNL     1      42.317 -11.415   0.431  1.00  0.00    -0.370 N 
HETATM   24  N   UNL     1      41.366 -13.104  -0.947  1.00  0.00    -0.240 N 
HETATM   25  C   UNL     1      42.256 -10.411  -0.626  1.00  0.00     0.081 C 
HETATM   26  H   UNL     1      42.460 -11.035   1.368  1.00  0.00     0.161 HD
HETATM   27  C   UNL     1      43.660 -10.152  -1.159  1.00  0.00     0.032 C 
HETATM   28  C   UNL     1      41.213 -10.774  -1.690  1.00  0.00     0.061 C 
HETATM   29  C   UNL     1      41.187 -12.254  -2.106  1.00  0.00     0.221 C 
HETATM   30  N   UNL     1      40.875 -14.354  -0.922  1.00  0.00    -0.181 NA
HETATM   31  C   UNL     1      41.196 -14.783   0.303  1.00  0.00     0.160 A 
BRANCH  29  32
HETATM   32  C   UNL     1      42.186 -12.612  -3.181  1.00  0.00     0.409 C 
HETATM   33  F   UNL     1      42.483 -11.591  -4.009  1.00  0.00    -0.169 F 
HETATM   34  F   UNL     1      43.350 -13.072  -2.671  1.00  0.00    -0.169 F 
HETATM   35  F   UNL     1      41.692 -13.613  -3.957  1.00  0.00    -0.169 F 
ENDBRANCH  29  32
ENDBRANCH   1  21
TORSDOF 8
ENDMDL
MODEL 8
REMARK VINA RESULT:      -8.1      2.143      3.665
REMARK  8 active torsions:
REMARK  status: ('A' for Active; 'I' for Inactive)
REMARK    1  A    between atoms: C_8  and  C_9 
REMARK       I    between atoms: C_9  and  N_10 
REMARK    2  A    between atoms: N_10  and  N_11 
REMARK    3  A    between atoms: N_11  and  C_12 
REMARK    4  A    between atoms: C_12  and  N_13 
REMARK    5  A    between atoms: N_13  and  C_14 
REMARK    6  A    between atoms: C_15  and  O_16 
REMARK    7  A    between atoms: C_19  and  O_20 
REMARK    8  A    between atoms: C_26  and  C_27 
ROOT
HETATM    1  C   UNL     1      41.164 -10.804   7.437  1.00  0.00     0.275 C 
HETATM    2  N   UNL     1      40.959 -12.125   7.082  1.00  0.00    -0.263 N 
HETATM    3  O   UNL     1      41.385  -9.923   6.608  1.00  0.00    -0.266 OA
HETATM    4  H   UNL     1      41.102 -12.852   7.781  1.00  0.00     0.190 HD
ENDROOT
BRANCH   2   5
HETATM    5  N   UNL     1      41.131 -12.496   5.736  1.00  0.00    -0.273 N 
HETATM    6  H   UNL     1      41.917 -12.032   5.278  1.00  0.00     0.189 HD
BRANCH   5   7
HETATM    7  C   UNL     1      40.812 -13.761   5.314  1.00  0.00     0.191 C 
HETATM    8  S   UNL     1      40.072 -14.107   3.847  1.00  0.00    -0.039 SA
BRANCH   7   9
HETATM    9  N   UNL     1      41.088 -14.795   6.156  1.00  0.00    -0.330 N 
HETATM   10  H   UNL     1      40.478 -14.846   6.970  1.00  0.00     0.168 HD
BRANCH   9  11
HETATM   11  C   UNL     1      42.053 -15.827   6.111  1.00  0.00     0.068 A 
HETATM   12  C   UNL     1      43.380 -15.475   6.445  1.00  0.00     0.097 A 
HETATM   13  C   UNL     1      44.390 -16.448   6.429  1.00  0.00     0.075 A 
HETATM   14  C   UNL     1      44.084 -17.770   6.099  1.00  0.00     0.070 A 
HETATM   15  C   UNL     1      42.764 -18.119   5.814  1.00  0.00     0.039 A 
HETATM   16  C   UNL     1      41.750 -17.157   5.825  1.00  0.00     0.035 A 
BRANCH  12  17
HETATM   17  O   UNL     1      43.570 -14.150   6.766  1.00  0.00    -0.354 OA
HETATM   18  C   UNL     1      44.805 -13.795   7.377  1.00  0.00     0.210 C 
ENDBRANCH  12  17
BRANCH  14  19
HETATM   19  O   UNL     1      44.969 -18.811   6.047  1.00  0.00    -0.356 OA
HETATM   20  C   UNL     1      44.666 -19.871   5.150  1.00  0.00     0.210 C 
ENDBRANCH  14  19
ENDBRANCH   9  11
ENDBRANCH   7   9
ENDBRANCH   5   7
ENDBRANCH   2   5
BRANCH   1  21
HETATM   21  C   UNL     1      41.141 -10.557   8.863  1.00  0.00     0.098 A 
HETATM   22  C   UNL     1      42.060 -10.923   9.830  1.00  0.00     0.138 A 
HETATM   23  N   UNL     1      43.194 -11.667   9.794  1.00  0.00    -0.370 N 
HETATM   24  N   UNL     1      41.595 -10.390  11.005  1.00  0.00    -0.240 N 
HETATM   25  C   UNL     1      44.008 -11.912  10.979  1.00  0.00     0.081 C 
HETATM   26  H   UNL     1      43.400 -12.280   9.005  1.00  0.00     0.161 HD
HETATM   27  C   UNL     1      45.276 -11.069  10.907  1.00  0.00     0.032 C 
HETATM   28  C   UNL     1      43.192 -11.751  12.268  1.00  0.00     0.061 C 
HETATM   29  C   UNL     1      42.236 -10.547  12.293  1.00  0.00     0.221 C 
HETATM   30  N   UNL     1      40.390  -9.805  10.897  1.00  0.00    -0.181 NA
HETATM   31  C   UNL     1      40.125  -9.891   9.590  1.00  0.00     0.160 A 
BRANCH  29  32
HETATM   32  C   UNL     1      42.885  -9.252  12.721  1.00  0.00     0.409 C 
HETATM   33  F   UNL     1      43.347  -8.510  11.696  1.00  0.00    -0.169 F 
HETATM   34  F   UNL     1      42.049  -8.470  13.442  1.00  0.00    -0.169 F 
HETATM   35  F   UNL     1      43.948  -9.511  13.527  1.00  0.00    -0.169 F 
ENDBRANCH  29  32
ENDBRANCH   1  21
TORSDOF 8
ENDMDL
MODEL 9
REMARK VINA RESULT:      -8.1      5.068      9.785
REMARK  8 active torsions:
REMARK  status: ('A' for Active; 'I' for Inactive)
REMARK    1  A    between atoms: C_8  and  C_9 
REMARK       I    between atoms: C_9  and  N_10 
REMARK    2  A    between atoms: N_10  and  N_11 
REMARK    3  A    between atoms: N_11  and  C_12 
REMARK    4  A    between atoms: C_12  and  N_13 
REMARK    5  A    between atoms: N_13  and  C_14 
REMARK    6  A    between atoms: C_15  and  O_16 
REMARK    7  A    between atoms: C_19  and  O_20 
REMARK    8  A    between atoms: C_26  and  C_27 
ROOT
HETATM    1  C   UNL     1      39.425 -12.888   5.968  1.00  0.00     0.275 C 
HETATM    2  N   UNL     1      39.748 -13.043   7.304  1.00  0.00    -0.263 N 
HETATM    3  O   UNL     1      38.594 -12.070   5.579  1.00  0.00    -0.266 OA
HETATM    4  H   UNL     1      40.176 -13.915   7.611  1.00  0.00     0.190 HD
ENDROOT
BRANCH   2   5
HETATM    5  N   UNL     1      39.012 -12.325   8.263  1.00  0.00    -0.273 N 
HETATM    6  H   UNL     1      38.418 -12.913   8.852  1.00  0.00     0.189 HD
BRANCH   5   7
HETATM    7  C   UNL     1      39.521 -11.183   8.824  1.00  0.00     0.191 C 
HETATM    8  S   UNL     1      38.742  -9.695   8.808  1.00  0.00    -0.039 SA
BRANCH   7   9
HETATM    9  N   UNL     1      40.751 -11.259   9.405  1.00  0.00    -0.330 N 
HETATM   10  H   UNL     1      41.506 -11.483   8.758  1.00  0.00     0.168 HD
BRANCH   9  11
HETATM   11  C   UNL     1      41.188 -11.073  10.736  1.00  0.00     0.068 A 
HETATM   12  C   UNL     1      42.520 -10.639  10.916  1.00  0.00     0.097 A 
HETATM   13  C   UNL     1      43.021 -10.426  12.209  1.00  0.00     0.075 A 
HETATM   14  C   UNL     1      42.200 -10.626  13.320  1.00  0.00     0.070 A 
HETATM   15  C   UNL     1      40.872 -11.011  13.132  1.00  0.00     0.039 A 
HETATM   16  C   UNL     1      40.364 -11.228  11.850  1.00  0.00     0.035 A 
BRANCH  12  17
HETATM   17  O   UNL     1      43.239 -10.460   9.756  1.00  0.00    -0.354 OA
HETATM   18  C   UNL     1      44.414 -11.243   9.587  1.00  0.00     0.210 C 
ENDBRANCH  12  17
BRANCH  14  19
HETATM   19  O   UNL     1      42.560 -10.454  14.628  1.00  0.00    -0.356 OA
HETATM   20  C   UNL     1      41.681  -9.689  15.444  1.00  0.00     0.210 C 
ENDBRANCH  14  19
ENDBRANCH   9  11
ENDBRANCH   7   9
ENDBRANCH   5   7
ENDBRANCH   2   5
BRANCH   1  21
HETATM   21  C   UNL     1      40.114 -13.798   5.076  1.00  0.00     0.098 A 
HETATM   22  C   UNL     1      41.168 -14.652   5.341  1.00  0.00     0.138 A 
HETATM   23  N   UNL     1      41.934 -14.863   6.441  1.00  0.00    -0.370 N 
HETATM   24  N   UNL     1      41.397 -15.332   4.172  1.00  0.00    -0.240 N 
HETATM   25  C   UNL     1      43.012 -15.846   6.468  1.00  0.00     0.081 C 
HETATM   26  H   UNL     1      41.955 -14.191   7.208  1.00  0.00     0.161 HD
HETATM   27  C   UNL     1      42.572 -17.058   7.280  1.00  0.00     0.032 C 
HETATM   28  C   UNL     1      43.525 -16.160   5.057  1.00  0.00     0.061 C 
HETATM   29  C   UNL     1      42.438 -16.321   3.983  1.00  0.00     0.221 C 
HETATM   30  N   UNL     1      40.649 -14.906   3.140  1.00  0.00    -0.181 NA
HETATM   31  C   UNL     1      39.856 -13.986   3.697  1.00  0.00     0.160 A 
BRANCH  29  32
HETATM   32  C   UNL     1      41.841 -17.707   3.910  1.00  0.00     0.409 C 
HETATM   33  F   UNL     1      40.729 -17.861   4.656  1.00  0.00    -0.169 F 
HETATM   34  F   UNL     1      41.533 -18.071   2.645  1.00  0.00    -0.169 F 
HETATM   35  F   UNL     1      42.741 -18.622   4.358  1.00  0.00    -0.169 F 
ENDBRANCH  29  32
ENDBRANCH   1  21
TORSDOF 8
ENDMDL
MODEL 10
REMARK VINA RESULT:      -8.1      4.968      9.978
REMARK  8 active torsions:
REMARK  status: ('A' for Active; 'I' for Inactive)
REMARK    1  A    between atoms: C_8  and  C_9 
REMARK       I    between atoms: C_9  and  N_10 
REMARK    2  A    between atoms: N_10  and  N_11 
REMARK    3  A    between atoms: N_11  and  C_12 
REMARK    4  A    between atoms: C_12  and  N_13 
REMARK    5  A    between atoms: N_13  and  C_14 
REMARK    6  A    between atoms: C_15  and  O_16 
REMARK    7  A    between atoms: C_19  and  O_20 
REMARK    8  A    between atoms: C_26  and  C_27 
ROOT
HETATM    1  C   UNL     1      40.636 -13.954   5.280  1.00  0.00     0.275 C 
HETATM    2  N   UNL     1      41.346 -13.361   6.307  1.00  0.00    -0.263 N 
HETATM    3  O   UNL     1      39.572 -13.501   4.863  1.00  0.00    -0.266 OA
HETATM    4  H   UNL     1      42.022 -13.919   6.827  1.00  0.00     0.190 HD
ENDROOT
BRANCH   2   5
HETATM    5  N   UNL     1      40.771 -12.270   6.983  1.00  0.00    -0.273 N 
HETATM    6  H   UNL     1      40.075 -12.538   7.682  1.00  0.00     0.189 HD
BRANCH   5   7
HETATM    7  C   UNL     1      41.499 -11.133   7.223  1.00  0.00     0.191 C 
HETATM    8  S   UNL     1      41.186  -9.645   6.511  1.00  0.00    -0.039 SA
BRANCH   7   9
HETATM    9  N   UNL     1      42.561 -11.231   8.070  1.00  0.00    -0.330 N 
HETATM   10  H   UNL     1      43.423 -11.543   7.627  1.00  0.00     0.168 HD
BRANCH   9  11
HETATM   11  C   UNL     1      42.703 -10.968   9.452  1.00  0.00     0.068 A 
HETATM   12  C   UNL     1      44.019 -10.834   9.945  1.00  0.00     0.097 A 
HETATM   13  C   UNL     1      44.237 -10.566  11.304  1.00  0.00     0.075 A 
HETATM   14  C   UNL     1      43.153 -10.414  12.170  1.00  0.00     0.070 A 
HETATM   15  C   UNL     1      41.854 -10.504  11.668  1.00  0.00     0.039 A 
HETATM   16  C   UNL     1      41.626 -10.773  10.316  1.00  0.00     0.035 A 
BRANCH  12  17
HETATM   17  O   UNL     1      45.014 -10.989   9.006  1.00  0.00    -0.354 OA
HETATM   18  C   UNL     1      45.765 -12.197   9.041  1.00  0.00     0.210 C 
ENDBRANCH  12  17
BRANCH  14  19
HETATM   19  O   UNL     1      43.224 -10.151  13.510  1.00  0.00    -0.356 OA
HETATM   20  C   UNL     1      41.992 -10.017  14.209  1.00  0.00     0.210 C 
ENDBRANCH  14  19
ENDBRANCH   9  11
ENDBRANCH   7   9
ENDBRANCH   5   7
ENDBRANCH   2   5
BRANCH   1  21
HETATM   21  C   UNL     1      41.228 -15.173   4.769  1.00  0.00     0.098 A 
HETATM   22  C   UNL     1      41.201 -15.689   3.487  1.00  0.00     0.138 A 
HETATM   23  N   UNL     1      40.578 -15.299   2.345  1.00  0.00    -0.370 N 
HETATM   24  N   UNL     1      41.965 -16.827   3.528  1.00  0.00    -0.240 N 
HETATM   25  C   UNL     1      40.712 -16.031   1.091  1.00  0.00     0.081 C 
HETATM   26  H   UNL     1      39.809 -14.629   2.365  1.00  0.00     0.161 HD
HETATM   27  C   UNL     1      41.623 -15.256   0.147  1.00  0.00     0.032 C 
HETATM   28  C   UNL     1      41.114 -17.492   1.329  1.00  0.00     0.061 C 
HETATM   29  C   UNL     1      42.193 -17.709   2.403  1.00  0.00     0.221 C 
HETATM   30  N   UNL     1      42.391 -17.151   4.761  1.00  0.00    -0.181 NA
HETATM   31  C   UNL     1      41.958 -16.133   5.510  1.00  0.00     0.160 A 
BRANCH  29  32
HETATM   32  C   UNL     1      43.608 -17.561   1.896  1.00  0.00     0.409 C 
HETATM   33  F   UNL     1      44.484 -18.406   2.473  1.00  0.00    -0.169 F 
HETATM   34  F   UNL     1      43.698 -17.737   0.558  1.00  0.00    -0.169 F 
HETATM   35  F   UNL     1      44.059 -16.302   2.142  1.00  0.00    -0.169 F 
ENDBRANCH  29  32
ENDBRANCH   1  21
TORSDOF 8
ENDMDL
