MODEL 1
REMARK VINA RESULT:      -7.9      0.000      0.000
REMARK  7 active torsions:
REMARK  status: ('A' for Active; 'I' for Inactive)
REMARK    1  A    between atoms: C_3  and  C_4 
REMARK    2  A    between atoms: C_4  and  N_5 
REMARK       I    between atoms: N_5  and  C_6 
REMARK    3  A    between atoms: C_6  and  C_7 
REMARK    4  A    between atoms: C_7  and  N_8 
REMARK    5  A    between atoms: C_10  and  C_11 
REMARK    6  A    between atoms: C_11  and  N_12 
REMARK       I    between atoms: N_12  and  C_13 
REMARK       I    between atoms: C_13  and  N_14 
REMARK    7  A    between atoms: N_14  and  C_15 
ROOT
HETATM    1  N   UNL     1      39.789 -14.095   0.551  1.00  0.00    -0.057 N 
HETATM    2  H   UNL     1      39.859 -13.144   0.961  1.00  0.00     0.281 HD
HETATM    3  C   UNL     1      41.249 -14.462   0.251  1.00  0.00     0.206 C 
HETATM    4  C   UNL     1      41.789 -13.407  -0.728  1.00  0.00     0.035 C 
HETATM    5  C   UNL     1      40.938 -13.285  -1.988  1.00  0.00     0.004 C 
HETATM    6  C   UNL     1      39.485 -12.984  -1.640  1.00  0.00     0.028 C 
HETATM    7  C   UNL     1      38.901 -13.985  -0.653  1.00  0.00     0.236 C 
ENDROOT
BRANCH   1   8
HETATM    8  C   UNL     1      39.166 -14.879   1.711  1.00  0.00     0.337 C 
BRANCH   8   9
HETATM    9  C   UNL     1      39.506 -14.222   3.049  1.00  0.00     0.243 C 
HETATM   10  N   UNL     1      39.858 -15.076   4.055  1.00  0.00    -0.355 N 
HETATM   11  H   UNL     1      39.989 -16.068   3.895  1.00  0.00     0.162 HD
HETATM   12  O   UNL     1      39.413 -13.000   3.159  1.00  0.00    -0.272 OA
BRANCH  10  13
HETATM   13  C   UNL     1      40.122 -14.604   5.402  1.00  0.00     0.169 C 
BRANCH  13  14
HETATM   14  C   UNL     1      41.598 -14.708   5.634  1.00  0.00     0.006 A 
HETATM   15  C   UNL     1      42.335 -15.746   6.189  1.00  0.00    -0.047 A 
HETATM   16  C   UNL     1      41.798 -17.056   6.669  1.00  0.00     0.049 C 
HETATM   17  C   UNL     1      43.732 -15.417   6.233  1.00  0.00     0.015 A 
HETATM   18  C   UNL     1      44.004 -14.168   5.728  1.00  0.00     0.051 A 
HETATM   19  S   UNL     1      42.594 -13.378   5.192  1.00  0.00    -0.104 SA
ENDBRANCH  13  14
ENDBRANCH  10  13
ENDBRANCH   8   9
ENDBRANCH   1   8
BRANCH   3  20
HETATM   20  C   UNL     1      41.394 -15.923  -0.281  1.00  0.00     0.157 C 
BRANCH  20  21
HETATM   21  N   UNL     1      42.573 -16.629   0.188  1.00  0.00    -0.341 N 
HETATM   22  C   UNL     1      42.488 -17.437   1.309  1.00  0.00     0.320 C 
HETATM   23  N   UNL     1      43.699 -18.019   1.590  1.00  0.00    -0.309 N 
HETATM   24  O   UNL     1      41.442 -17.526   1.936  1.00  0.00    -0.247 OA
HETATM   25  H   UNL     1      44.475 -17.751   1.004  1.00  0.00     0.170 HD
HETATM   26  H   UNL     1      43.226 -16.954  -0.513  1.00  0.00     0.164 HD
BRANCH  23  27
HETATM   27  C   UNL     1      44.022 -18.862   2.674  1.00  0.00     0.036 A 
HETATM   28  C   UNL     1      44.127 -18.429   3.996  1.00  0.00     0.029 A 
HETATM   29  C   UNL     1      44.468 -19.331   5.010  1.00  0.00     0.002 A 
HETATM   30  C   UNL     1      44.703 -20.671   4.710  1.00  0.00     0.000 A 
HETATM   31  C   UNL     1      44.595 -21.113   3.395  1.00  0.00     0.002 A 
HETATM   32  C   UNL     1      44.256 -20.213   2.382  1.00  0.00     0.029 A 
ENDBRANCH  23  27
ENDBRANCH  20  21
ENDBRANCH   3  20
TORSDOF 7
ENDMDL
MODEL 2
REMARK VINA RESULT:      -7.7      1.022      1.499
REMARK  7 active torsions:
REMARK  status: ('A' for Active; 'I' for Inactive)
REMARK    1  A    between atoms: C_3  and  C_4 
REMARK    2  A    between atoms: C_4  and  N_5 
REMARK       I    between atoms: N_5  and  C_6 
REMARK    3  A    between atoms: C_6  and  C_7 
REMARK    4  A    between atoms: C_7  and  N_8 
REMARK    5  A    between atoms: C_10  and  C_11 
REMARK    6  A    between atoms: C_11  and  N_12 
REMARK       I    between atoms: N_12  and  C_13 
REMARK       I    between atoms: C_13  and  N_14 
REMARK    7  A    between atoms: N_14  and  C_15 
ROOT
HETATM    1  N   UNL     1      40.083 -13.912   0.742  1.00  0.00    -0.057 N 
HETATM    2  H   UNL     1      40.285 -12.911   0.930  1.00  0.00     0.281 HD
HETATM    3  C   UNL     1      41.383 -14.425   0.107  1.00  0.00     0.206 C 
HETATM    4  C   UNL     1      41.624 -13.595  -1.165  1.00  0.00     0.035 C 
HETATM    5  C   UNL     1      40.438 -13.634  -2.125  1.00  0.00     0.004 C 
HETATM    6  C   UNL     1      39.159 -13.179  -1.434  1.00  0.00     0.028 C 
HETATM    7  C   UNL     1      38.879 -13.952  -0.153  1.00  0.00     0.236 C 
ENDROOT
BRANCH   1   8
HETATM    8  C   UNL     1      39.821 -14.439   2.157  1.00  0.00     0.337 C 
BRANCH   8   9
HETATM    9  C   UNL     1      40.741 -13.753   3.166  1.00  0.00     0.243 C 
HETATM   10  N   UNL     1      41.319 -14.573   4.093  1.00  0.00    -0.355 N 
HETATM   11  H   UNL     1      41.228 -15.581   4.048  1.00  0.00     0.162 HD
HETATM   12  O   UNL     1      40.884 -12.532   3.117  1.00  0.00    -0.272 OA
BRANCH  10  13
HETATM   13  C   UNL     1      42.146 -14.052   5.166  1.00  0.00     0.169 C 
BRANCH  13  14
HETATM   14  C   UNL     1      42.508 -15.204   6.054  1.00  0.00     0.006 A 
HETATM   15  C   UNL     1      43.662 -15.420   6.796  1.00  0.00    -0.047 A 
HETATM   16  C   UNL     1      44.833 -14.497   6.900  1.00  0.00     0.049 C 
HETATM   17  C   UNL     1      43.594 -16.670   7.499  1.00  0.00     0.015 A 
HETATM   18  C   UNL     1      42.421 -17.350   7.269  1.00  0.00     0.051 A 
HETATM   19  S   UNL     1      41.389 -16.499   6.216  1.00  0.00    -0.104 SA
ENDBRANCH  13  14
ENDBRANCH  10  13
ENDBRANCH   8   9
ENDBRANCH   1   8
BRANCH   3  20
HETATM   20  C   UNL     1      41.342 -15.962  -0.163  1.00  0.00     0.157 C 
BRANCH  20  21
HETATM   21  N   UNL     1      42.525 -16.688   0.264  1.00  0.00    -0.341 N 
HETATM   22  C   UNL     1      42.475 -17.470   1.406  1.00  0.00     0.320 C 
HETATM   23  N   UNL     1      43.683 -18.077   1.641  1.00  0.00    -0.309 N 
HETATM   24  O   UNL     1      41.459 -17.518   2.084  1.00  0.00    -0.247 OA
HETATM   25  H   UNL     1      44.436 -17.842   1.012  1.00  0.00     0.170 HD
HETATM   26  H   UNL     1      43.135 -17.045  -0.461  1.00  0.00     0.164 HD
BRANCH  23  27
HETATM   27  C   UNL     1      44.037 -18.905   2.727  1.00  0.00     0.036 A 
HETATM   28  C   UNL     1      44.178 -18.453   4.040  1.00  0.00     0.029 A 
HETATM   29  C   UNL     1      44.549 -19.341   5.056  1.00  0.00     0.002 A 
HETATM   30  C   UNL     1      44.778 -20.684   4.768  1.00  0.00     0.000 A 
HETATM   31  C   UNL     1      44.634 -21.145   3.462  1.00  0.00     0.002 A 
HETATM   32  C   UNL     1      44.266 -20.259   2.447  1.00  0.00     0.029 A 
ENDBRANCH  23  27
ENDBRANCH  20  21
ENDBRANCH   3  20
TORSDOF 7
ENDMDL
MODEL 3
REMARK VINA RESULT:      -7.5      3.800      4.932
REMARK  7 active torsions:
REMARK  status: ('A' for Active; 'I' for Inactive)
REMARK    1  A    between atoms: C_3  and  C_4 
REMARK    2  A    between atoms: C_4  and  N_5 
REMARK       I    between atoms: N_5  and  C_6 
REMARK    3  A    between atoms: C_6  and  C_7 
REMARK    4  A    between atoms: C_7  and  N_8 
REMARK    5  A    between atoms: C_10  and  C_11 
REMARK    6  A    between atoms: C_11  and  N_12 
REMARK       I    between atoms: N_12  and  C_13 
REMARK       I    between atoms: C_13  and  N_14 
REMARK    7  A    between atoms: N_14  and  C_15 
ROOT
HETATM    1  N   UNL     1      41.577 -13.087   4.764  1.00  0.00    -0.057 N 
HETATM    2  H   UNL     1      41.969 -12.160   4.509  1.00  0.00     0.281 HD
HETATM    3  C   UNL     1      42.825 -13.943   5.021  1.00  0.00     0.206 C 
HETATM    4  C   UNL     1      43.642 -13.955   3.718  1.00  0.00     0.035 C 
HETATM    5  C   UNL     1      42.828 -14.437   2.520  1.00  0.00     0.004 C 
HETATM    6  C   UNL     1      41.568 -13.600   2.343  1.00  0.00     0.028 C 
HETATM    7  C   UNL     1      40.727 -13.532   3.610  1.00  0.00     0.236 C 
ENDROOT
BRANCH   1   8
HETATM    8  C   UNL     1      40.777 -12.741   6.025  1.00  0.00     0.337 C 
BRANCH   8   9
HETATM    9  C   UNL     1      41.244 -11.408   6.609  1.00  0.00     0.243 C 
HETATM   10  N   UNL     1      41.795 -11.468   7.858  1.00  0.00    -0.355 N 
HETATM   11  H   UNL     1      41.979 -12.351   8.320  1.00  0.00     0.162 HD
HETATM   12  O   UNL     1      41.073 -10.375   5.962  1.00  0.00    -0.272 OA
BRANCH  10  13
HETATM   13  C   UNL     1      42.201 -10.273   8.574  1.00  0.00     0.169 C 
BRANCH  13  14
HETATM   14  C   UNL     1      42.476 -10.671   9.992  1.00  0.00     0.006 A 
HETATM   15  C   UNL     1      43.687 -10.941  10.616  1.00  0.00    -0.047 A 
HETATM   16  C   UNL     1      45.042 -10.861   9.990  1.00  0.00     0.049 C 
HETATM   17  C   UNL     1      43.487 -11.299  11.991  1.00  0.00     0.015 A 
HETATM   18  C   UNL     1      42.162 -11.296  12.358  1.00  0.00     0.051 A 
HETATM   19  S   UNL     1      41.145 -10.860  11.064  1.00  0.00    -0.104 SA
ENDBRANCH  13  14
ENDBRANCH  10  13
ENDBRANCH   8   9
ENDBRANCH   1   8
BRANCH   3  20
HETATM   20  C   UNL     1      42.465 -15.373   5.533  1.00  0.00     0.157 C 
BRANCH  20  21
HETATM   21  N   UNL     1      43.494 -16.375   5.316  1.00  0.00    -0.341 N 
HETATM   22  C   UNL     1      43.174 -17.560   4.676  1.00  0.00     0.320 C 
HETATM   23  N   UNL     1      44.275 -18.372   4.561  1.00  0.00    -0.309 N 
HETATM   24  O   UNL     1      42.023 -17.793   4.334  1.00  0.00    -0.247 OA
HETATM   25  H   UNL     1      45.126 -18.040   4.989  1.00  0.00     0.170 HD
HETATM   26  H   UNL     1      44.432 -16.041   5.133  1.00  0.00     0.164 HD
BRANCH  23  27
HETATM   27  C   UNL     1      44.337 -19.671   4.017  1.00  0.00     0.036 A 
HETATM   28  C   UNL     1      44.040 -19.976   2.688  1.00  0.00     0.029 A 
HETATM   29  C   UNL     1      44.112 -21.298   2.233  1.00  0.00     0.002 A 
HETATM   30  C   UNL     1      44.483 -22.322   3.102  1.00  0.00     0.000 A 
HETATM   31  C   UNL     1      44.787 -22.026   4.428  1.00  0.00     0.002 A 
HETATM   32  C   UNL     1      44.713 -20.707   4.883  1.00  0.00     0.029 A 
ENDBRANCH  23  27
ENDBRANCH  20  21
ENDBRANCH   3  20
TORSDOF 7
ENDMDL
MODEL 4
REMARK VINA RESULT:      -7.5      3.746      5.073
REMARK  7 active torsions:
REMARK  status: ('A' for Active; 'I' for Inactive)
REMARK    1  A    between atoms: C_3  and  C_4 
REMARK    2  A    between atoms: C_4  and  N_5 
REMARK       I    between atoms: N_5  and  C_6 
REMARK    3  A    between atoms: C_6  and  C_7 
REMARK    4  A    between atoms: C_7  and  N_8 
REMARK    5  A    between atoms: C_10  and  C_11 
REMARK    6  A    between atoms: C_11  and  N_12 
REMARK       I    between atoms: N_12  and  C_13 
REMARK       I    between atoms: C_13  and  N_14 
REMARK    7  A    between atoms: N_14  and  C_15 
ROOT
HETATM    1  N   UNL     1      42.584 -13.708   5.240  1.00  0.00    -0.057 N 
HETATM    2  H   UNL     1      43.038 -12.786   5.389  1.00  0.00     0.281 HD
HETATM    3  C   UNL     1      42.799 -13.973   3.743  1.00  0.00     0.206 C 
HETATM    4  C   UNL     1      42.125 -12.822   2.978  1.00  0.00     0.035 C 
HETATM    5  C   UNL     1      40.654 -12.655   3.346  1.00  0.00     0.004 C 
HETATM    6  C   UNL     1      40.483 -12.459   4.847  1.00  0.00     0.028 C 
HETATM    7  C   UNL     1      41.151 -13.559   5.660  1.00  0.00     0.236 C 
ENDROOT
BRANCH   1   8
HETATM    8  C   UNL     1      43.411 -14.606   6.166  1.00  0.00     0.337 C 
BRANCH   8   9
HETATM    9  C   UNL     1      44.405 -13.774   6.977  1.00  0.00     0.243 C 
HETATM   10  N   UNL     1      43.866 -13.019   7.979  1.00  0.00    -0.355 N 
HETATM   11  H   UNL     1      42.888 -13.088   8.236  1.00  0.00     0.162 HD
HETATM   12  O   UNL     1      45.597 -13.797   6.673  1.00  0.00    -0.272 OA
BRANCH  10  13
HETATM   13  C   UNL     1      44.674 -12.112   8.774  1.00  0.00     0.169 C 
BRANCH  13  14
HETATM   14  C   UNL     1      43.865 -11.723   9.974  1.00  0.00     0.006 A 
HETATM   15  C   UNL     1      42.790 -10.849  10.070  1.00  0.00    -0.047 A 
HETATM   16  C   UNL     1      42.158 -10.095   8.944  1.00  0.00     0.049 C 
HETATM   17  C   UNL     1      42.320 -10.761  11.424  1.00  0.00     0.015 A 
HETATM   18  C   UNL     1      43.039 -11.548  12.292  1.00  0.00     0.051 A 
HETATM   19  S   UNL     1      44.279 -12.402  11.498  1.00  0.00    -0.104 SA
ENDBRANCH  13  14
ENDBRANCH  10  13
ENDBRANCH   8   9
ENDBRANCH   1   8
BRANCH   3  20
HETATM   20  C   UNL     1      42.281 -15.381   3.313  1.00  0.00     0.157 C 
BRANCH  20  21
HETATM   21  N   UNL     1      43.322 -16.365   3.069  1.00  0.00    -0.341 N 
HETATM   22  C   UNL     1      43.087 -17.698   3.361  1.00  0.00     0.320 C 
HETATM   23  N   UNL     1      44.182 -18.469   3.060  1.00  0.00    -0.309 N 
HETATM   24  O   UNL     1      42.031 -18.049   3.867  1.00  0.00    -0.247 OA
HETATM   25  H   UNL     1      45.001 -17.980   2.731  1.00  0.00     0.170 HD
HETATM   26  H   UNL     1      43.924 -16.212   2.270  1.00  0.00     0.164 HD
BRANCH  23  27
HETATM   27  C   UNL     1      44.344 -19.855   3.261  1.00  0.00     0.036 A 
HETATM   28  C   UNL     1      44.124 -20.819   2.276  1.00  0.00     0.029 A 
HETATM   29  C   UNL     1      44.294 -22.177   2.566  1.00  0.00     0.002 A 
HETATM   30  C   UNL     1      44.686 -22.581   3.840  1.00  0.00     0.000 A 
HETATM   31  C   UNL     1      44.914 -21.626   4.828  1.00  0.00     0.002 A 
HETATM   32  C   UNL     1      44.743 -20.270   4.539  1.00  0.00     0.029 A 
ENDBRANCH  23  27
ENDBRANCH  20  21
ENDBRANCH   3  20
TORSDOF 7
ENDMDL
MODEL 5
REMARK VINA RESULT:      -7.5      2.307      5.684
REMARK  7 active torsions:
REMARK  status: ('A' for Active; 'I' for Inactive)
REMARK    1  A    between atoms: C_3  and  C_4 
REMARK    2  A    between atoms: C_4  and  N_5 
REMARK       I    between atoms: N_5  and  C_6 
REMARK    3  A    between atoms: C_6  and  C_7 
REMARK    4  A    between atoms: C_7  and  N_8 
REMARK    5  A    between atoms: C_10  and  C_11 
REMARK    6  A    between atoms: C_11  and  N_12 
REMARK       I    between atoms: N_12  and  C_13 
REMARK       I    between atoms: C_13  and  N_14 
REMARK    7  A    between atoms: N_14  and  C_15 
ROOT
HETATM    1  N   UNL     1      41.804 -13.649   3.938  1.00  0.00    -0.057 N 
HETATM    2  H   UNL     1      41.106 -13.346   3.232  1.00  0.00     0.281 HD
HETATM    3  C   UNL     1      41.152 -14.882   4.579  1.00  0.00     0.206 C 
HETATM    4  C   UNL     1      39.817 -14.423   5.188  1.00  0.00     0.035 C 
HETATM    5  C   UNL     1      39.986 -13.265   6.168  1.00  0.00     0.004 C 
HETATM    6  C   UNL     1      40.695 -12.089   5.507  1.00  0.00     0.028 C 
HETATM    7  C   UNL     1      42.016 -12.488   4.865  1.00  0.00     0.236 C 
ENDROOT
BRANCH   1   8
HETATM    8  C   UNL     1      43.014 -13.964   3.052  1.00  0.00     0.337 C 
BRANCH   8   9
HETATM    9  C   UNL     1      42.614 -14.888   1.902  1.00  0.00     0.243 C 
HETATM   10  N   UNL     1      41.728 -14.365   1.004  1.00  0.00    -0.355 N 
HETATM   11  H   UNL     1      41.439 -13.394   1.039  1.00  0.00     0.162 HD
HETATM   12  O   UNL     1      43.067 -16.031   1.864  1.00  0.00    -0.272 OA
BRANCH  10  13
HETATM   13  C   UNL     1      41.190 -15.155  -0.089  1.00  0.00     0.169 C 
BRANCH  13  14
HETATM   14  C   UNL     1      41.320 -14.339  -1.339  1.00  0.00     0.006 A 
HETATM   15  C   UNL     1      41.009 -14.675  -2.650  1.00  0.00    -0.047 A 
HETATM   16  C   UNL     1      40.421 -15.968  -3.117  1.00  0.00     0.049 C 
HETATM   17  C   UNL     1      41.306 -13.590  -3.542  1.00  0.00     0.015 A 
HETATM   18  C   UNL     1      41.826 -12.494  -2.897  1.00  0.00     0.051 A 
HETATM   19  S   UNL     1      41.961 -12.748  -1.219  1.00  0.00    -0.104 SA
ENDBRANCH  13  14
ENDBRANCH  10  13
ENDBRANCH   8   9
ENDBRANCH   1   8
BRANCH   3  20
HETATM   20  C   UNL     1      42.091 -15.577   5.614  1.00  0.00     0.157 C 
BRANCH  20  21
HETATM   21  N   UNL     1      43.147 -16.387   5.032  1.00  0.00    -0.341 N 
HETATM   22  C   UNL     1      42.879 -17.691   4.649  1.00  0.00     0.320 C 
HETATM   23  N   UNL     1      43.996 -18.288   4.119  1.00  0.00    -0.309 N 
HETATM   24  O   UNL     1      41.776 -18.183   4.840  1.00  0.00    -0.247 OA
HETATM   25  H   UNL     1      44.845 -17.744   4.127  1.00  0.00     0.170 HD
HETATM   26  H   UNL     1      43.826 -15.912   4.451  1.00  0.00     0.164 HD
BRANCH  23  27
HETATM   27  C   UNL     1      44.132 -19.616   3.666  1.00  0.00     0.036 A 
HETATM   28  C   UNL     1      44.663 -20.653   4.435  1.00  0.00     0.029 A 
HETATM   29  C   UNL     1      44.778 -21.942   3.901  1.00  0.00     0.002 A 
HETATM   30  C   UNL     1      44.360 -22.203   2.598  1.00  0.00     0.000 A 
HETATM   31  C   UNL     1      43.824 -21.176   1.826  1.00  0.00     0.002 A 
HETATM   32  C   UNL     1      43.711 -19.889   2.358  1.00  0.00     0.029 A 
ENDBRANCH  23  27
ENDBRANCH  20  21
ENDBRANCH   3  20
TORSDOF 7
ENDMDL
MODEL 6
REMARK VINA RESULT:      -7.4      3.747      5.732
REMARK  7 active torsions:
REMARK  status: ('A' for Active; 'I' for Inactive)
REMARK    1  A    between atoms: C_3  and  C_4 
REMARK    2  A    between atoms: C_4  and  N_5 
REMARK       I    between atoms: N_5  and  C_6 
REMARK    3  A    between atoms: C_6  and  C_7 
REMARK    4  A    between atoms: C_7  and  N_8 
REMARK    5  A    between atoms: C_10  and  C_11 
REMARK    6  A    between atoms: C_11  and  N_12 
REMARK       I    between atoms: N_12  and  C_13 
REMARK       I    between atoms: C_13  and  N_14 
REMARK    7  A    between atoms: N_14  and  C_15 
ROOT
HETATM    1  N   UNL     1      42.388 -13.795   6.327  1.00  0.00    -0.057 N 
HETATM    2  H   UNL     1      42.216 -13.669   7.343  1.00  0.00     0.281 HD
HETATM    3  C   UNL     1      41.999 -15.259   6.077  1.00  0.00     0.206 C 
HETATM    4  C   UNL     1      42.903 -16.126   6.969  1.00  0.00     0.035 C 
HETATM    5  C   UNL     1      44.387 -15.858   6.735  1.00  0.00     0.004 C 
HETATM    6  C   UNL     1      44.715 -14.383   6.931  1.00  0.00     0.028 C 
HETATM    7  C   UNL     1      43.834 -13.472   6.089  1.00  0.00     0.236 C 
ENDROOT
BRANCH   1   8
HETATM    8  C   UNL     1      41.418 -12.772   5.726  1.00  0.00     0.337 C 
BRANCH   8   9
HETATM    9  C   UNL     1      41.557 -11.421   6.428  1.00  0.00     0.243 C 
HETATM   10  N   UNL     1      41.657 -11.469   7.790  1.00  0.00    -0.355 N 
HETATM   11  H   UNL     1      41.741 -12.346   8.290  1.00  0.00     0.162 HD
HETATM   12  O   UNL     1      41.538 -10.390   5.757  1.00  0.00    -0.272 OA
BRANCH  10  13
HETATM   13  C   UNL     1      41.706 -10.263   8.596  1.00  0.00     0.169 C 
BRANCH  13  14
HETATM   14  C   UNL     1      42.759 -10.466   9.644  1.00  0.00     0.006 A 
HETATM   15  C   UNL     1      42.870  -9.898  10.906  1.00  0.00    -0.047 A 
HETATM   16  C   UNL     1      41.908  -8.944  11.536  1.00  0.00     0.049 C 
HETATM   17  C   UNL     1      44.050 -10.366  11.576  1.00  0.00     0.015 A 
HETATM   18  C   UNL     1      44.783 -11.247  10.818  1.00  0.00     0.051 A 
HETATM   19  S   UNL     1      44.065 -11.529   9.300  1.00  0.00    -0.104 SA
ENDBRANCH  13  14
ENDBRANCH  10  13
ENDBRANCH   8   9
ENDBRANCH   1   8
BRANCH   3  20
HETATM   20  C   UNL     1      42.079 -15.642   4.566  1.00  0.00     0.157 C 
BRANCH  20  21
HETATM   21  N   UNL     1      43.176 -16.529   4.219  1.00  0.00    -0.341 N 
HETATM   22  C   UNL     1      42.958 -17.894   4.151  1.00  0.00     0.320 C 
HETATM   23  N   UNL     1      44.108 -18.560   3.805  1.00  0.00    -0.309 N 
HETATM   24  O   UNL     1      41.864 -18.366   4.426  1.00  0.00    -0.247 OA
HETATM   25  H   UNL     1      44.941 -17.999   3.704  1.00  0.00     0.170 HD
HETATM   26  H   UNL     1      43.859 -16.181   3.558  1.00  0.00     0.164 HD
BRANCH  23  27
HETATM   27  C   UNL     1      44.297 -19.952   3.685  1.00  0.00     0.036 A 
HETATM   28  C   UNL     1      44.703 -20.779   4.734  1.00  0.00     0.029 A 
HETATM   29  C   UNL     1      44.882 -22.151   4.523  1.00  0.00     0.002 A 
HETATM   30  C   UNL     1      44.654 -22.705   3.265  1.00  0.00     0.000 A 
HETATM   31  C   UNL     1      44.243 -21.889   2.215  1.00  0.00     0.002 A 
HETATM   32  C   UNL     1      44.066 -20.519   2.424  1.00  0.00     0.029 A 
ENDBRANCH  23  27
ENDBRANCH  20  21
ENDBRANCH   3  20
TORSDOF 7
ENDMDL
MODEL 7
REMARK VINA RESULT:      -7.4      2.364      6.921
REMARK  7 active torsions:
REMARK  status: ('A' for Active; 'I' for Inactive)
REMARK    1  A    between atoms: C_3  and  C_4 
REMARK    2  A    between atoms: C_4  and  N_5 
REMARK       I    between atoms: N_5  and  C_6 
REMARK    3  A    between atoms: C_6  and  C_7 
REMARK    4  A    between atoms: C_7  and  N_8 
REMARK    5  A    between atoms: C_10  and  C_11 
REMARK    6  A    between atoms: C_11  and  N_12 
REMARK       I    between atoms: N_12  and  C_13 
REMARK       I    between atoms: C_13  and  N_14 
REMARK    7  A    between atoms: N_14  and  C_15 
ROOT
HETATM    1  N   UNL     1      41.843 -15.642   3.886  1.00  0.00    -0.057 N 
HETATM    2  H   UNL     1      42.603 -16.240   4.264  1.00  0.00     0.281 HD
HETATM    3  C   UNL     1      42.594 -14.595   3.053  1.00  0.00     0.206 C 
HETATM    4  C   UNL     1      43.545 -13.854   4.009  1.00  0.00     0.035 C 
HETATM    5  C   UNL     1      42.819 -13.250   5.207  1.00  0.00     0.004 C 
HETATM    6  C   UNL     1      42.035 -14.314   5.966  1.00  0.00     0.028 C 
HETATM    7  C   UNL     1      41.091 -15.098   5.065  1.00  0.00     0.236 C 
ENDROOT
BRANCH   1   8
HETATM    8  C   UNL     1      41.045 -16.655   3.057  1.00  0.00     0.337 C 
BRANCH   8   9
HETATM    9  C   UNL     1      41.984 -17.528   2.225  1.00  0.00     0.243 C 
HETATM   10  N   UNL     1      42.996 -18.133   2.914  1.00  0.00    -0.355 N 
HETATM   11  H   UNL     1      43.056 -18.091   3.925  1.00  0.00     0.162 HD
HETATM   12  O   UNL     1      41.809 -17.612   1.009  1.00  0.00    -0.272 OA
BRANCH  10  13
HETATM   13  C   UNL     1      44.016 -18.919   2.244  1.00  0.00     0.169 C 
BRANCH  13  14
HETATM   14  C   UNL     1      44.312 -20.105   3.111  1.00  0.00     0.006 A 
HETATM   15  C   UNL     1      44.362 -21.452   2.780  1.00  0.00    -0.047 A 
HETATM   16  C   UNL     1      44.154 -22.038   1.421  1.00  0.00     0.049 C 
HETATM   17  C   UNL     1      44.671 -22.252   3.931  1.00  0.00     0.015 A 
HETATM   18  C   UNL     1      44.835 -21.506   5.074  1.00  0.00     0.051 A 
HETATM   19  S   UNL     1      44.627 -19.842   4.781  1.00  0.00    -0.104 SA
ENDBRANCH  13  14
ENDBRANCH  10  13
ENDBRANCH   8   9
ENDBRANCH   1   8
BRANCH   3  20
HETATM   20  C   UNL     1      41.624 -13.638   2.291  1.00  0.00     0.157 C 
BRANCH  20  21
HETATM   21  N   UNL     1      41.674 -13.745   0.844  1.00  0.00    -0.341 N 
HETATM   22  C   UNL     1      40.580 -14.236   0.153  1.00  0.00     0.320 C 
HETATM   23  N   UNL     1      40.817 -14.256  -1.198  1.00  0.00    -0.309 N 
HETATM   24  O   UNL     1      39.588 -14.626   0.753  1.00  0.00    -0.247 OA
HETATM   25  H   UNL     1      41.739 -13.974  -1.499  1.00  0.00     0.170 HD
HETATM   26  H   UNL     1      42.198 -13.035   0.347  1.00  0.00     0.164 HD
BRANCH  23  27
HETATM   27  C   UNL     1      39.967 -14.731  -2.218  1.00  0.00     0.036 A 
HETATM   28  C   UNL     1      40.229 -15.865  -2.988  1.00  0.00     0.029 A 
HETATM   29  C   UNL     1      39.338 -16.258  -3.993  1.00  0.00     0.002 A 
HETATM   30  C   UNL     1      38.179 -15.523  -4.233  1.00  0.00     0.000 A 
HETATM   31  C   UNL     1      37.907 -14.394  -3.466  1.00  0.00     0.002 A 
HETATM   32  C   UNL     1      38.797 -13.999  -2.464  1.00  0.00     0.029 A 
ENDBRANCH  23  27
ENDBRANCH  20  21
ENDBRANCH   3  20
TORSDOF 7
ENDMDL
MODEL 8
REMARK VINA RESULT:      -7.3      1.799      6.396
REMARK  7 active torsions:
REMARK  status: ('A' for Active; 'I' for Inactive)
REMARK    1  A    between atoms: C_3  and  C_4 
REMARK    2  A    between atoms: C_4  and  N_5 
REMARK       I    between atoms: N_5  and  C_6 
REMARK    3  A    between atoms: C_6  and  C_7 
REMARK    4  A    between atoms: C_7  and  N_8 
REMARK    5  A    between atoms: C_10  and  C_11 
REMARK    6  A    between atoms: C_11  and  N_12 
REMARK       I    between atoms: N_12  and  C_13 
REMARK       I    between atoms: C_13  and  N_14 
REMARK    7  A    between atoms: N_14  and  C_15 
ROOT
HETATM    1  N   UNL     1      43.563 -19.005   4.017  1.00  0.00    -0.057 N 
HETATM    2  H   UNL     1      42.814 -19.560   4.474  1.00  0.00     0.281 HD
HETATM    3  C   UNL     1      43.076 -18.874   2.568  1.00  0.00     0.206 C 
HETATM    4  C   UNL     1      42.933 -20.298   2.007  1.00  0.00     0.035 C 
HETATM    5  C   UNL     1      44.220 -21.109   2.129  1.00  0.00     0.004 C 
HETATM    6  C   UNL     1      44.701 -21.158   3.574  1.00  0.00     0.028 C 
HETATM    7  C   UNL     1      44.840 -19.774   4.192  1.00  0.00     0.236 C 
ENDROOT
BRANCH   1   8
HETATM    8  C   UNL     1      43.509 -17.703   4.823  1.00  0.00     0.337 C 
BRANCH   8   9
HETATM    9  C   UNL     1      42.061 -17.282   5.071  1.00  0.00     0.243 C 
HETATM   10  N   UNL     1      41.849 -15.940   5.205  1.00  0.00    -0.355 N 
HETATM   11  H   UNL     1      42.585 -15.262   5.045  1.00  0.00     0.162 HD
HETATM   12  O   UNL     1      41.192 -18.148   5.169  1.00  0.00    -0.272 OA
BRANCH  10  13
HETATM   13  C   UNL     1      40.541 -15.400   5.531  1.00  0.00     0.169 C 
BRANCH  13  14
HETATM   14  C   UNL     1      40.418 -14.074   4.844  1.00  0.00     0.006 A 
HETATM   15  C   UNL     1      39.917 -13.774   3.585  1.00  0.00    -0.047 A 
HETATM   16  C   UNL     1      39.337 -14.745   2.608  1.00  0.00     0.049 C 
HETATM   17  C   UNL     1      40.001 -12.365   3.322  1.00  0.00     0.015 A 
HETATM   18  C   UNL     1      40.555 -11.658   4.362  1.00  0.00     0.051 A 
HETATM   19  S   UNL     1      40.976 -12.670   5.665  1.00  0.00    -0.104 SA
ENDBRANCH  13  14
ENDBRANCH  10  13
ENDBRANCH   8   9
ENDBRANCH   1   8
BRANCH   3  20
HETATM   20  C   UNL     1      44.014 -17.968   1.709  1.00  0.00     0.157 C 
BRANCH  20  21
HETATM   21  N   UNL     1      43.352 -17.252   0.633  1.00  0.00    -0.341 N 
HETATM   22  C   UNL     1      42.701 -16.060   0.901  1.00  0.00     0.320 C 
HETATM   23  N   UNL     1      42.145 -15.534  -0.239  1.00  0.00    -0.309 N 
HETATM   24  O   UNL     1      42.637 -15.627   2.043  1.00  0.00    -0.247 OA
HETATM   25  H   UNL     1      42.230 -16.088  -1.079  1.00  0.00     0.170 HD
HETATM   26  H   UNL     1      43.780 -17.298  -0.283  1.00  0.00     0.164 HD
BRANCH  23  27
HETATM   27  C   UNL     1      41.366 -14.365  -0.360  1.00  0.00     0.036 A 
HETATM   28  C   UNL     1      41.801 -13.094   0.020  1.00  0.00     0.029 A 
HETATM   29  C   UNL     1      40.955 -11.988  -0.121  1.00  0.00     0.002 A 
HETATM   30  C   UNL     1      39.674 -12.143  -0.644  1.00  0.00     0.000 A 
HETATM   31  C   UNL     1      39.234 -13.406  -1.031  1.00  0.00     0.002 A 
HETATM   32  C   UNL     1      40.077 -14.511  -0.889  1.00  0.00     0.029 A 
ENDBRANCH  23  27
ENDBRANCH  20  21
ENDBRANCH   3  20
TORSDOF 7
ENDMDL
MODEL 9
REMARK VINA RESULT:      -7.2      5.117      8.579
REMARK  7 active torsions:
REMARK  status: ('A' for Active; 'I' for Inactive)
REMARK    1  A    between atoms: C_3  and  C_4 
REMARK    2  A    between atoms: C_4  and  N_5 
REMARK       I    between atoms: N_5  and  C_6 
REMARK    3  A    between atoms: C_6  and  C_7 
REMARK    4  A    between atoms: C_7  and  N_8 
REMARK    5  A    between atoms: C_10  and  C_11 
REMARK    6  A    between atoms: C_11  and  N_12 
REMARK       I    between atoms: N_12  and  C_13 
REMARK       I    between atoms: C_13  and  N_14 
REMARK    7  A    between atoms: N_14  and  C_15 
ROOT
HETATM    1  N   UNL     1      41.438 -12.804   4.954  1.00  0.00    -0.057 N 
HETATM    2  H   UNL     1      40.929 -13.677   4.713  1.00  0.00     0.281 HD
HETATM    3  C   UNL     1      40.782 -12.360   6.269  1.00  0.00     0.206 C 
HETATM    4  C   UNL     1      39.287 -12.143   5.978  1.00  0.00     0.035 C 
HETATM    5  C   UNL     1      39.049 -11.161   4.834  1.00  0.00     0.004 C 
HETATM    6  C   UNL     1      39.771 -11.609   3.569  1.00  0.00     0.028 C 
HETATM    7  C   UNL     1      41.254 -11.862   3.801  1.00  0.00     0.236 C 
ENDROOT
BRANCH   1   8
HETATM    8  C   UNL     1      42.872 -13.323   5.107  1.00  0.00     0.337 C 
BRANCH   8   9
HETATM    9  C   UNL     1      43.199 -14.332   4.008  1.00  0.00     0.243 C 
HETATM   10  N   UNL     1      42.625 -15.564   4.144  1.00  0.00    -0.355 N 
HETATM   11  H   UNL     1      41.943 -15.760   4.868  1.00  0.00     0.162 HD
HETATM   12  O   UNL     1      43.967 -14.008   3.102  1.00  0.00    -0.272 OA
BRANCH  10  13
HETATM   13  C   UNL     1      42.914 -16.650   3.226  1.00  0.00     0.169 C 
BRANCH  13  14
HETATM   14  C   UNL     1      43.553 -17.750   4.018  1.00  0.00     0.006 A 
HETATM   15  C   UNL     1      43.936 -19.023   3.614  1.00  0.00    -0.047 A 
HETATM   16  C   UNL     1      43.819 -19.587   2.235  1.00  0.00     0.049 C 
HETATM   17  C   UNL     1      44.501 -19.760   4.709  1.00  0.00     0.015 A 
HETATM   18  C   UNL     1      44.522 -19.044   5.882  1.00  0.00     0.051 A 
HETATM   19  S   UNL     1      43.872 -17.482   5.686  1.00  0.00    -0.104 SA
ENDBRANCH  13  14
ENDBRANCH  10  13
ENDBRANCH   8   9
ENDBRANCH   1   8
BRANCH   3  20
HETATM   20  C   UNL     1      41.476 -11.103   6.880  1.00  0.00     0.157 C 
BRANCH  20  21
HETATM   21  N   UNL     1      42.215 -11.350   8.106  1.00  0.00    -0.341 N 
HETATM   22  C   UNL     1      41.769 -10.805   9.298  1.00  0.00     0.320 C 
HETATM   23  N   UNL     1      42.593 -11.154  10.338  1.00  0.00    -0.309 N 
HETATM   24  O   UNL     1      40.786 -10.079   9.322  1.00  0.00    -0.247 OA
HETATM   25  H   UNL     1      43.414 -11.692  10.103  1.00  0.00     0.170 HD
HETATM   26  H   UNL     1      42.663 -12.253   8.200  1.00  0.00     0.164 HD
BRANCH  23  27
HETATM   27  C   UNL     1      42.497 -10.755  11.687  1.00  0.00     0.036 A 
HETATM   28  C   UNL     1      41.466 -11.142  12.545  1.00  0.00     0.029 A 
HETATM   29  C   UNL     1      41.439 -10.686  13.868  1.00  0.00     0.002 A 
HETATM   30  C   UNL     1      42.442  -9.844  14.343  1.00  0.00     0.000 A 
HETATM   31  C   UNL     1      43.477  -9.457  13.496  1.00  0.00     0.002 A 
HETATM   32  C   UNL     1      43.504  -9.911  12.175  1.00  0.00     0.029 A 
ENDBRANCH  23  27
ENDBRANCH  20  21
ENDBRANCH   3  20
TORSDOF 7
ENDMDL
MODEL 10
REMARK VINA RESULT:      -7.1      5.078      8.548
REMARK  7 active torsions:
REMARK  status: ('A' for Active; 'I' for Inactive)
REMARK    1  A    between atoms: C_3  and  C_4 
REMARK    2  A    between atoms: C_4  and  N_5 
REMARK       I    between atoms: N_5  and  C_6 
REMARK    3  A    between atoms: C_6  and  C_7 
REMARK    4  A    between atoms: C_7  and  N_8 
REMARK    5  A    between atoms: C_10  and  C_11 
REMARK    6  A    between atoms: C_11  and  N_12 
REMARK       I    between atoms: N_12  and  C_13 
REMARK       I    between atoms: C_13  and  N_14 
REMARK    7  A    between atoms: N_14  and  C_15 
ROOT
HETATM    1  N   UNL     1      41.581 -13.299   5.101  1.00  0.00    -0.057 N 
HETATM    2  H   UNL     1      40.945 -14.101   4.923  1.00  0.00     0.281 HD
HETATM    3  C   UNL     1      40.872 -12.525   6.221  1.00  0.00     0.206 C 
HETATM    4  C   UNL     1      39.493 -12.111   5.683  1.00  0.00     0.035 C 
HETATM    5  C   UNL     1      39.584 -11.320   4.381  1.00  0.00     0.004 C 
HETATM    6  C   UNL     1      40.350 -12.100   3.320  1.00  0.00     0.028 C 
HETATM    7  C   UNL     1      41.719 -12.558   3.804  1.00  0.00     0.236 C 
ENDROOT
BRANCH   1   8
HETATM    8  C   UNL     1      42.860 -14.019   5.542  1.00  0.00     0.337 C 
BRANCH   8   9
HETATM    9  C   UNL     1      42.579 -15.496   5.816  1.00  0.00     0.243 C 
HETATM   10  N   UNL     1      42.060 -16.204   4.770  1.00  0.00    -0.355 N 
HETATM   11  H   UNL     1      41.968 -15.802   3.844  1.00  0.00     0.162 HD
HETATM   12  O   UNL     1      42.794 -15.952   6.939  1.00  0.00    -0.272 OA
BRANCH  10  13
HETATM   13  C   UNL     1      41.661 -17.593   4.908  1.00  0.00     0.169 C 
BRANCH  13  14
HETATM   14  C   UNL     1      42.722 -18.432   4.263  1.00  0.00     0.006 A 
HETATM   15  C   UNL     1      42.961 -18.674   2.917  1.00  0.00    -0.047 A 
HETATM   16  C   UNL     1      42.198 -18.102   1.765  1.00  0.00     0.049 C 
HETATM   17  C   UNL     1      44.082 -19.554   2.745  1.00  0.00     0.015 A 
HETATM   18  C   UNL     1      44.641 -19.948   3.937  1.00  0.00     0.051 A 
HETATM   19  S   UNL     1      43.835 -19.266   5.273  1.00  0.00    -0.104 SA
ENDBRANCH  13  14
ENDBRANCH  10  13
ENDBRANCH   8   9
ENDBRANCH   1   8
BRANCH   3  20
HETATM   20  C   UNL     1      41.719 -11.317   6.731  1.00  0.00     0.157 C 
BRANCH  20  21
HETATM   21  N   UNL     1      42.410 -11.543   7.989  1.00  0.00    -0.341 N 
HETATM   22  C   UNL     1      41.935 -10.955   9.148  1.00  0.00     0.320 C 
HETATM   23  N   UNL     1      42.715 -11.290  10.227  1.00  0.00    -0.309 N 
HETATM   24  O   UNL     1      40.968 -10.207   9.117  1.00  0.00    -0.247 OA
HETATM   25  H   UNL     1      43.531 -11.852  10.036  1.00  0.00     0.170 HD
HETATM   26  H   UNL     1      42.834 -12.452   8.125  1.00  0.00     0.164 HD
BRANCH  23  27
HETATM   27  C   UNL     1      42.581 -10.849  11.560  1.00  0.00     0.036 A 
HETATM   28  C   UNL     1      41.529 -11.214  12.401  1.00  0.00     0.029 A 
HETATM   29  C   UNL     1      41.465 -10.717  13.708  1.00  0.00     0.002 A 
HETATM   30  C   UNL     1      42.452  -9.856  14.182  1.00  0.00     0.000 A 
HETATM   31  C   UNL     1      43.508  -9.492  13.352  1.00  0.00     0.002 A 
HETATM   32  C   UNL     1      43.572  -9.986  12.047  1.00  0.00     0.029 A 
ENDBRANCH  23  27
ENDBRANCH  20  21
ENDBRANCH   3  20
TORSDOF 7
ENDMDL
