MODEL 1
REMARK VINA RESULT:      -7.7      0.000      0.000
REMARK  5 active torsions:
REMARK  status: ('A' for Active; 'I' for Inactive)
REMARK    1  A    between atoms: C_2  and  O_3 
REMARK    2  A    between atoms: O_3  and  C_4 
REMARK    3  A    between atoms: C_8  and  C_9 
REMARK    4  A    between atoms: C_9  and  N_10 
REMARK       I    between atoms: N_10  and  C_11 
REMARK    5  A    between atoms: C_11  and  C_12 
ROOT
HETATM    1  C   UNL     1      43.226 -18.068   7.013  1.00  0.00     0.161 C 
ENDROOT
BRANCH   1   2
HETATM    2  C   UNL     1      43.206 -16.606   6.671  1.00  0.00    -0.035 A 
HETATM    3  C   UNL     1      44.196 -15.741   7.146  1.00  0.00     0.028 A 
HETATM    4  C   UNL     1      44.112 -14.398   6.815  1.00  0.00     0.120 A 
HETATM    5  N   UNL     1      43.128 -13.867   6.060  1.00  0.00    -0.237 NA
HETATM    6  C   UNL     1      42.182 -14.711   5.612  1.00  0.00     0.165 A 
HETATM    7  C   UNL     1      42.176 -16.070   5.895  1.00  0.00     0.066 A 
BRANCH   6   8
HETATM    8  O   UNL     1      41.152 -14.264   4.818  1.00  0.00    -0.324 OA
BRANCH   8   9
HETATM    9  C   UNL     1      41.227 -14.387   3.386  1.00  0.00     0.058 C 
HETATM   10  C   UNL     1      40.544 -15.656   2.856  1.00  0.00     0.045 C 
HETATM   11  C   UNL     1      42.660 -14.230   2.861  1.00  0.00     0.045 C 
HETATM   12  C   UNL     1      40.411 -13.182   2.876  1.00  0.00     0.045 C 
ENDBRANCH   8   9
ENDBRANCH   6   8
ENDBRANCH   1   2
BRANCH   1  13
HETATM   13  N   UNL     1      43.234 -18.881   5.821  1.00  0.00    -0.353 N 
HETATM   14  C   UNL     1      44.418 -19.185   5.191  1.00  0.00     0.255 C 
HETATM   15  O   UNL     1      45.516 -18.794   5.563  1.00  0.00    -0.268 OA
HETATM   16  H   UNL     1      42.353 -19.213   5.451  1.00  0.00     0.163 HD
BRANCH  14  17
HETATM   17  C   UNL     1      44.306 -20.055   4.004  1.00  0.00     0.075 A 
HETATM   18  C   UNL     1      44.573 -21.429   4.090  1.00  0.00     0.051 A 
HETATM   19 CL   UNL     1      45.068 -22.197   5.557  1.00  0.00    -0.083 Cl
HETATM   20  C   UNL     1      44.430 -22.243   2.961  1.00  0.00     0.025 A 
HETATM   21  C   UNL     1      44.012 -21.698   1.747  1.00  0.00     0.003 A 
HETATM   22  C   UNL     1      43.743 -20.334   1.659  1.00  0.00     0.025 A 
HETATM   23  C   UNL     1      43.889 -19.510   2.781  1.00  0.00     0.051 A 
HETATM   24 CL   UNL     1      43.590 -17.821   2.561  1.00  0.00    -0.083 Cl
ENDBRANCH  14  17
ENDBRANCH   1  13
TORSDOF 5
ENDMDL
MODEL 2
REMARK VINA RESULT:      -7.6      0.104      1.913
REMARK  5 active torsions:
REMARK  status: ('A' for Active; 'I' for Inactive)
REMARK    1  A    between atoms: C_2  and  O_3 
REMARK    2  A    between atoms: O_3  and  C_4 
REMARK    3  A    between atoms: C_8  and  C_9 
REMARK    4  A    between atoms: C_9  and  N_10 
REMARK       I    between atoms: N_10  and  C_11 
REMARK    5  A    between atoms: C_11  and  C_12 
ROOT
HETATM    1  C   UNL     1      43.243 -17.955   7.008  1.00  0.00     0.161 C 
ENDROOT
BRANCH   1   2
HETATM    2  C   UNL     1      43.217 -16.496   6.655  1.00  0.00    -0.035 A 
HETATM    3  C   UNL     1      44.213 -15.627   7.108  1.00  0.00     0.028 A 
HETATM    4  C   UNL     1      44.124 -14.287   6.767  1.00  0.00     0.120 A 
HETATM    5  N   UNL     1      43.128 -13.762   6.022  1.00  0.00    -0.237 NA
HETATM    6  C   UNL     1      42.176 -14.611   5.595  1.00  0.00     0.165 A 
HETATM    7  C   UNL     1      42.176 -15.967   5.888  1.00  0.00     0.066 A 
BRANCH   6   8
HETATM    8  O   UNL     1      41.135 -14.171   4.812  1.00  0.00    -0.324 OA
BRANCH   8   9
HETATM    9  C   UNL     1      41.200 -14.283   3.378  1.00  0.00     0.058 C 
HETATM   10  C   UNL     1      40.445 -15.504   2.836  1.00  0.00     0.045 C 
HETATM   11  C   UNL     1      42.640 -14.203   2.852  1.00  0.00     0.045 C 
HETATM   12  C   UNL     1      40.456 -13.026   2.883  1.00  0.00     0.045 C 
ENDBRANCH   8   9
ENDBRANCH   6   8
ENDBRANCH   1   2
BRANCH   1  13
HETATM   13  N   UNL     1      43.217 -18.778   5.824  1.00  0.00    -0.353 N 
HETATM   14  C   UNL     1      44.386 -19.118   5.183  1.00  0.00     0.255 C 
HETATM   15  O   UNL     1      45.497 -18.751   5.540  1.00  0.00    -0.268 OA
HETATM   16  H   UNL     1      42.324 -19.091   5.466  1.00  0.00     0.163 HD
BRANCH  14  17
HETATM   17  C   UNL     1      44.240 -19.994   4.005  1.00  0.00     0.075 A 
HETATM   18  C   UNL     1      43.839 -19.475   2.766  1.00  0.00     0.051 A 
HETATM   19 CL   UNL     1      43.467 -17.804   2.527  1.00  0.00    -0.083 Cl
HETATM   20  C   UNL     1      43.738 -20.317   1.652  1.00  0.00     0.025 A 
HETATM   21  C   UNL     1      44.044 -21.673   1.764  1.00  0.00     0.003 A 
HETATM   22  C   UNL     1      44.446 -22.191   2.993  1.00  0.00     0.025 A 
HETATM   23  C   UNL     1      44.545 -21.359   4.113  1.00  0.00     0.051 A 
HETATM   24 CL   UNL     1      44.994 -22.103   5.609  1.00  0.00    -0.083 Cl
ENDBRANCH  14  17
ENDBRANCH   1  13
TORSDOF 5
ENDMDL
MODEL 3
REMARK VINA RESULT:      -7.5      2.179      3.814
REMARK  5 active torsions:
REMARK  status: ('A' for Active; 'I' for Inactive)
REMARK    1  A    between atoms: C_2  and  O_3 
REMARK    2  A    between atoms: O_3  and  C_4 
REMARK    3  A    between atoms: C_8  and  C_9 
REMARK    4  A    between atoms: C_9  and  N_10 
REMARK       I    between atoms: N_10  and  C_11 
REMARK    5  A    between atoms: C_11  and  C_12 
ROOT
HETATM    1  C   UNL     1      41.824 -17.893   1.379  1.00  0.00     0.161 C 
ENDROOT
BRANCH   1   2
HETATM    2  C   UNL     1      41.237 -16.781   2.199  1.00  0.00    -0.035 A 
HETATM    3  C   UNL     1      40.120 -16.070   1.754  1.00  0.00     0.028 A 
HETATM    4  C   UNL     1      39.636 -15.039   2.544  1.00  0.00     0.120 A 
HETATM    5  N   UNL     1      40.180 -14.674   3.724  1.00  0.00    -0.237 NA
HETATM    6  C   UNL     1      41.256 -15.367   4.139  1.00  0.00     0.165 A 
HETATM    7  C   UNL     1      41.816 -16.410   3.415  1.00  0.00     0.066 A 
BRANCH   6   8
HETATM    8  O   UNL     1      41.864 -15.080   5.338  1.00  0.00    -0.324 OA
BRANCH   8   9
HETATM    9  C   UNL     1      42.792 -13.985   5.444  1.00  0.00     0.058 C 
HETATM   10  C   UNL     1      42.149 -12.704   5.993  1.00  0.00     0.045 C 
HETATM   11  C   UNL     1      43.559 -13.742   4.137  1.00  0.00     0.045 C 
HETATM   12  C   UNL     1      43.810 -14.474   6.494  1.00  0.00     0.045 C 
ENDBRANCH   8   9
ENDBRANCH   6   8
ENDBRANCH   1   2
BRANCH   1  13
HETATM   13  N   UNL     1      42.356 -18.936   2.222  1.00  0.00    -0.353 N 
HETATM   14  C   UNL     1      43.715 -19.121   2.333  1.00  0.00     0.255 C 
HETATM   15  O   UNL     1      44.550 -18.454   1.738  1.00  0.00    -0.268 OA
HETATM   16  H   UNL     1      41.713 -19.537   2.721  1.00  0.00     0.163 HD
BRANCH  14  17
HETATM   17  C   UNL     1      44.143 -20.192   3.253  1.00  0.00     0.075 A 
HETATM   18  C   UNL     1      44.415 -19.918   4.601  1.00  0.00     0.051 A 
HETATM   19 CL   UNL     1      44.296 -18.332   5.277  1.00  0.00    -0.083 Cl
HETATM   20  C   UNL     1      44.787 -20.953   5.466  1.00  0.00     0.025 A 
HETATM   21  C   UNL     1      44.882 -22.263   4.997  1.00  0.00     0.003 A 
HETATM   22  C   UNL     1      44.609 -22.540   3.659  1.00  0.00     0.025 A 
HETATM   23  C   UNL     1      44.241 -21.510   2.785  1.00  0.00     0.051 A 
HETATM   24 CL   UNL     1      43.981 -21.939   1.130  1.00  0.00    -0.083 Cl
ENDBRANCH  14  17
ENDBRANCH   1  13
TORSDOF 5
ENDMDL
MODEL 4
REMARK VINA RESULT:      -7.4      2.178      3.726
REMARK  5 active torsions:
REMARK  status: ('A' for Active; 'I' for Inactive)
REMARK    1  A    between atoms: C_2  and  O_3 
REMARK    2  A    between atoms: O_3  and  C_4 
REMARK    3  A    between atoms: C_8  and  C_9 
REMARK    4  A    between atoms: C_9  and  N_10 
REMARK       I    between atoms: N_10  and  C_11 
REMARK    5  A    between atoms: C_11  and  C_12 
ROOT
HETATM    1  C   UNL     1      41.785 -17.807   1.365  1.00  0.00     0.161 C 
ENDROOT
BRANCH   1   2
HETATM    2  C   UNL     1      41.188 -16.701   2.187  1.00  0.00    -0.035 A 
HETATM    3  C   UNL     1      40.077 -15.985   1.733  1.00  0.00     0.028 A 
HETATM    4  C   UNL     1      39.584 -14.960   2.525  1.00  0.00     0.120 A 
HETATM    5  N   UNL     1      40.113 -14.605   3.715  1.00  0.00    -0.237 NA
HETATM    6  C   UNL     1      41.182 -15.303   4.138  1.00  0.00     0.165 A 
HETATM    7  C   UNL     1      41.751 -16.341   3.413  1.00  0.00     0.066 A 
BRANCH   6   8
HETATM    8  O   UNL     1      41.774 -15.028   5.348  1.00  0.00    -0.324 OA
BRANCH   8   9
HETATM    9  C   UNL     1      42.860 -14.087   5.433  1.00  0.00     0.058 C 
HETATM   10  C   UNL     1      43.455 -13.732   4.063  1.00  0.00     0.045 C 
HETATM   11  C   UNL     1      43.931 -14.521   6.442  1.00  0.00     0.045 C 
HETATM   12  C   UNL     1      42.192 -12.812   5.986  1.00  0.00     0.045 C 
ENDBRANCH   8   9
ENDBRANCH   6   8
ENDBRANCH   1   2
BRANCH   1  13
HETATM   13  N   UNL     1      42.297 -18.862   2.206  1.00  0.00    -0.353 N 
HETATM   14  C   UNL     1      43.652 -19.058   2.334  1.00  0.00     0.255 C 
HETATM   15  O   UNL     1      44.501 -18.392   1.756  1.00  0.00    -0.268 OA
HETATM   16  H   UNL     1      41.642 -19.462   2.690  1.00  0.00     0.163 HD
BRANCH  14  17
HETATM   17  C   UNL     1      44.060 -20.140   3.250  1.00  0.00     0.075 A 
HETATM   18  C   UNL     1      44.225 -21.453   2.786  1.00  0.00     0.051 A 
HETATM   19 CL   UNL     1      43.947 -21.906   1.142  1.00  0.00    -0.083 Cl
HETATM   20  C   UNL     1      44.644 -22.459   3.663  1.00  0.00     0.025 A 
HETATM   21  C   UNL     1      44.910 -22.163   5.000  1.00  0.00     0.003 A 
HETATM   22  C   UNL     1      44.751 -20.859   5.464  1.00  0.00     0.025 A 
HETATM   23  C   UNL     1      44.326 -19.847   4.595  1.00  0.00     0.051 A 
HETATM   24 CL   UNL     1      44.099 -18.273   5.274  1.00  0.00    -0.083 Cl
ENDBRANCH  14  17
ENDBRANCH   1  13
TORSDOF 5
ENDMDL
MODEL 5
REMARK VINA RESULT:      -7.3      1.800      2.416
REMARK  5 active torsions:
REMARK  status: ('A' for Active; 'I' for Inactive)
REMARK    1  A    between atoms: C_2  and  O_3 
REMARK    2  A    between atoms: O_3  and  C_4 
REMARK    3  A    between atoms: C_8  and  C_9 
REMARK    4  A    between atoms: C_9  and  N_10 
REMARK       I    between atoms: N_10  and  C_11 
REMARK    5  A    between atoms: C_11  and  C_12 
ROOT
HETATM    1  C   UNL     1      42.183 -17.485   5.858  1.00  0.00     0.161 C 
ENDROOT
BRANCH   1   2
HETATM    2  C   UNL     1      41.365 -16.432   5.167  1.00  0.00    -0.035 A 
HETATM    3  C   UNL     1      40.768 -15.395   5.888  1.00  0.00     0.028 A 
HETATM    4  C   UNL     1      40.006 -14.465   5.198  1.00  0.00     0.120 A 
HETATM    5  N   UNL     1      39.800 -14.498   3.865  1.00  0.00    -0.237 NA
HETATM    6  C   UNL     1      40.380 -15.503   3.185  1.00  0.00     0.165 A 
HETATM    7  C   UNL     1      41.155 -16.485   3.787  1.00  0.00     0.066 A 
BRANCH   6   8
HETATM    8  O   UNL     1      40.244 -15.607   1.821  1.00  0.00    -0.324 OA
BRANCH   8   9
HETATM    9  C   UNL     1      40.846 -14.631   0.950  1.00  0.00     0.058 C 
HETATM   10  C   UNL     1      42.088 -13.967   1.561  1.00  0.00     0.045 C 
HETATM   11  C   UNL     1      39.829 -13.605   0.432  1.00  0.00     0.045 C 
HETATM   12  C   UNL     1      41.318 -15.465  -0.257  1.00  0.00     0.045 C 
ENDBRANCH   8   9
ENDBRANCH   6   8
ENDBRANCH   1   2
BRANCH   1  13
HETATM   13  N   UNL     1      42.528 -18.553   4.952  1.00  0.00    -0.353 N 
HETATM   14  C   UNL     1      43.846 -18.861   4.704  1.00  0.00     0.255 C 
HETATM   15  O   UNL     1      44.796 -18.267   5.198  1.00  0.00    -0.268 OA
HETATM   16  H   UNL     1      41.786 -19.064   4.494  1.00  0.00     0.163 HD
BRANCH  14  17
HETATM   17  C   UNL     1      44.078 -19.996   3.791  1.00  0.00     0.075 A 
HETATM   18  C   UNL     1      44.376 -21.272   4.290  1.00  0.00     0.051 A 
HETATM   19 CL   UNL     1      44.518 -21.608   5.980  1.00  0.00    -0.083 Cl
HETATM   20  C   UNL     1      44.561 -22.344   3.409  1.00  0.00     0.025 A 
HETATM   21  C   UNL     1      44.439 -22.154   2.033  1.00  0.00     0.003 A 
HETATM   22  C   UNL     1      44.140 -20.888   1.534  1.00  0.00     0.025 A 
HETATM   23  C   UNL     1      43.960 -19.809   2.407  1.00  0.00     0.051 A 
HETATM   24 CL   UNL     1      43.650 -18.264   1.693  1.00  0.00    -0.083 Cl
ENDBRANCH  14  17
ENDBRANCH   1  13
TORSDOF 5
ENDMDL
MODEL 6
REMARK VINA RESULT:      -7.3      1.786      3.078
REMARK  5 active torsions:
REMARK  status: ('A' for Active; 'I' for Inactive)
REMARK    1  A    between atoms: C_2  and  O_3 
REMARK    2  A    between atoms: O_3  and  C_4 
REMARK    3  A    between atoms: C_8  and  C_9 
REMARK    4  A    between atoms: C_9  and  N_10 
REMARK       I    between atoms: N_10  and  C_11 
REMARK    5  A    between atoms: C_11  and  C_12 
ROOT
HETATM    1  C   UNL     1      42.425 -17.260   5.783  1.00  0.00     0.161 C 
ENDROOT
BRANCH   1   2
HETATM    2  C   UNL     1      41.504 -16.290   5.100  1.00  0.00    -0.035 A 
HETATM    3  C   UNL     1      40.904 -15.246   5.809  1.00  0.00     0.028 A 
HETATM    4  C   UNL     1      40.045 -14.396   5.129  1.00  0.00     0.120 A 
HETATM    5  N   UNL     1      39.747 -14.514   3.818  1.00  0.00    -0.237 NA
HETATM    6  C   UNL     1      40.332 -15.525   3.150  1.00  0.00     0.165 A 
HETATM    7  C   UNL     1      41.200 -16.431   3.744  1.00  0.00     0.066 A 
BRANCH   6   8
HETATM    8  O   UNL     1      40.105 -15.711   1.807  1.00  0.00    -0.324 OA
BRANCH   8   9
HETATM    9  C   UNL     1      40.769 -14.884   0.833  1.00  0.00     0.058 C 
HETATM   10  C   UNL     1      41.910 -14.050   1.431  1.00  0.00     0.045 C 
HETATM   11  C   UNL     1      39.783 -14.033   0.022  1.00  0.00     0.045 C 
HETATM   12  C   UNL     1      41.405 -15.904  -0.134  1.00  0.00     0.045 C 
ENDBRANCH   8   9
ENDBRANCH   6   8
ENDBRANCH   1   2
BRANCH   1  13
HETATM   13  N   UNL     1      42.702 -18.396   4.939  1.00  0.00    -0.353 N 
HETATM   14  C   UNL     1      43.988 -18.864   4.797  1.00  0.00     0.255 C 
HETATM   15  O   UNL     1      44.965 -18.366   5.340  1.00  0.00    -0.268 OA
HETATM   16  H   UNL     1      41.937 -18.836   4.444  1.00  0.00     0.163 HD
BRANCH  14  17
HETATM   17  C   UNL     1      44.146 -20.055   3.939  1.00  0.00     0.075 A 
HETATM   18  C   UNL     1      44.108 -19.946   2.542  1.00  0.00     0.051 A 
HETATM   19 CL   UNL     1      43.853 -18.444   1.726  1.00  0.00    -0.083 Cl
HETATM   20  C   UNL     1      44.293 -21.081   1.745  1.00  0.00     0.025 A 
HETATM   21  C   UNL     1      44.526 -22.324   2.333  1.00  0.00     0.003 A 
HETATM   22  C   UNL     1      44.568 -22.435   3.721  1.00  0.00     0.025 A 
HETATM   23  C   UNL     1      44.379 -21.307   4.526  1.00  0.00     0.051 A 
HETATM   24 CL   UNL     1      44.389 -21.552   6.238  1.00  0.00    -0.083 Cl
ENDBRANCH  14  17
ENDBRANCH   1  13
TORSDOF 5
ENDMDL
MODEL 7
REMARK VINA RESULT:      -6.9      1.966      2.758
REMARK  5 active torsions:
REMARK  status: ('A' for Active; 'I' for Inactive)
REMARK    1  A    between atoms: C_2  and  O_3 
REMARK    2  A    between atoms: O_3  and  C_4 
REMARK    3  A    between atoms: C_8  and  C_9 
REMARK    4  A    between atoms: C_9  and  N_10 
REMARK       I    between atoms: N_10  and  C_11 
REMARK    5  A    between atoms: C_11  and  C_12 
ROOT
HETATM    1  C   UNL     1      42.092 -17.386   6.021  1.00  0.00     0.161 C 
ENDROOT
BRANCH   1   2
HETATM    2  C   UNL     1      41.315 -16.389   5.210  1.00  0.00    -0.035 A 
HETATM    3  C   UNL     1      41.273 -16.470   3.816  1.00  0.00     0.028 A 
HETATM    4  C   UNL     1      40.558 -15.508   3.121  1.00  0.00     0.120 A 
HETATM    5  N   UNL     1      39.897 -14.488   3.708  1.00  0.00    -0.237 NA
HETATM    6  C   UNL     1      39.948 -14.423   5.050  1.00  0.00     0.165 A 
HETATM    7  C   UNL     1      40.642 -15.335   5.833  1.00  0.00     0.066 A 
BRANCH   6   8
HETATM    8  O   UNL     1      39.286 -13.432   5.737  1.00  0.00    -0.324 OA
BRANCH   8   9
HETATM    9  C   UNL     1      39.888 -12.135   5.908  1.00  0.00     0.058 C 
HETATM   10  C   UNL     1      41.361 -12.096   5.479  1.00  0.00     0.045 C 
HETATM   11  C   UNL     1      39.675 -11.575   7.321  1.00  0.00     0.045 C 
HETATM   12  C   UNL     1      39.101 -11.239   4.931  1.00  0.00     0.045 C 
ENDBRANCH   8   9
ENDBRANCH   6   8
ENDBRANCH   1   2
BRANCH   1  13
HETATM   13  N   UNL     1      42.498 -18.510   5.213  1.00  0.00    -0.353 N 
HETATM   14  C   UNL     1      43.832 -18.784   5.017  1.00  0.00     0.255 C 
HETATM   15  O   UNL     1      44.746 -18.116   5.479  1.00  0.00    -0.268 OA
HETATM   16  H   UNL     1      41.786 -19.086   4.783  1.00  0.00     0.163 HD
BRANCH  14  17
HETATM   17  C   UNL     1      44.127 -19.980   4.205  1.00  0.00     0.075 A 
HETATM   18  C   UNL     1      44.322 -21.231   4.808  1.00  0.00     0.051 A 
HETATM   19 CL   UNL     1      44.257 -21.465   6.520  1.00  0.00    -0.083 Cl
HETATM   20  C   UNL     1      44.569 -22.360   4.019  1.00  0.00     0.025 A 
HETATM   21  C   UNL     1      44.613 -22.252   2.630  1.00  0.00     0.003 A 
HETATM   22  C   UNL     1      44.417 -21.011   2.026  1.00  0.00     0.025 A 
HETATM   23  C   UNL     1      44.175 -19.876   2.807  1.00  0.00     0.051 A 
HETATM   24 CL   UNL     1      44.003 -18.370   1.974  1.00  0.00    -0.083 Cl
ENDBRANCH  14  17
ENDBRANCH   1  13
TORSDOF 5
ENDMDL
MODEL 8
REMARK VINA RESULT:      -6.9      3.639      4.858
REMARK  5 active torsions:
REMARK  status: ('A' for Active; 'I' for Inactive)
REMARK    1  A    between atoms: C_2  and  O_3 
REMARK    2  A    between atoms: O_3  and  C_4 
REMARK    3  A    between atoms: C_8  and  C_9 
REMARK    4  A    between atoms: C_9  and  N_10 
REMARK       I    between atoms: N_10  and  C_11 
REMARK    5  A    between atoms: C_11  and  C_12 
ROOT
HETATM    1  C   UNL     1      40.777 -15.757   3.211  1.00  0.00     0.161 C 
ENDROOT
BRANCH   1   2
HETATM    2  C   UNL     1      41.133 -14.972   1.981  1.00  0.00    -0.035 A 
HETATM    3  C   UNL     1      41.624 -13.667   2.076  1.00  0.00     0.028 A 
HETATM    4  C   UNL     1      41.914 -12.985   0.906  1.00  0.00     0.120 A 
HETATM    5  N   UNL     1      41.749 -13.502  -0.330  1.00  0.00    -0.237 NA
HETATM    6  C   UNL     1      41.275 -14.758  -0.405  1.00  0.00     0.165 A 
HETATM    7  C   UNL     1      40.950 -15.519   0.709  1.00  0.00     0.066 A 
BRANCH   6   8
HETATM    8  O   UNL     1      41.095 -15.376  -1.620  1.00  0.00    -0.324 OA
BRANCH   8   9
HETATM    9  C   UNL     1      40.253 -14.781  -2.625  1.00  0.00     0.058 C 
HETATM   10  C   UNL     1      41.007 -13.806  -3.539  1.00  0.00     0.045 C 
HETATM   11  C   UNL     1      38.982 -14.162  -2.029  1.00  0.00     0.045 C 
HETATM   12  C   UNL     1      39.822 -15.982  -3.492  1.00  0.00     0.045 C 
ENDBRANCH   8   9
ENDBRANCH   6   8
ENDBRANCH   1   2
BRANCH   1  13
HETATM   13  N   UNL     1      41.560 -16.965   3.301  1.00  0.00    -0.353 N 
HETATM   14  C   UNL     1      42.838 -16.933   3.811  1.00  0.00     0.255 C 
HETATM   15  O   UNL     1      43.399 -15.917   4.198  1.00  0.00    -0.268 OA
HETATM   16  H   UNL     1      41.159 -17.834   2.974  1.00  0.00     0.163 HD
BRANCH  14  17
HETATM   17  C   UNL     1      43.529 -18.235   3.891  1.00  0.00     0.075 A 
HETATM   18  C   UNL     1      43.715 -18.877   5.123  1.00  0.00     0.051 A 
HETATM   19 CL   UNL     1      43.182 -18.200   6.622  1.00  0.00    -0.083 Cl
HETATM   20  C   UNL     1      44.343 -20.126   5.175  1.00  0.00     0.025 A 
HETATM   21  C   UNL     1      44.779 -20.745   4.004  1.00  0.00     0.003 A 
HETATM   22  C   UNL     1      44.593 -20.111   2.777  1.00  0.00     0.025 A 
HETATM   23  C   UNL     1      43.971 -18.859   2.716  1.00  0.00     0.051 A 
HETATM   24 CL   UNL     1      43.837 -18.123   1.156  1.00  0.00    -0.083 Cl
ENDBRANCH  14  17
ENDBRANCH   1  13
TORSDOF 5
ENDMDL
MODEL 9
REMARK VINA RESULT:      -6.8      2.912      3.993
REMARK  5 active torsions:
REMARK  status: ('A' for Active; 'I' for Inactive)
REMARK    1  A    between atoms: C_2  and  O_3 
REMARK    2  A    between atoms: O_3  and  C_4 
REMARK    3  A    between atoms: C_8  and  C_9 
REMARK    4  A    between atoms: C_9  and  N_10 
REMARK       I    between atoms: N_10  and  C_11 
REMARK    5  A    between atoms: C_11  and  C_12 
ROOT
HETATM    1  C   UNL     1      42.790 -14.853   4.291  1.00  0.00     0.161 C 
ENDROOT
BRANCH   1   2
HETATM    2  C   UNL     1      41.748 -14.333   3.344  1.00  0.00    -0.035 A 
HETATM    3  C   UNL     1      40.390 -14.375   3.673  1.00  0.00     0.028 A 
HETATM    4  C   UNL     1      39.473 -13.900   2.749  1.00  0.00     0.120 A 
HETATM    5  N   UNL     1      39.808 -13.398   1.542  1.00  0.00    -0.237 NA
HETATM    6  C   UNL     1      41.119 -13.364   1.240  1.00  0.00     0.165 A 
HETATM    7  C   UNL     1      42.111 -13.822   2.096  1.00  0.00     0.066 A 
BRANCH   6   8
HETATM    8  O   UNL     1      41.557 -12.849   0.043  1.00  0.00    -0.324 OA
BRANCH   8   9
HETATM    9  C   UNL     1      41.209 -13.488  -1.199  1.00  0.00     0.058 C 
HETATM   10  C   UNL     1      39.942 -12.906  -1.840  1.00  0.00     0.045 C 
HETATM   11  C   UNL     1      41.152 -15.017  -1.072  1.00  0.00     0.045 C 
HETATM   12  C   UNL     1      42.392 -13.144  -2.127  1.00  0.00     0.045 C 
ENDBRANCH   8   9
ENDBRANCH   6   8
ENDBRANCH   1   2
BRANCH   1  13
HETATM   13  N   UNL     1      43.323 -16.114   3.837  1.00  0.00    -0.353 N 
HETATM   14  C   UNL     1      42.772 -17.300   4.263  1.00  0.00     0.255 C 
HETATM   15  O   UNL     1      41.834 -17.381   5.045  1.00  0.00    -0.268 OA
HETATM   16  H   UNL     1      44.115 -16.112   3.208  1.00  0.00     0.163 HD
BRANCH  14  17
HETATM   17  C   UNL     1      43.374 -18.525   3.703  1.00  0.00     0.075 A 
HETATM   18  C   UNL     1      44.328 -19.255   4.425  1.00  0.00     0.051 A 
HETATM   19 CL   UNL     1      44.886 -18.776   5.990  1.00  0.00    -0.083 Cl
HETATM   20  C   UNL     1      44.864 -20.432   3.890  1.00  0.00     0.025 A 
HETATM   21  C   UNL     1      44.445 -20.893   2.643  1.00  0.00     0.003 A 
HETATM   22  C   UNL     1      43.493 -20.173   1.923  1.00  0.00     0.025 A 
HETATM   23  C   UNL     1      42.957 -18.991   2.447  1.00  0.00     0.051 A 
HETATM   24 CL   UNL     1      41.827 -18.134   1.457  1.00  0.00    -0.083 Cl
ENDBRANCH  14  17
ENDBRANCH   1  13
TORSDOF 5
ENDMDL
MODEL 10
REMARK VINA RESULT:      -6.8      2.145      3.140
REMARK  5 active torsions:
REMARK  status: ('A' for Active; 'I' for Inactive)
REMARK    1  A    between atoms: C_2  and  O_3 
REMARK    2  A    between atoms: O_3  and  C_4 
REMARK    3  A    between atoms: C_8  and  C_9 
REMARK    4  A    between atoms: C_9  and  N_10 
REMARK       I    between atoms: N_10  and  C_11 
REMARK    5  A    between atoms: C_11  and  C_12 
ROOT
HETATM    1  C   UNL     1      41.613 -16.491   5.177  1.00  0.00     0.161 C 
ENDROOT
BRANCH   1   2
HETATM    2  C   UNL     1      41.691 -15.586   3.981  1.00  0.00    -0.035 A 
HETATM    3  C   UNL     1      42.797 -14.758   3.775  1.00  0.00     0.028 A 
HETATM    4  C   UNL     1      42.802 -13.929   2.664  1.00  0.00     0.120 A 
HETATM    5  N   UNL     1      41.799 -13.868   1.763  1.00  0.00    -0.237 NA
HETATM    6  C   UNL     1      40.741 -14.671   1.976  1.00  0.00     0.165 A 
HETATM    7  C   UNL     1      40.641 -15.530   3.061  1.00  0.00     0.066 A 
BRANCH   6   8
HETATM    8  O   UNL     1      39.681 -14.693   1.100  1.00  0.00    -0.324 OA
BRANCH   8   9
HETATM    9  C   UNL     1      38.840 -13.536   0.940  1.00  0.00     0.058 C 
HETATM   10  C   UNL     1      39.157 -12.735  -0.330  1.00  0.00     0.045 C 
HETATM   11  C   UNL     1      38.814 -12.656   2.197  1.00  0.00     0.045 C 
HETATM   12  C   UNL     1      37.430 -14.136   0.765  1.00  0.00     0.045 C 
ENDBRANCH   8   9
ENDBRANCH   6   8
ENDBRANCH   1   2
BRANCH   1  13
HETATM   13  N   UNL     1      42.192 -17.781   4.892  1.00  0.00    -0.353 N 
HETATM   14  C   UNL     1      43.493 -18.057   5.246  1.00  0.00     0.255 C 
HETATM   15  O   UNL     1      44.241 -17.258   5.793  1.00  0.00    -0.268 OA
HETATM   16  H   UNL     1      41.630 -18.475   4.418  1.00  0.00     0.163 HD
BRANCH  14  17
HETATM   17  C   UNL     1      43.965 -19.421   4.940  1.00  0.00     0.075 A 
HETATM   18  C   UNL     1      44.101 -20.381   5.952  1.00  0.00     0.051 A 
HETATM   19 CL   UNL     1      43.756 -20.045   7.613  1.00  0.00    -0.083 Cl
HETATM   20  C   UNL     1      44.518 -21.679   5.638  1.00  0.00     0.025 A 
HETATM   21  C   UNL     1      44.792 -22.029   4.316  1.00  0.00     0.003 A 
HETATM   22  C   UNL     1      44.655 -21.079   3.306  1.00  0.00     0.025 A 
HETATM   23  C   UNL     1      44.244 -19.777   3.612  1.00  0.00     0.051 A 
HETATM   24 CL   UNL     1      44.160 -18.650   2.302  1.00  0.00    -0.083 Cl
ENDBRANCH  14  17
ENDBRANCH   1  13
TORSDOF 5
ENDMDL
