MODEL 1
REMARK VINA RESULT:      -9.9      0.000      0.000
REMARK  8 active torsions:
REMARK  status: ('A' for Active; 'I' for Inactive)
REMARK    1  A    between atoms: C_4  and  S_5 
REMARK    2  A    between atoms: S_5  and  C_6 
REMARK    3  A    between atoms: C_6  and  C_7 
REMARK       I    between atoms: C_7  and  N_8 
REMARK    4  A    between atoms: N_8  and  C_9 
REMARK    5  A    between atoms: C_20  and  C_21 
REMARK    6  A    between atoms: C_27  and  C_28 
REMARK       I    between atoms: C_28  and  N_29 
REMARK    7  A    between atoms: N_29  and  C_30 
REMARK    8  A    between atoms: C_31  and  O_32 
ROOT
HETATM    1  C   UNL     1      44.258 -15.134   6.919  1.00  0.00     0.069 C 
HETATM    2  C   UNL     1      43.045 -14.498   6.290  1.00  0.00     0.019 C 
HETATM    3  N   UNL     1      42.795 -13.188   6.632  1.00  0.00    -0.353 N 
HETATM    4  C   UNL     1      41.724 -12.433   6.191  1.00  0.00     0.088 C 
HETATM    5  C   UNL     1      40.885 -12.938   5.250  1.00  0.00     0.069 C 
HETATM    6  C   UNL     1      39.808 -12.176   4.698  1.00  0.00     0.099 C 
HETATM    7  N   UNL     1      38.932 -11.545   4.269  1.00  0.00    -0.192 NA
HETATM    8  C   UNL     1      40.998 -14.414   4.834  1.00  0.00     0.106 C 
HETATM    9  C   UNL     1      42.188 -15.125   5.458  1.00  0.00     0.046 C 
HETATM   10  H   UNL     1      43.441 -12.713   7.255  1.00  0.00     0.166 HD
ENDROOT
BRANCH   4  11
HETATM   11  S   UNL     1      41.508 -10.856   6.927  1.00  0.00    -0.102 SA
BRANCH  11  12
HETATM   12  C   UNL     1      40.214 -11.134   8.178  1.00  0.00     0.184 C 
BRANCH  12  13
HETATM   13  C   UNL     1      40.457 -10.465   9.525  1.00  0.00     0.231 C 
HETATM   14  N   UNL     1      41.143 -11.245  10.437  1.00  0.00    -0.325 N 
HETATM   15  H   UNL     1      41.302 -12.221  10.207  1.00  0.00     0.169 HD
HETATM   16  O   UNL     1      40.071  -9.317   9.739  1.00  0.00    -0.272 OA
BRANCH  14  17
HETATM   17  C   UNL     1      41.655 -10.835  11.698  1.00  0.00     0.056 A 
HETATM   18  C   UNL     1      42.975 -10.350  11.766  1.00  0.00     0.060 A 
HETATM   19 CL   UNL     1      43.973 -10.289  10.352  1.00  0.00    -0.082 Cl
HETATM   20  C   UNL     1      43.518  -9.900  12.974  1.00  0.00     0.026 A 
HETATM   21  C   UNL     1      42.748  -9.926  14.136  1.00  0.00     0.002 A 
HETATM   22  C   UNL     1      41.443 -10.401  14.086  1.00  0.00     0.002 A 
HETATM   23  C   UNL     1      40.900 -10.851  12.876  1.00  0.00     0.031 A 
ENDBRANCH  14  17
ENDBRANCH  12  13
ENDBRANCH  11  12
ENDBRANCH   4  11
BRANCH   8  24
HETATM   24  C   UNL     1      40.910 -14.601   3.321  1.00  0.00    -0.044 A 
HETATM   25  C   UNL     1      39.845 -15.284   2.717  1.00  0.00     0.008 A 
HETATM   26  C   UNL     1      39.809 -15.452   1.331  1.00  0.00     0.001 A 
HETATM   27  C   UNL     1      40.838 -14.951   0.534  1.00  0.00     0.000 A 
HETATM   28  C   UNL     1      41.907 -14.280   1.121  1.00  0.00     0.001 A 
HETATM   29  C   UNL     1      41.943 -14.105   2.505  1.00  0.00     0.008 A 
ENDBRANCH   8  24
BRANCH   9  30
HETATM   30  C   UNL     1      42.305 -16.594   5.276  1.00  0.00     0.255 C 
HETATM   31  N   UNL     1      43.252 -16.868   4.308  1.00  0.00    -0.321 N 
HETATM   32  H   UNL     1      43.634 -16.057   3.836  1.00  0.00     0.169 HD
HETATM   33  O   UNL     1      41.519 -17.339   5.838  1.00  0.00    -0.268 OA
BRANCH  31  34
HETATM   34  C   UNL     1      43.614 -18.111   3.741  1.00  0.00     0.068 A 
HETATM   35  C   UNL     1      44.299 -19.153   4.379  1.00  0.00     0.095 A 
HETATM   36  C   UNL     1      44.584 -20.338   3.682  1.00  0.00     0.039 A 
HETATM   37  C   UNL     1      44.175 -20.502   2.360  1.00  0.00     0.003 A 
HETATM   38  C   UNL     1      43.507 -19.470   1.713  1.00  0.00     0.002 A 
HETATM   39  C   UNL     1      43.240 -18.281   2.394  1.00  0.00     0.032 A 
BRANCH  35  40
HETATM   40  O   UNL     1      44.852 -18.978   5.618  1.00  0.00    -0.354 OA
HETATM   41  C   UNL     1      44.095 -19.627   6.640  1.00  0.00     0.210 C 
ENDBRANCH  35  40
ENDBRANCH  31  34
ENDBRANCH   9  30
TORSDOF 8
ENDMDL
MODEL 2
REMARK VINA RESULT:      -9.7      4.750      8.596
REMARK  8 active torsions:
REMARK  status: ('A' for Active; 'I' for Inactive)
REMARK    1  A    between atoms: C_4  and  S_5 
REMARK    2  A    between atoms: S_5  and  C_6 
REMARK    3  A    between atoms: C_6  and  C_7 
REMARK       I    between atoms: C_7  and  N_8 
REMARK    4  A    between atoms: N_8  and  C_9 
REMARK    5  A    between atoms: C_20  and  C_21 
REMARK    6  A    between atoms: C_27  and  C_28 
REMARK       I    between atoms: C_28  and  N_29 
REMARK    7  A    between atoms: N_29  and  C_30 
REMARK    8  A    between atoms: C_31  and  O_32 
ROOT
HETATM    1  C   UNL     1      40.578 -17.185   1.049  1.00  0.00     0.069 C 
HETATM    2  C   UNL     1      40.940 -16.138   2.071  1.00  0.00     0.019 C 
HETATM    3  N   UNL     1      40.073 -15.075   2.191  1.00  0.00    -0.353 N 
HETATM    4  C   UNL     1      40.234 -14.000   3.045  1.00  0.00     0.088 C 
HETATM    5  C   UNL     1      41.252 -13.999   3.944  1.00  0.00     0.069 C 
HETATM    6  C   UNL     1      41.422 -12.952   4.905  1.00  0.00     0.099 C 
HETATM    7  N   UNL     1      41.551 -12.090   5.671  1.00  0.00    -0.192 NA
HETATM    8  C   UNL     1      42.340 -15.083   3.873  1.00  0.00     0.106 C 
HETATM    9  C   UNL     1      42.051 -16.157   2.837  1.00  0.00     0.046 C 
HETATM   10  H   UNL     1      39.235 -15.061   1.618  1.00  0.00     0.166 HD
ENDROOT
BRANCH   4  11
HETATM   11  S   UNL     1      39.103 -12.671   2.868  1.00  0.00    -0.102 SA
BRANCH  11  12
HETATM   12  C   UNL     1      39.235 -12.219   1.109  1.00  0.00     0.184 C 
BRANCH  12  13
HETATM   13  C   UNL     1      38.670 -13.242   0.131  1.00  0.00     0.231 C 
HETATM   14  N   UNL     1      39.199 -13.169  -1.144  1.00  0.00    -0.325 N 
HETATM   15  H   UNL     1      39.796 -12.379  -1.370  1.00  0.00     0.169 HD
HETATM   16  O   UNL     1      37.823 -14.058   0.490  1.00  0.00    -0.272 OA
BRANCH  14  17
HETATM   17  C   UNL     1      38.993 -14.089  -2.208  1.00  0.00     0.056 A 
HETATM   18  C   UNL     1      40.012 -15.012  -2.510  1.00  0.00     0.060 A 
HETATM   19 CL   UNL     1      41.504 -15.009  -1.631  1.00  0.00    -0.082 Cl
HETATM   20  C   UNL     1      39.847 -15.963  -3.523  1.00  0.00     0.026 A 
HETATM   21  C   UNL     1      38.660 -16.006  -4.252  1.00  0.00     0.002 A 
HETATM   22  C   UNL     1      37.644 -15.100  -3.967  1.00  0.00     0.002 A 
HETATM   23  C   UNL     1      37.809 -14.150  -2.952  1.00  0.00     0.031 A 
ENDBRANCH  14  17
ENDBRANCH  12  13
ENDBRANCH  11  12
ENDBRANCH   4  11
BRANCH   8  24
HETATM   24  C   UNL     1      42.689 -15.649   5.247  1.00  0.00    -0.044 A 
HETATM   25  C   UNL     1      43.913 -15.375   5.875  1.00  0.00     0.008 A 
HETATM   26  C   UNL     1      44.205 -15.927   7.124  1.00  0.00     0.001 A 
HETATM   27  C   UNL     1      43.287 -16.765   7.756  1.00  0.00     0.000 A 
HETATM   28  C   UNL     1      42.072 -17.054   7.139  1.00  0.00     0.001 A 
HETATM   29  C   UNL     1      41.775 -16.500   5.894  1.00  0.00     0.008 A 
ENDBRANCH   8  24
BRANCH   9  30
HETATM   30  C   UNL     1      43.108 -17.160   2.548  1.00  0.00     0.255 C 
HETATM   31  N   UNL     1      42.700 -18.405   2.988  1.00  0.00    -0.321 N 
HETATM   32  H   UNL     1      41.822 -18.418   3.493  1.00  0.00     0.169 HD
HETATM   33  O   UNL     1      44.193 -16.792   2.129  1.00  0.00    -0.268 OA
BRANCH  31  34
HETATM   34  C   UNL     1      43.420 -19.620   3.015  1.00  0.00     0.068 A 
HETATM   35  C   UNL     1      44.202 -20.105   4.072  1.00  0.00     0.095 A 
HETATM   36  C   UNL     1      44.857 -21.341   3.953  1.00  0.00     0.039 A 
HETATM   37  C   UNL     1      44.726 -22.108   2.797  1.00  0.00     0.003 A 
HETATM   38  C   UNL     1      43.966 -21.630   1.736  1.00  0.00     0.002 A 
HETATM   39  C   UNL     1      43.329 -20.392   1.842  1.00  0.00     0.032 A 
BRANCH  35  40
HETATM   40  O   UNL     1      44.482 -19.322   5.159  1.00  0.00    -0.354 OA
HETATM   41  C   UNL     1      44.134 -19.962   6.386  1.00  0.00     0.210 C 
ENDBRANCH  35  40
ENDBRANCH  31  34
ENDBRANCH   9  30
TORSDOF 8
ENDMDL
MODEL 3
REMARK VINA RESULT:      -9.5      1.285      2.111
REMARK  8 active torsions:
REMARK  status: ('A' for Active; 'I' for Inactive)
REMARK    1  A    between atoms: C_4  and  S_5 
REMARK    2  A    between atoms: S_5  and  C_6 
REMARK    3  A    between atoms: C_6  and  C_7 
REMARK       I    between atoms: C_7  and  N_8 
REMARK    4  A    between atoms: N_8  and  C_9 
REMARK    5  A    between atoms: C_20  and  C_21 
REMARK    6  A    between atoms: C_27  and  C_28 
REMARK       I    between atoms: C_28  and  N_29 
REMARK    7  A    between atoms: N_29  and  C_30 
REMARK    8  A    between atoms: C_31  and  O_32 
ROOT
HETATM    1  C   UNL     1      43.926 -14.905   6.613  1.00  0.00     0.069 C 
HETATM    2  C   UNL     1      42.724 -14.218   6.016  1.00  0.00     0.019 C 
HETATM    3  N   UNL     1      42.503 -12.918   6.412  1.00  0.00    -0.353 N 
HETATM    4  C   UNL     1      41.448 -12.124   6.006  1.00  0.00     0.088 C 
HETATM    5  C   UNL     1      40.596 -12.571   5.048  1.00  0.00     0.069 C 
HETATM    6  C   UNL     1      39.533 -11.764   4.532  1.00  0.00     0.099 C 
HETATM    7  N   UNL     1      38.671 -11.098   4.131  1.00  0.00    -0.192 NA
HETATM    8  C   UNL     1      40.676 -14.031   4.570  1.00  0.00     0.106 C 
HETATM    9  C   UNL     1      41.852 -14.793   5.161  1.00  0.00     0.046 C 
HETATM   10  H   UNL     1      43.161 -12.484   7.052  1.00  0.00     0.166 HD
ENDROOT
BRANCH   4  11
HETATM   11  S   UNL     1      41.267 -10.574   6.807  1.00  0.00    -0.102 SA
BRANCH  11  12
HETATM   12  C   UNL     1      40.159 -10.935   8.207  1.00  0.00     0.184 C 
BRANCH  12  13
HETATM   13  C   UNL     1      40.496 -10.213   9.506  1.00  0.00     0.231 C 
HETATM   14  N   UNL     1      41.255 -10.953  10.393  1.00  0.00    -0.325 N 
HETATM   15  H   UNL     1      41.406 -11.936  10.189  1.00  0.00     0.169 HD
HETATM   16  O   UNL     1      40.116  -9.060   9.704  1.00  0.00    -0.272 OA
BRANCH  14  17
HETATM   17  C   UNL     1      41.855 -10.490  11.596  1.00  0.00     0.056 A 
HETATM   18  C   UNL     1      41.362 -10.968  12.824  1.00  0.00     0.060 A 
HETATM   19 CL   UNL     1      40.026 -12.068  12.879  1.00  0.00    -0.082 Cl
HETATM   20  C   UNL     1      41.939 -10.573  14.037  1.00  0.00     0.026 A 
HETATM   21  C   UNL     1      43.020  -9.694  14.039  1.00  0.00     0.002 A 
HETATM   22  C   UNL     1      43.519  -9.212  12.834  1.00  0.00     0.002 A 
HETATM   23  C   UNL     1      42.942  -9.608  11.621  1.00  0.00     0.031 A 
ENDBRANCH  14  17
ENDBRANCH  12  13
ENDBRANCH  11  12
ENDBRANCH   4  11
BRANCH   8  24
HETATM   24  C   UNL     1      40.581 -14.153   3.052  1.00  0.00    -0.044 A 
HETATM   25  C   UNL     1      41.626 -13.753   2.206  1.00  0.00     0.008 A 
HETATM   26  C   UNL     1      41.494 -13.862   0.820  1.00  0.00     0.001 A 
HETATM   27  C   UNL     1      40.318 -14.359   0.262  1.00  0.00     0.000 A 
HETATM   28  C   UNL     1      39.268 -14.751   1.089  1.00  0.00     0.001 A 
HETATM   29  C   UNL     1      39.398 -14.649   2.473  1.00  0.00     0.008 A 
ENDBRANCH   8  24
BRANCH   9  30
HETATM   30  C   UNL     1      41.938 -16.255   4.918  1.00  0.00     0.255 C 
HETATM   31  N   UNL     1      43.020 -16.528   4.103  1.00  0.00    -0.321 N 
HETATM   32  H   UNL     1      43.507 -15.715   3.746  1.00  0.00     0.169 HD
HETATM   33  O   UNL     1      41.040 -16.986   5.301  1.00  0.00    -0.268 OA
BRANCH  31  34
HETATM   34  C   UNL     1      43.419 -17.758   3.533  1.00  0.00     0.068 A 
HETATM   35  C   UNL     1      43.273 -18.145   2.194  1.00  0.00     0.095 A 
HETATM   36  C   UNL     1      43.727 -19.405   1.773  1.00  0.00     0.039 A 
HETATM   37  C   UNL     1      44.341 -20.277   2.671  1.00  0.00     0.003 A 
HETATM   38  C   UNL     1      44.477 -19.910   4.004  1.00  0.00     0.002 A 
HETATM   39  C   UNL     1      44.009 -18.666   4.432  1.00  0.00     0.032 A 
BRANCH  35  40
HETATM   40  O   UNL     1      42.542 -17.390   1.318  1.00  0.00    -0.354 OA
HETATM   41  C   UNL     1      41.167 -17.771   1.299  1.00  0.00     0.210 C 
ENDBRANCH  35  40
ENDBRANCH  31  34
ENDBRANCH   9  30
TORSDOF 8
ENDMDL
MODEL 4
REMARK VINA RESULT:      -9.4      4.717      8.056
REMARK  8 active torsions:
REMARK  status: ('A' for Active; 'I' for Inactive)
REMARK    1  A    between atoms: C_4  and  S_5 
REMARK    2  A    between atoms: S_5  and  C_6 
REMARK    3  A    between atoms: C_6  and  C_7 
REMARK       I    between atoms: C_7  and  N_8 
REMARK    4  A    between atoms: N_8  and  C_9 
REMARK    5  A    between atoms: C_20  and  C_21 
REMARK    6  A    between atoms: C_27  and  C_28 
REMARK       I    between atoms: C_28  and  N_29 
REMARK    7  A    between atoms: N_29  and  C_30 
REMARK    8  A    between atoms: C_31  and  O_32 
ROOT
HETATM    1  C   UNL     1      40.760 -17.204   0.952  1.00  0.00     0.069 C 
HETATM    2  C   UNL     1      41.109 -16.187   2.009  1.00  0.00     0.019 C 
HETATM    3  N   UNL     1      40.271 -15.100   2.112  1.00  0.00    -0.353 N 
HETATM    4  C   UNL     1      40.427 -14.046   2.993  1.00  0.00     0.088 C 
HETATM    5  C   UNL     1      41.404 -14.094   3.936  1.00  0.00     0.069 C 
HETATM    6  C   UNL     1      41.564 -13.071   4.923  1.00  0.00     0.099 C 
HETATM    7  N   UNL     1      41.686 -12.227   5.710  1.00  0.00    -0.192 NA
HETATM    8  C   UNL     1      42.460 -15.211   3.890  1.00  0.00     0.106 C 
HETATM    9  C   UNL     1      42.184 -16.256   2.822  1.00  0.00     0.046 C 
HETATM   10  H   UNL     1      39.459 -15.049   1.504  1.00  0.00     0.166 HD
ENDROOT
BRANCH   4  11
HETATM   11  S   UNL     1      39.347 -12.679   2.794  1.00  0.00    -0.102 SA
BRANCH  11  12
HETATM   12  C   UNL     1      40.437 -11.346   2.201  1.00  0.00     0.184 C 
BRANCH  12  13
HETATM   13  C   UNL     1      41.273 -11.688   0.974  1.00  0.00     0.231 C 
HETATM   14  N   UNL     1      40.646 -11.444  -0.234  1.00  0.00    -0.325 N 
HETATM   15  H   UNL     1      39.660 -11.201  -0.220  1.00  0.00     0.169 HD
HETATM   16  O   UNL     1      42.415 -12.130   1.091  1.00  0.00    -0.272 OA
BRANCH  14  17
HETATM   17  C   UNL     1      41.231 -11.504  -1.528  1.00  0.00     0.056 A 
HETATM   18  C   UNL     1      41.168 -12.716  -2.242  1.00  0.00     0.060 A 
HETATM   19 CL   UNL     1      40.427 -14.119  -1.548  1.00  0.00    -0.082 Cl
HETATM   20  C   UNL     1      41.696 -12.821  -3.533  1.00  0.00     0.026 A 
HETATM   21  C   UNL     1      42.296 -11.715  -4.132  1.00  0.00     0.002 A 
HETATM   22  C   UNL     1      42.367 -10.511  -3.441  1.00  0.00     0.002 A 
HETATM   23  C   UNL     1      41.838 -10.406  -2.148  1.00  0.00     0.031 A 
ENDBRANCH  14  17
ENDBRANCH  12  13
ENDBRANCH  11  12
ENDBRANCH   4  11
BRANCH   8  24
HETATM   24  C   UNL     1      42.732 -15.813   5.267  1.00  0.00    -0.044 A 
HETATM   25  C   UNL     1      43.958 -15.640   5.925  1.00  0.00     0.008 A 
HETATM   26  C   UNL     1      44.176 -16.223   7.176  1.00  0.00     0.001 A 
HETATM   27  C   UNL     1      43.180 -16.990   7.778  1.00  0.00     0.000 A 
HETATM   28  C   UNL     1      41.961 -17.178   7.131  1.00  0.00     0.001 A 
HETATM   29  C   UNL     1      41.738 -16.593   5.885  1.00  0.00     0.008 A 
ENDBRANCH   8  24
BRANCH   9  30
HETATM   30  C   UNL     1      43.221 -17.286   2.559  1.00  0.00     0.255 C 
HETATM   31  N   UNL     1      42.775 -18.517   3.000  1.00  0.00    -0.321 N 
HETATM   32  H   UNL     1      41.888 -18.506   3.490  1.00  0.00     0.169 HD
HETATM   33  O   UNL     1      44.322 -16.948   2.157  1.00  0.00    -0.268 OA
BRANCH  31  34
HETATM   34  C   UNL     1      43.465 -19.750   3.049  1.00  0.00     0.068 A 
HETATM   35  C   UNL     1      44.189 -20.260   4.135  1.00  0.00     0.095 A 
HETATM   36  C   UNL     1      44.820 -21.510   4.035  1.00  0.00     0.039 A 
HETATM   37  C   UNL     1      44.720 -22.266   2.868  1.00  0.00     0.003 A 
HETATM   38  C   UNL     1      44.017 -21.764   1.780  1.00  0.00     0.002 A 
HETATM   39  C   UNL     1      43.405 -20.512   1.867  1.00  0.00     0.032 A 
BRANCH  35  40
HETATM   40  O   UNL     1      44.442 -19.490   5.237  1.00  0.00    -0.354 OA
HETATM   41  C   UNL     1      43.977 -20.105   6.439  1.00  0.00     0.210 C 
ENDBRANCH  35  40
ENDBRANCH  31  34
ENDBRANCH   9  30
TORSDOF 8
ENDMDL
MODEL 5
REMARK VINA RESULT:      -9.1      1.675      3.860
REMARK  8 active torsions:
REMARK  status: ('A' for Active; 'I' for Inactive)
REMARK    1  A    between atoms: C_4  and  S_5 
REMARK    2  A    between atoms: S_5  and  C_6 
REMARK    3  A    between atoms: C_6  and  C_7 
REMARK       I    between atoms: C_7  and  N_8 
REMARK    4  A    between atoms: N_8  and  C_9 
REMARK    5  A    between atoms: C_20  and  C_21 
REMARK    6  A    between atoms: C_27  and  C_28 
REMARK       I    between atoms: C_28  and  N_29 
REMARK    7  A    between atoms: N_29  and  C_30 
REMARK    8  A    between atoms: C_31  and  O_32 
ROOT
HETATM    1  C   UNL     1      40.842 -13.808   3.095  1.00  0.00     0.069 C 
HETATM    2  C   UNL     1      41.784 -13.748   4.270  1.00  0.00     0.019 C 
HETATM    3  N   UNL     1      41.591 -12.713   5.157  1.00  0.00    -0.353 N 
HETATM    4  C   UNL     1      42.358 -12.463   6.279  1.00  0.00     0.088 C 
HETATM    5  C   UNL     1      43.321 -13.347   6.649  1.00  0.00     0.069 C 
HETATM    6  C   UNL     1      44.092 -13.183   7.842  1.00  0.00     0.099 C 
HETATM    7  N   UNL     1      44.716 -13.028   8.809  1.00  0.00    -0.192 NA
HETATM    8  C   UNL     1      43.698 -14.507   5.712  1.00  0.00     0.106 C 
HETATM    9  C   UNL     1      42.803 -14.606   4.488  1.00  0.00     0.046 C 
HETATM   10  H   UNL     1      40.822 -12.069   4.997  1.00  0.00     0.166 HD
ENDROOT
BRANCH   4  11
HETATM   11  S   UNL     1      42.044 -10.966   7.138  1.00  0.00    -0.102 SA
BRANCH  11  12
HETATM   12  C   UNL     1      40.751 -11.418   8.339  1.00  0.00     0.184 C 
BRANCH  12  13
HETATM   13  C   UNL     1      40.812 -10.678   9.670  1.00  0.00     0.231 C 
HETATM   14  N   UNL     1      41.475 -11.358  10.675  1.00  0.00    -0.325 N 
HETATM   15  H   UNL     1      41.737 -12.324  10.505  1.00  0.00     0.169 HD
HETATM   16  O   UNL     1      40.313  -9.561   9.794  1.00  0.00    -0.272 OA
BRANCH  14  17
HETATM   17  C   UNL     1      41.832 -10.854  11.954  1.00  0.00     0.056 A 
HETATM   18  C   UNL     1      43.099 -10.263  12.118  1.00  0.00     0.060 A 
HETATM   19 CL   UNL     1      44.219 -10.181  10.800  1.00  0.00    -0.082 Cl
HETATM   20  C   UNL     1      43.489  -9.719  13.347  1.00  0.00     0.026 A 
HETATM   21  C   UNL     1      42.617  -9.757  14.434  1.00  0.00     0.002 A 
HETATM   22  C   UNL     1      41.362 -10.338  14.289  1.00  0.00     0.002 A 
HETATM   23  C   UNL     1      40.972 -10.882  13.059  1.00  0.00     0.031 A 
ENDBRANCH  14  17
ENDBRANCH  12  13
ENDBRANCH  11  12
ENDBRANCH   4  11
BRANCH   8  24
HETATM   24  C   UNL     1      43.848 -15.831   6.457  1.00  0.00    -0.044 A 
HETATM   25  C   UNL     1      45.053 -16.550   6.461  1.00  0.00     0.008 A 
HETATM   26  C   UNL     1      45.147 -17.767   7.138  1.00  0.00     0.001 A 
HETATM   27  C   UNL     1      44.041 -18.288   7.808  1.00  0.00     0.000 A 
HETATM   28  C   UNL     1      42.835 -17.590   7.804  1.00  0.00     0.001 A 
HETATM   29  C   UNL     1      42.739 -16.371   7.134  1.00  0.00     0.008 A 
ENDBRANCH   8  24
BRANCH   9  30
HETATM   30  C   UNL     1      43.172 -15.571   3.422  1.00  0.00     0.255 C 
HETATM   31  N   UNL     1      42.804 -16.847   3.802  1.00  0.00    -0.321 N 
HETATM   32  H   UNL     1      42.437 -16.929   4.743  1.00  0.00     0.169 HD
HETATM   33  O   UNL     1      43.839 -15.197   2.471  1.00  0.00    -0.268 OA
BRANCH  31  34
HETATM   34  C   UNL     1      43.052 -18.078   3.153  1.00  0.00     0.068 A 
HETATM   35  C   UNL     1      42.420 -18.555   1.997  1.00  0.00     0.095 A 
HETATM   36  C   UNL     1      42.780 -19.803   1.462  1.00  0.00     0.039 A 
HETATM   37  C   UNL     1      43.778 -20.571   2.059  1.00  0.00     0.003 A 
HETATM   38  C   UNL     1      44.401 -20.115   3.214  1.00  0.00     0.002 A 
HETATM   39  C   UNL     1      44.032 -18.884   3.761  1.00  0.00     0.032 A 
BRANCH  35  40
HETATM   40  O   UNL     1      41.335 -17.910   1.469  1.00  0.00    -0.354 OA
HETATM   41  C   UNL     1      41.705 -16.990   0.442  1.00  0.00     0.210 C 
ENDBRANCH  35  40
ENDBRANCH  31  34
ENDBRANCH   9  30
TORSDOF 8
ENDMDL
MODEL 6
REMARK VINA RESULT:      -8.9      1.856      2.427
REMARK  8 active torsions:
REMARK  status: ('A' for Active; 'I' for Inactive)
REMARK    1  A    between atoms: C_4  and  S_5 
REMARK    2  A    between atoms: S_5  and  C_6 
REMARK    3  A    between atoms: C_6  and  C_7 
REMARK       I    between atoms: C_7  and  N_8 
REMARK    4  A    between atoms: N_8  and  C_9 
REMARK    5  A    between atoms: C_20  and  C_21 
REMARK    6  A    between atoms: C_27  and  C_28 
REMARK       I    between atoms: C_28  and  N_29 
REMARK    7  A    between atoms: N_29  and  C_30 
REMARK    8  A    between atoms: C_31  and  O_32 
ROOT
HETATM    1  C   UNL     1      43.975 -15.006   5.958  1.00  0.00     0.069 C 
HETATM    2  C   UNL     1      42.781 -14.481   5.202  1.00  0.00     0.019 C 
HETATM    3  N   UNL     1      41.938 -13.642   5.896  1.00  0.00    -0.353 N 
HETATM    4  C   UNL     1      40.780 -13.076   5.398  1.00  0.00     0.088 C 
HETATM    5  C   UNL     1      40.461 -13.234   4.087  1.00  0.00     0.069 C 
HETATM    6  C   UNL     1      39.318 -12.608   3.497  1.00  0.00     0.099 C 
HETATM    7  N   UNL     1      38.380 -12.100   3.038  1.00  0.00    -0.192 NA
HETATM    8  C   UNL     1      41.269 -14.207   3.213  1.00  0.00     0.106 C 
HETATM    9  C   UNL     1      42.474 -14.799   3.927  1.00  0.00     0.046 C 
HETATM   10  H   UNL     1      42.171 -13.398   6.854  1.00  0.00     0.166 HD
ENDROOT
BRANCH   4  11
HETATM   11  S   UNL     1      39.767 -12.208   6.537  1.00  0.00    -0.102 SA
BRANCH  11  12
HETATM   12  C   UNL     1      40.330 -10.482   6.390  1.00  0.00     0.184 C 
BRANCH  12  13
HETATM   13  C   UNL     1      41.437 -10.074   7.355  1.00  0.00     0.231 C 
HETATM   14  N   UNL     1      41.714 -11.006   8.337  1.00  0.00    -0.325 N 
HETATM   15  H   UNL     1      41.088 -11.801   8.432  1.00  0.00     0.169 HD
HETATM   16  O   UNL     1      42.021  -9.000   7.227  1.00  0.00    -0.272 OA
BRANCH  14  17
HETATM   17  C   UNL     1      42.793 -10.979   9.261  1.00  0.00     0.056 A 
HETATM   18  C   UNL     1      42.549 -10.528  10.572  1.00  0.00     0.060 A 
HETATM   19 CL   UNL     1      40.976  -9.981  11.045  1.00  0.00    -0.082 Cl
HETATM   20  C   UNL     1      43.567 -10.512  11.532  1.00  0.00     0.026 A 
HETATM   21  C   UNL     1      44.847 -10.950  11.196  1.00  0.00     0.002 A 
HETATM   22  C   UNL     1      45.105 -11.398   9.906  1.00  0.00     0.002 A 
HETATM   23  C   UNL     1      44.086 -11.413   8.946  1.00  0.00     0.031 A 
ENDBRANCH  14  17
ENDBRANCH  12  13
ENDBRANCH  11  12
ENDBRANCH   4  11
BRANCH   8  24
HETATM   24  C   UNL     1      41.608 -13.618   1.846  1.00  0.00    -0.044 A 
HETATM   25  C   UNL     1      42.114 -12.318   1.701  1.00  0.00     0.008 A 
HETATM   26  C   UNL     1      42.394 -11.806   0.432  1.00  0.00     0.001 A 
HETATM   27  C   UNL     1      42.164 -12.579  -0.705  1.00  0.00     0.000 A 
HETATM   28  C   UNL     1      41.652 -13.868  -0.577  1.00  0.00     0.001 A 
HETATM   29  C   UNL     1      41.377 -14.384   0.689  1.00  0.00     0.008 A 
ENDBRANCH   8  24
BRANCH   9  30
HETATM   30  C   UNL     1      43.230 -15.883   3.252  1.00  0.00     0.255 C 
HETATM   31  N   UNL     1      42.823 -17.109   3.744  1.00  0.00    -0.321 N 
HETATM   32  H   UNL     1      42.166 -17.069   4.515  1.00  0.00     0.169 HD
HETATM   33  O   UNL     1      44.157 -15.604   2.510  1.00  0.00    -0.268 OA
BRANCH  31  34
HETATM   34  C   UNL     1      43.339 -18.396   3.469  1.00  0.00     0.068 A 
HETATM   35  C   UNL     1      44.262 -19.109   4.246  1.00  0.00     0.095 A 
HETATM   36  C   UNL     1      44.679 -20.388   3.844  1.00  0.00     0.039 A 
HETATM   37  C   UNL     1      44.171 -20.971   2.685  1.00  0.00     0.003 A 
HETATM   38  C   UNL     1      43.267 -20.267   1.899  1.00  0.00     0.002 A 
HETATM   39  C   UNL     1      42.864 -18.986   2.283  1.00  0.00     0.032 A 
BRANCH  35  40
HETATM   40  O   UNL     1      44.901 -18.518   5.302  1.00  0.00    -0.354 OA
HETATM   41  C   UNL     1      44.399 -18.978   6.557  1.00  0.00     0.210 C 
ENDBRANCH  35  40
ENDBRANCH  31  34
ENDBRANCH   9  30
TORSDOF 8
ENDMDL
MODEL 7
REMARK VINA RESULT:      -8.6      4.570      8.929
REMARK  8 active torsions:
REMARK  status: ('A' for Active; 'I' for Inactive)
REMARK    1  A    between atoms: C_4  and  S_5 
REMARK    2  A    between atoms: S_5  and  C_6 
REMARK    3  A    between atoms: C_6  and  C_7 
REMARK       I    between atoms: C_7  and  N_8 
REMARK    4  A    between atoms: N_8  and  C_9 
REMARK    5  A    between atoms: C_20  and  C_21 
REMARK    6  A    between atoms: C_27  and  C_28 
REMARK       I    between atoms: C_28  and  N_29 
REMARK    7  A    between atoms: N_29  and  C_30 
REMARK    8  A    between atoms: C_31  and  O_32 
ROOT
HETATM    1  C   UNL     1      40.761 -16.572   1.266  1.00  0.00     0.069 C 
HETATM    2  C   UNL     1      40.496 -15.585   2.374  1.00  0.00     0.019 C 
HETATM    3  N   UNL     1      41.170 -15.795   3.555  1.00  0.00    -0.353 N 
HETATM    4  C   UNL     1      41.049 -15.026   4.697  1.00  0.00     0.088 C 
HETATM    5  C   UNL     1      40.307 -13.888   4.668  1.00  0.00     0.069 C 
HETATM    6  C   UNL     1      40.209 -13.011   5.794  1.00  0.00     0.099 C 
HETATM    7  N   UNL     1      40.132 -12.316   6.721  1.00  0.00    -0.192 NA
HETATM    8  C   UNL     1      39.438 -13.570   3.440  1.00  0.00     0.106 C 
HETATM    9  C   UNL     1      39.634 -14.549   2.294  1.00  0.00     0.046 C 
HETATM   10  H   UNL     1      41.822 -16.572   3.614  1.00  0.00     0.166 HD
ENDROOT
BRANCH   4  11
HETATM   11  S   UNL     1      41.855 -15.614   6.140  1.00  0.00    -0.102 SA
BRANCH  11  12
HETATM   12  C   UNL     1      43.334 -16.461   5.496  1.00  0.00     0.184 C 
BRANCH  12  13
HETATM   13  C   UNL     1      43.106 -17.885   5.005  1.00  0.00     0.231 C 
HETATM   14  N   UNL     1      44.252 -18.541   4.598  1.00  0.00    -0.325 N 
HETATM   15  H   UNL     1      45.109 -18.002   4.520  1.00  0.00     0.169 HD
HETATM   16  O   UNL     1      41.979 -18.378   5.001  1.00  0.00    -0.272 OA
BRANCH  14  17
HETATM   17  C   UNL     1      44.373 -19.915   4.255  1.00  0.00     0.056 A 
HETATM   18  C   UNL     1      44.167 -20.299   2.917  1.00  0.00     0.060 A 
HETATM   19 CL   UNL     1      43.737 -19.130   1.714  1.00  0.00    -0.082 Cl
HETATM   20  C   UNL     1      44.308 -21.633   2.517  1.00  0.00     0.026 A 
HETATM   21  C   UNL     1      44.659 -22.605   3.452  1.00  0.00     0.002 A 
HETATM   22  C   UNL     1      44.866 -22.243   4.778  1.00  0.00     0.002 A 
HETATM   23  C   UNL     1      44.725 -20.908   5.177  1.00  0.00     0.031 A 
ENDBRANCH  14  17
ENDBRANCH  12  13
ENDBRANCH  11  12
ENDBRANCH   4  11
BRANCH   8  24
HETATM   24  C   UNL     1      39.549 -12.109   3.011  1.00  0.00    -0.044 A 
HETATM   25  C   UNL     1      40.750 -11.564   2.534  1.00  0.00     0.008 A 
HETATM   26  C   UNL     1      40.818 -10.217   2.169  1.00  0.00     0.001 A 
HETATM   27  C   UNL     1      39.696  -9.399   2.286  1.00  0.00     0.000 A 
HETATM   28  C   UNL     1      38.499  -9.924   2.768  1.00  0.00     0.001 A 
HETATM   29  C   UNL     1      38.426 -11.269   3.128  1.00  0.00     0.008 A 
ENDBRANCH   8  24
BRANCH   9  30
HETATM   30  C   UNL     1      38.726 -14.454   1.124  1.00  0.00     0.255 C 
HETATM   31  N   UNL     1      39.381 -13.835   0.076  1.00  0.00    -0.321 N 
HETATM   32  H   UNL     1      40.306 -13.482   0.293  1.00  0.00     0.169 HD
HETATM   33  O   UNL     1      37.553 -14.766   1.241  1.00  0.00    -0.268 OA
BRANCH  31  34
HETATM   34  C   UNL     1      38.876 -13.444  -1.184  1.00  0.00     0.068 A 
HETATM   35  C   UNL     1      39.081 -14.098  -2.407  1.00  0.00     0.095 A 
HETATM   36  C   UNL     1      38.506 -13.589  -3.582  1.00  0.00     0.039 A 
HETATM   37  C   UNL     1      37.713 -12.444  -3.548  1.00  0.00     0.003 A 
HETATM   38  C   UNL     1      37.515 -11.779  -2.344  1.00  0.00     0.002 A 
HETATM   39  C   UNL     1      38.102 -12.269  -1.176  1.00  0.00     0.032 A 
BRANCH  35  40
HETATM   40  O   UNL     1      39.973 -15.131  -2.513  1.00  0.00    -0.354 OA
HETATM   41  C   UNL     1      41.188 -14.727  -3.144  1.00  0.00     0.210 C 
ENDBRANCH  35  40
ENDBRANCH  31  34
ENDBRANCH   9  30
TORSDOF 8
ENDMDL
MODEL 8
REMARK VINA RESULT:      -8.5      2.464      4.957
REMARK  8 active torsions:
REMARK  status: ('A' for Active; 'I' for Inactive)
REMARK    1  A    between atoms: C_4  and  S_5 
REMARK    2  A    between atoms: S_5  and  C_6 
REMARK    3  A    between atoms: C_6  and  C_7 
REMARK       I    between atoms: C_7  and  N_8 
REMARK    4  A    between atoms: N_8  and  C_9 
REMARK    5  A    between atoms: C_20  and  C_21 
REMARK    6  A    between atoms: C_27  and  C_28 
REMARK       I    between atoms: C_28  and  N_29 
REMARK    7  A    between atoms: N_29  and  C_30 
REMARK    8  A    between atoms: C_31  and  O_32 
ROOT
HETATM    1  C   UNL     1      38.926 -12.328   2.946  1.00  0.00     0.069 C 
HETATM    2  C   UNL     1      40.166 -12.784   3.672  1.00  0.00     0.019 C 
HETATM    3  N   UNL     1      40.477 -12.113   4.833  1.00  0.00    -0.353 N 
HETATM    4  C   UNL     1      41.580 -12.355   5.629  1.00  0.00     0.088 C 
HETATM    5  C   UNL     1      42.393 -13.408   5.354  1.00  0.00     0.069 C 
HETATM    6  C   UNL     1      43.503 -13.755   6.187  1.00  0.00     0.099 C 
HETATM    7  N   UNL     1      44.405 -14.016   6.870  1.00  0.00    -0.192 NA
HETATM    8  C   UNL     1      42.210 -14.198   4.047  1.00  0.00     0.106 C 
HETATM    9  C   UNL     1      40.991 -13.765   3.250  1.00  0.00     0.046 C 
HETATM   10  H   UNL     1      39.855 -11.377   5.154  1.00  0.00     0.166 HD
ENDROOT
BRANCH   4  11
HETATM   11  S   UNL     1      41.871 -11.232   6.945  1.00  0.00    -0.102 SA
BRANCH  11  12
HETATM   12  C   UNL     1      40.281 -11.180   7.831  1.00  0.00     0.184 C 
BRANCH  12  13
HETATM   13  C   UNL     1      40.355 -10.694   9.273  1.00  0.00     0.231 C 
HETATM   14  N   UNL     1      41.321 -11.318  10.039  1.00  0.00    -0.325 N 
HETATM   15  H   UNL     1      41.796 -12.125   9.645  1.00  0.00     0.169 HD
HETATM   16  O   UNL     1      39.608  -9.805   9.679  1.00  0.00    -0.272 OA
BRANCH  14  17
HETATM   17  C   UNL     1      41.732 -10.962  11.352  1.00  0.00     0.056 A 
HETATM   18  C   UNL     1      43.033 -10.458  11.540  1.00  0.00     0.060 A 
HETATM   19 CL   UNL     1      44.129 -10.308  10.208  1.00  0.00    -0.082 Cl
HETATM   20  C   UNL     1      43.477 -10.058  12.805  1.00  0.00     0.026 A 
HETATM   21  C   UNL     1      42.627 -10.156  13.905  1.00  0.00     0.002 A 
HETATM   22  C   UNL     1      41.339 -10.652  13.737  1.00  0.00     0.002 A 
HETATM   23  C   UNL     1      40.894 -11.051  12.470  1.00  0.00     0.031 A 
ENDBRANCH  14  17
ENDBRANCH  12  13
ENDBRANCH  11  12
ENDBRANCH   4  11
BRANCH   8  24
HETATM   24  C   UNL     1      42.285 -15.707   4.264  1.00  0.00    -0.044 A 
HETATM   25  C   UNL     1      41.316 -16.402   5.003  1.00  0.00     0.008 A 
HETATM   26  C   UNL     1      41.429 -17.780   5.196  1.00  0.00     0.001 A 
HETATM   27  C   UNL     1      42.512 -18.479   4.665  1.00  0.00     0.000 A 
HETATM   28  C   UNL     1      43.487 -17.801   3.937  1.00  0.00     0.001 A 
HETATM   29  C   UNL     1      43.375 -16.425   3.738  1.00  0.00     0.008 A 
ENDBRANCH   8  24
BRANCH   9  30
HETATM   30  C   UNL     1      40.805 -14.327   1.888  1.00  0.00     0.255 C 
HETATM   31  N   UNL     1      41.589 -13.632   0.987  1.00  0.00    -0.321 N 
HETATM   32  H   UNL     1      42.076 -12.829   1.368  1.00  0.00     0.169 HD
HETATM   33  O   UNL     1      39.944 -15.169   1.693  1.00  0.00    -0.268 OA
BRANCH  31  34
HETATM   34  C   UNL     1      41.650 -13.751  -0.420  1.00  0.00     0.068 A 
HETATM   35  C   UNL     1      42.351 -12.917  -1.300  1.00  0.00     0.095 A 
HETATM   36  C   UNL     1      42.322 -13.167  -2.681  1.00  0.00     0.039 A 
HETATM   37  C   UNL     1      41.613 -14.253  -3.192  1.00  0.00     0.003 A 
HETATM   38  C   UNL     1      40.902 -15.079  -2.331  1.00  0.00     0.002 A 
HETATM   39  C   UNL     1      40.911 -14.822  -0.958  1.00  0.00     0.032 A 
BRANCH  35  40
HETATM   40  O   UNL     1      42.929 -11.757  -0.861  1.00  0.00    -0.354 OA
HETATM   41  C   UNL     1      42.883 -10.727  -1.849  1.00  0.00     0.210 C 
ENDBRANCH  35  40
ENDBRANCH  31  34
ENDBRANCH   9  30
TORSDOF 8
ENDMDL
MODEL 9
REMARK VINA RESULT:      -8.5      3.186      4.654
REMARK  8 active torsions:
REMARK  status: ('A' for Active; 'I' for Inactive)
REMARK    1  A    between atoms: C_4  and  S_5 
REMARK    2  A    between atoms: S_5  and  C_6 
REMARK    3  A    between atoms: C_6  and  C_7 
REMARK       I    between atoms: C_7  and  N_8 
REMARK    4  A    between atoms: N_8  and  C_9 
REMARK    5  A    between atoms: C_20  and  C_21 
REMARK    6  A    between atoms: C_27  and  C_28 
REMARK       I    between atoms: C_28  and  N_29 
REMARK    7  A    between atoms: N_29  and  C_30 
REMARK    8  A    between atoms: C_31  and  O_32 
ROOT
HETATM    1  C   UNL     1      41.166 -16.727   0.611  1.00  0.00     0.069 C 
HETATM    2  C   UNL     1      41.540 -15.828   1.762  1.00  0.00     0.019 C 
HETATM    3  N   UNL     1      40.829 -14.654   1.877  1.00  0.00    -0.353 N 
HETATM    4  C   UNL     1      41.032 -13.684   2.840  1.00  0.00     0.088 C 
HETATM    5  C   UNL     1      41.912 -13.909   3.850  1.00  0.00     0.069 C 
HETATM    6  C   UNL     1      42.106 -12.976   4.917  1.00  0.00     0.099 C 
HETATM    7  N   UNL     1      42.258 -12.203   5.769  1.00  0.00    -0.192 NA
HETATM    8  C   UNL     1      42.831 -15.141   3.806  1.00  0.00     0.106 C 
HETATM    9  C   UNL     1      42.526 -16.077   2.648  1.00  0.00     0.046 C 
HETATM   10  H   UNL     1      40.083 -14.467   1.213  1.00  0.00     0.166 HD
ENDROOT
BRANCH   4  11
HETATM   11  S   UNL     1      40.139 -12.185   2.657  1.00  0.00    -0.102 SA
BRANCH  11  12
HETATM   12  C   UNL     1      38.898 -12.253   3.988  1.00  0.00     0.184 C 
BRANCH  12  13
HETATM   13  C   UNL     1      38.735 -10.968   4.791  1.00  0.00     0.231 C 
HETATM   14  N   UNL     1      39.616 -10.837   5.848  1.00  0.00    -0.325 N 
HETATM   15  H   UNL     1      40.189 -11.638   6.095  1.00  0.00     0.169 HD
HETATM   16  O   UNL     1      37.886 -10.134   4.482  1.00  0.00    -0.272 OA
BRANCH  14  17
HETATM   17  C   UNL     1      39.812  -9.686   6.659  1.00  0.00     0.056 A 
HETATM   18  C   UNL     1      40.696  -8.686   6.212  1.00  0.00     0.060 A 
HETATM   19 CL   UNL     1      41.560  -8.866   4.722  1.00  0.00    -0.082 Cl
HETATM   20  C   UNL     1      40.899  -7.517   6.953  1.00  0.00     0.026 A 
HETATM   21  C   UNL     1      40.219  -7.328   8.155  1.00  0.00     0.002 A 
HETATM   22  C   UNL     1      39.342  -8.306   8.611  1.00  0.00     0.002 A 
HETATM   23  C   UNL     1      39.139  -9.475   7.869  1.00  0.00     0.031 A 
ENDBRANCH  14  17
ENDBRANCH  12  13
ENDBRANCH  11  12
ENDBRANCH   4  11
BRANCH   8  24
HETATM   24  C   UNL     1      42.911 -15.855   5.153  1.00  0.00    -0.044 A 
HETATM   25  C   UNL     1      44.096 -15.897   5.903  1.00  0.00     0.008 A 
HETATM   26  C   UNL     1      44.136 -16.577   7.122  1.00  0.00     0.001 A 
HETATM   27  C   UNL     1      43.002 -17.230   7.602  1.00  0.00     0.000 A 
HETATM   28  C   UNL     1      41.821 -17.206   6.863  1.00  0.00     0.001 A 
HETATM   29  C   UNL     1      41.776 -16.523   5.648  1.00  0.00     0.008 A 
ENDBRANCH   8  24
BRANCH   9  30
HETATM   30  C   UNL     1      43.454 -17.208   2.394  1.00  0.00     0.255 C 
HETATM   31  N   UNL     1      42.923 -18.372   2.915  1.00  0.00    -0.321 N 
HETATM   32  H   UNL     1      42.064 -18.257   3.441  1.00  0.00     0.169 HD
HETATM   33  O   UNL     1      44.561 -16.990   1.928  1.00  0.00    -0.268 OA
BRANCH  31  34
HETATM   34  C   UNL     1      43.502 -19.658   2.996  1.00  0.00     0.068 A 
HETATM   35  C   UNL     1      44.127 -20.224   4.115  1.00  0.00     0.095 A 
HETATM   36  C   UNL     1      44.653 -21.524   4.045  1.00  0.00     0.039 A 
HETATM   37  C   UNL     1      44.546 -22.273   2.875  1.00  0.00     0.003 A 
HETATM   38  C   UNL     1      43.941 -21.717   1.754  1.00  0.00     0.002 A 
HETATM   39  C   UNL     1      43.435 -20.417   1.812  1.00  0.00     0.032 A 
BRANCH  35  40
HETATM   40  O   UNL     1      44.391 -19.475   5.229  1.00  0.00    -0.354 OA
HETATM   41  C   UNL     1      44.088 -20.178   6.434  1.00  0.00     0.210 C 
ENDBRANCH  35  40
ENDBRANCH  31  34
ENDBRANCH   9  30
TORSDOF 8
ENDMDL
MODEL 10
REMARK VINA RESULT:      -8.4      5.008      8.683
REMARK  8 active torsions:
REMARK  status: ('A' for Active; 'I' for Inactive)
REMARK    1  A    between atoms: C_4  and  S_5 
REMARK    2  A    between atoms: S_5  and  C_6 
REMARK    3  A    between atoms: C_6  and  C_7 
REMARK       I    between atoms: C_7  and  N_8 
REMARK    4  A    between atoms: N_8  and  C_9 
REMARK    5  A    between atoms: C_20  and  C_21 
REMARK    6  A    between atoms: C_27  and  C_28 
REMARK       I    between atoms: C_28  and  N_29 
REMARK    7  A    between atoms: N_29  and  C_30 
REMARK    8  A    between atoms: C_31  and  O_32 
ROOT
HETATM    1  C   UNL     1      41.119 -17.576   0.994  1.00  0.00     0.069 C 
HETATM    2  C   UNL     1      41.514 -16.502   1.976  1.00  0.00     0.019 C 
HETATM    3  N   UNL     1      40.802 -15.325   1.914  1.00  0.00    -0.353 N 
HETATM    4  C   UNL     1      41.022 -14.211   2.702  1.00  0.00     0.088 C 
HETATM    5  C   UNL     1      41.925 -14.269   3.716  1.00  0.00     0.069 C 
HETATM    6  C   UNL     1      42.139 -13.176   4.612  1.00  0.00     0.099 C 
HETATM    7  N   UNL     1      42.306 -12.274   5.325  1.00  0.00    -0.192 NA
HETATM    8  C   UNL     1      42.847 -15.493   3.853  1.00  0.00     0.106 C 
HETATM    9  C   UNL     1      42.520 -16.604   2.869  1.00  0.00     0.046 C 
HETATM   10  H   UNL     1      40.041 -15.248   1.245  1.00  0.00     0.166 HD
ENDROOT
BRANCH   4  11
HETATM   11  S   UNL     1      40.120 -12.762   2.298  1.00  0.00    -0.102 SA
BRANCH  11  12
HETATM   12  C   UNL     1      41.136 -11.963   1.014  1.00  0.00     0.184 C 
BRANCH  12  13
HETATM   13  C   UNL     1      40.932 -12.493  -0.400  1.00  0.00     0.231 C 
HETATM   14  N   UNL     1      40.206 -13.667  -0.473  1.00  0.00    -0.325 N 
HETATM   15  H   UNL     1      39.992 -14.152   0.393  1.00  0.00     0.169 HD
HETATM   16  O   UNL     1      41.382 -11.888  -1.372  1.00  0.00    -0.272 OA
BRANCH  14  17
HETATM   17  C   UNL     1      39.720 -14.298  -1.650  1.00  0.00     0.056 A 
HETATM   18  C   UNL     1      38.464 -13.911  -2.155  1.00  0.00     0.060 A 
HETATM   19 CL   UNL     1      37.510 -12.717  -1.342  1.00  0.00    -0.082 Cl
HETATM   20  C   UNL     1      37.953 -14.474  -3.330  1.00  0.00     0.026 A 
HETATM   21  C   UNL     1      38.691 -15.435  -4.019  1.00  0.00     0.002 A 
HETATM   22  C   UNL     1      39.932 -15.828  -3.534  1.00  0.00     0.002 A 
HETATM   23  C   UNL     1      40.444 -15.264  -2.359  1.00  0.00     0.031 A 
ENDBRANCH  14  17
ENDBRANCH  12  13
ENDBRANCH  11  12
ENDBRANCH   4  11
BRANCH   8  24
HETATM   24  C   UNL     1      42.959 -15.978   5.296  1.00  0.00    -0.044 A 
HETATM   25  C   UNL     1      44.157 -15.892   6.018  1.00  0.00     0.008 A 
HETATM   26  C   UNL     1      44.227 -16.365   7.331  1.00  0.00     0.001 A 
HETATM   27  C   UNL     1      43.107 -16.938   7.932  1.00  0.00     0.000 A 
HETATM   28  C   UNL     1      41.913 -17.040   7.223  1.00  0.00     0.001 A 
HETATM   29  C   UNL     1      41.839 -16.563   5.915  1.00  0.00     0.008 A 
ENDBRANCH   8  24
BRANCH   9  30
HETATM   30  C   UNL     1      43.447 -17.761   2.781  1.00  0.00     0.255 C 
HETATM   31  N   UNL     1      43.088 -18.716   3.713  1.00  0.00    -0.321 N 
HETATM   32  H   UNL     1      42.337 -18.447   4.339  1.00  0.00     0.169 HD
HETATM   33  O   UNL     1      44.433 -17.695   2.066  1.00  0.00    -0.268 OA
BRANCH  31  34
HETATM   34  C   UNL     1      43.743 -19.921   4.054  1.00  0.00     0.068 A 
HETATM   35  C   UNL     1      44.179 -20.914   3.167  1.00  0.00     0.095 A 
HETATM   36  C   UNL     1      44.824 -22.061   3.657  1.00  0.00     0.039 A 
HETATM   37  C   UNL     1      45.056 -22.218   5.023  1.00  0.00     0.003 A 
HETATM   38  C   UNL     1      44.615 -21.246   5.912  1.00  0.00     0.002 A 
HETATM   39  C   UNL     1      43.954 -20.114   5.432  1.00  0.00     0.032 A 
BRANCH  35  40
HETATM   40  O   UNL     1      43.838 -20.876   1.842  1.00  0.00    -0.354 OA
HETATM   41  C   UNL     1      44.070 -22.125   1.192  1.00  0.00     0.210 C 
ENDBRANCH  35  40
ENDBRANCH  31  34
ENDBRANCH   9  30
TORSDOF 8
ENDMDL
