MODEL 1
REMARK VINA RESULT:      -8.3      0.000      0.000
REMARK  4 active torsions:
REMARK  status: ('A' for Active; 'I' for Inactive)
REMARK    1  A    between atoms: C_7  and  N_8 
REMARK       I    between atoms: N_8  and  C_9 
REMARK    2  A    between atoms: C_9  and  C_10 
REMARK    3  A    between atoms: C_10  and  C_11 
REMARK    4  A    between atoms: C_14  and  O_15 
ROOT
HETATM    1  N   UNL     1      42.921 -16.156   0.935  1.00  0.00    -0.326 N 
HETATM    2  C   UNL     1      41.621 -15.738   0.702  1.00  0.00     0.226 C 
HETATM    3  O   UNL     1      40.614 -16.190   1.237  1.00  0.00    -0.273 OA
HETATM    4  H   UNL     1      43.656 -15.671   0.435  1.00  0.00     0.169 HD
ENDROOT
BRANCH   1   5
HETATM    5  C   UNL     1      43.327 -17.178   1.820  1.00  0.00     0.053 A 
HETATM    6  C   UNL     1      43.643 -17.001   3.161  1.00  0.00     0.146 A 
HETATM    7  N   UNL     1      44.033 -18.000   3.996  1.00  0.00    -0.258 NA
HETATM    8  C   UNL     1      44.116 -19.244   3.500  1.00  0.00     0.066 A 
HETATM    9  C   UNL     1      43.814 -19.537   2.154  1.00  0.00    -0.005 A 
HETATM   10  C   UNL     1      44.507 -20.285   4.330  1.00  0.00     0.032 A 
HETATM   11  C   UNL     1      43.908 -20.860   1.683  1.00  0.00     0.014 A 
HETATM   12  C   UNL     1      43.423 -18.478   1.318  1.00  0.00     0.044 A 
HETATM   13  C   UNL     1      44.300 -21.887   2.540  1.00  0.00     0.001 A 
HETATM   14  C   UNL     1      44.602 -21.599   3.866  1.00  0.00     0.002 A 
ENDBRANCH   1   5
BRANCH   2  15
HETATM   15  C   UNL     1      41.525 -14.618  -0.324  1.00  0.00     0.141 C 
BRANCH  15  16
HETATM   16  C   UNL     1      40.557 -14.881  -1.455  1.00  0.00    -0.049 A 
HETATM   17  C   UNL     1      39.382 -14.117  -1.553  1.00  0.00     0.010 A 
HETATM   18  C   UNL     1      38.499 -14.295  -2.621  1.00  0.00     0.037 A 
HETATM   19  C   UNL     1      38.795 -15.234  -3.602  1.00  0.00     0.065 A 
HETATM   20  C   UNL     1      39.955 -15.993  -3.533  1.00  0.00     0.037 A 
HETATM   21  C   UNL     1      40.841 -15.809  -2.469  1.00  0.00     0.010 A 
BRANCH  19  22
HETATM   22  O   UNL     1      37.967 -15.436  -4.666  1.00  0.00    -0.361 OA
HETATM   23  H   UNL     1      38.119 -16.329  -5.015  1.00  0.00     0.217 HD
ENDBRANCH  19  22
ENDBRANCH  15  16
ENDBRANCH   2  15
TORSDOF 4
ENDMDL
MODEL 2
REMARK VINA RESULT:      -8.2      1.571      2.314
REMARK  4 active torsions:
REMARK  status: ('A' for Active; 'I' for Inactive)
REMARK    1  A    between atoms: C_7  and  N_8 
REMARK       I    between atoms: N_8  and  C_9 
REMARK    2  A    between atoms: C_9  and  C_10 
REMARK    3  A    between atoms: C_10  and  C_11 
REMARK    4  A    between atoms: C_14  and  O_15 
ROOT
HETATM    1  N   UNL     1      40.062 -15.449   0.920  1.00  0.00    -0.326 N 
HETATM    2  C   UNL     1      40.383 -14.200   0.413  1.00  0.00     0.226 C 
HETATM    3  O   UNL     1      41.397 -13.558   0.671  1.00  0.00    -0.273 OA
HETATM    4  H   UNL     1      39.199 -15.868   0.596  1.00  0.00     0.169 HD
ENDROOT
BRANCH   1   5
HETATM    5  C   UNL     1      40.830 -16.208   1.830  1.00  0.00     0.053 A 
HETATM    6  C   UNL     1      40.770 -16.103   3.214  1.00  0.00     0.146 A 
HETATM    7  N   UNL     1      41.520 -16.844   4.071  1.00  0.00    -0.258 NA
HETATM    8  C   UNL     1      42.373 -17.741   3.555  1.00  0.00     0.066 A 
HETATM    9  C   UNL     1      42.511 -17.932   2.165  1.00  0.00    -0.005 A 
HETATM   10  C   UNL     1      43.148 -18.515   4.408  1.00  0.00     0.032 A 
HETATM   11  C   UNL     1      43.415 -18.893   1.672  1.00  0.00     0.014 A 
HETATM   12  C   UNL     1      41.727 -17.143   1.308  1.00  0.00     0.044 A 
HETATM   13  C   UNL     1      44.178 -19.659   2.551  1.00  0.00     0.001 A 
HETATM   14  C   UNL     1      44.047 -19.468   3.922  1.00  0.00     0.002 A 
ENDBRANCH   1   5
BRANCH   2  15
HETATM   15  C   UNL     1      39.331 -13.650  -0.539  1.00  0.00     0.141 C 
BRANCH  15  16
HETATM   16  C   UNL     1      39.214 -14.397  -1.848  1.00  0.00    -0.049 A 
HETATM   17  C   UNL     1      40.328 -15.090  -2.352  1.00  0.00     0.010 A 
HETATM   18  C   UNL     1      40.232 -15.840  -3.527  1.00  0.00     0.037 A 
HETATM   19  C   UNL     1      39.017 -15.906  -4.198  1.00  0.00     0.065 A 
HETATM   20  C   UNL     1      37.900 -15.240  -3.713  1.00  0.00     0.037 A 
HETATM   21  C   UNL     1      37.994 -14.496  -2.535  1.00  0.00     0.010 A 
BRANCH  19  22
HETATM   22  O   UNL     1      38.876 -16.632  -5.343  1.00  0.00    -0.361 OA
HETATM   23  H   UNL     1      38.087 -17.193  -5.262  1.00  0.00     0.217 HD
ENDBRANCH  19  22
ENDBRANCH  15  16
ENDBRANCH   2  15
TORSDOF 4
ENDMDL
MODEL 3
REMARK VINA RESULT:      -7.8      4.058      8.105
REMARK  4 active torsions:
REMARK  status: ('A' for Active; 'I' for Inactive)
REMARK    1  A    between atoms: C_7  and  N_8 
REMARK       I    between atoms: N_8  and  C_9 
REMARK    2  A    between atoms: C_9  and  C_10 
REMARK    3  A    between atoms: C_10  and  C_11 
REMARK    4  A    between atoms: C_14  and  O_15 
ROOT
HETATM    1  N   UNL     1      41.909 -17.436   3.045  1.00  0.00    -0.326 N 
HETATM    2  C   UNL     1      43.146 -17.408   2.422  1.00  0.00     0.226 C 
HETATM    3  O   UNL     1      43.947 -16.478   2.456  1.00  0.00    -0.273 OA
HETATM    4  H   UNL     1      41.365 -18.284   2.948  1.00  0.00     0.169 HD
ENDROOT
BRANCH   1   5
HETATM    5  C   UNL     1      41.337 -16.404   3.821  1.00  0.00     0.053 A 
HETATM    6  C   UNL     1      41.270 -16.388   5.208  1.00  0.00     0.146 A 
HETATM    7  N   UNL     1      40.714 -15.384   5.936  1.00  0.00    -0.258 NA
HETATM    8  C   UNL     1      40.199 -14.334   5.279  1.00  0.00     0.066 A 
HETATM    9  C   UNL     1      40.218 -14.247   3.872  1.00  0.00    -0.005 A 
HETATM   10  C   UNL     1      39.628 -13.292   5.997  1.00  0.00     0.032 A 
HETATM   11  C   UNL     1      39.672 -13.120   3.229  1.00  0.00     0.014 A 
HETATM   12  C   UNL     1      40.793 -15.307   3.152  1.00  0.00     0.044 A 
HETATM   13  C   UNL     1      39.109 -12.086   3.975  1.00  0.00     0.001 A 
HETATM   14  C   UNL     1      39.085 -12.173   5.362  1.00  0.00     0.002 A 
ENDBRANCH   1   5
BRANCH   2  15
HETATM   15  C   UNL     1      43.460 -18.682   1.650  1.00  0.00     0.141 C 
BRANCH  15  16
HETATM   16  C   UNL     1      43.878 -19.852   2.509  1.00  0.00    -0.049 A 
HETATM   17  C   UNL     1      43.897 -21.144   1.957  1.00  0.00     0.010 A 
HETATM   18  C   UNL     1      44.338 -22.237   2.708  1.00  0.00     0.037 A 
HETATM   19  C   UNL     1      44.770 -22.039   4.014  1.00  0.00     0.065 A 
HETATM   20  C   UNL     1      44.772 -20.769   4.577  1.00  0.00     0.037 A 
HETATM   21  C   UNL     1      44.338 -19.676   3.823  1.00  0.00     0.010 A 
BRANCH  19  22
HETATM   22  O   UNL     1      45.216 -23.074   4.781  1.00  0.00    -0.361 OA
HETATM   23  H   UNL     1      45.064 -22.858   5.715  1.00  0.00     0.217 HD
ENDBRANCH  19  22
ENDBRANCH  15  16
ENDBRANCH   2  15
TORSDOF 4
ENDMDL
MODEL 4
REMARK VINA RESULT:      -7.8      2.327      3.133
REMARK  4 active torsions:
REMARK  status: ('A' for Active; 'I' for Inactive)
REMARK    1  A    between atoms: C_7  and  N_8 
REMARK       I    between atoms: N_8  and  C_9 
REMARK    2  A    between atoms: C_9  and  C_10 
REMARK    3  A    between atoms: C_10  and  C_11 
REMARK    4  A    between atoms: C_14  and  O_15 
ROOT
HETATM    1  N   UNL     1      42.825 -17.244   0.974  1.00  0.00    -0.326 N 
HETATM    2  C   UNL     1      41.502 -16.874   0.793  1.00  0.00     0.226 C 
HETATM    3  O   UNL     1      40.558 -17.213   1.500  1.00  0.00    -0.273 OA
HETATM    4  H   UNL     1      43.501 -16.865   0.322  1.00  0.00     0.169 HD
ENDROOT
BRANCH   1   5
HETATM    5  C   UNL     1      43.330 -18.081   1.992  1.00  0.00     0.053 A 
HETATM    6  C   UNL     1      43.690 -17.665   3.268  1.00  0.00     0.146 A 
HETATM    7  N   UNL     1      44.174 -18.490   4.234  1.00  0.00    -0.258 NA
HETATM    8  C   UNL     1      44.313 -19.792   3.945  1.00  0.00     0.066 A 
HETATM    9  C   UNL     1      43.975 -20.321   2.683  1.00  0.00    -0.005 A 
HETATM   10  C   UNL     1      44.802 -20.658   4.914  1.00  0.00     0.032 A 
HETATM   11  C   UNL     1      44.131 -21.697   2.432  1.00  0.00     0.014 A 
HETATM   12  C   UNL     1      43.485 -19.439   1.706  1.00  0.00     0.044 A 
HETATM   13  C   UNL     1      44.621 -22.544   3.424  1.00  0.00     0.001 A 
HETATM   14  C   UNL     1      44.959 -22.024   4.667  1.00  0.00     0.002 A 
ENDBRANCH   1   5
BRANCH   2  15
HETATM   15  C   UNL     1      41.290 -15.968  -0.412  1.00  0.00     0.141 C 
BRANCH  15  16
HETATM   16  C   UNL     1      41.602 -14.510  -0.166  1.00  0.00    -0.049 A 
HETATM   17  C   UNL     1      41.692 -14.035   1.154  1.00  0.00     0.010 A 
HETATM   18  C   UNL     1      42.039 -12.706   1.413  1.00  0.00     0.037 A 
HETATM   19  C   UNL     1      42.308 -11.850   0.352  1.00  0.00     0.065 A 
HETATM   20  C   UNL     1      42.237 -12.301  -0.960  1.00  0.00     0.037 A 
HETATM   21  C   UNL     1      41.897 -13.631  -1.218  1.00  0.00     0.010 A 
BRANCH  19  22
HETATM   22  O   UNL     1      42.658 -10.549   0.558  1.00  0.00    -0.361 OA
HETATM   23  H   UNL     1      42.423 -10.303   1.468  1.00  0.00     0.217 HD
ENDBRANCH  19  22
ENDBRANCH  15  16
ENDBRANCH   2  15
TORSDOF 4
ENDMDL
MODEL 5
REMARK VINA RESULT:      -7.8      1.622      1.923
REMARK  4 active torsions:
REMARK  status: ('A' for Active; 'I' for Inactive)
REMARK    1  A    between atoms: C_7  and  N_8 
REMARK       I    between atoms: N_8  and  C_9 
REMARK    2  A    between atoms: C_9  and  C_10 
REMARK    3  A    between atoms: C_10  and  C_11 
REMARK    4  A    between atoms: C_14  and  O_15 
ROOT
HETATM    1  N   UNL     1      43.004 -16.267   2.460  1.00  0.00    -0.326 N 
HETATM    2  C   UNL     1      41.697 -15.810   2.445  1.00  0.00     0.226 C 
HETATM    3  O   UNL     1      40.720 -16.413   2.880  1.00  0.00    -0.273 OA
HETATM    4  H   UNL     1      43.712 -15.646   2.086  1.00  0.00     0.169 HD
ENDROOT
BRANCH   1   5
HETATM    5  C   UNL     1      43.455 -17.506   2.966  1.00  0.00     0.053 A 
HETATM    6  C   UNL     1      43.921 -17.724   4.256  1.00  0.00     0.146 A 
HETATM    7  N   UNL     1      44.350 -18.927   4.722  1.00  0.00    -0.258 NA
HETATM    8  C   UNL     1      44.321 -19.977   3.889  1.00  0.00     0.066 A 
HETATM    9  C   UNL     1      43.863 -19.868   2.560  1.00  0.00    -0.005 A 
HETATM   10  C   UNL     1      44.749 -21.218   4.339  1.00  0.00     0.032 A 
HETATM   11  C   UNL     1      43.843 -21.002   1.726  1.00  0.00     0.014 A 
HETATM   12  C   UNL     1      43.434 -18.608   2.109  1.00  0.00     0.044 A 
HETATM   13  C   UNL     1      44.275 -22.237   2.206  1.00  0.00     0.001 A 
HETATM   14  C   UNL     1      44.732 -22.345   3.514  1.00  0.00     0.002 A 
ENDBRANCH   1   5
BRANCH   2  15
HETATM   15  C   UNL     1      41.548 -14.432   1.816  1.00  0.00     0.141 C 
BRANCH  15  16
HETATM   16  C   UNL     1      41.467 -14.435   0.307  1.00  0.00    -0.049 A 
HETATM   17  C   UNL     1      41.842 -13.285  -0.408  1.00  0.00     0.010 A 
HETATM   18  C   UNL     1      41.836 -13.278  -1.805  1.00  0.00     0.037 A 
HETATM   19  C   UNL     1      41.464 -14.427  -2.493  1.00  0.00     0.065 A 
HETATM   20  C   UNL     1      41.102 -15.579  -1.808  1.00  0.00     0.037 A 
HETATM   21  C   UNL     1      41.114 -15.587  -0.411  1.00  0.00     0.010 A 
BRANCH  19  22
HETATM   22  O   UNL     1      41.452 -14.468  -3.856  1.00  0.00    -0.361 OA
HETATM   23  H   UNL     1      40.848 -15.172  -4.141  1.00  0.00     0.217 HD
ENDBRANCH  19  22
ENDBRANCH  15  16
ENDBRANCH   2  15
TORSDOF 4
ENDMDL
MODEL 6
REMARK VINA RESULT:      -7.8      2.180      7.772
REMARK  4 active torsions:
REMARK  status: ('A' for Active; 'I' for Inactive)
REMARK    1  A    between atoms: C_7  and  N_8 
REMARK       I    between atoms: N_8  and  C_9 
REMARK    2  A    between atoms: C_9  and  C_10 
REMARK    3  A    between atoms: C_10  and  C_11 
REMARK    4  A    between atoms: C_14  and  O_15 
ROOT
HETATM    1  N   UNL     1      42.542 -16.054   1.753  1.00  0.00    -0.326 N 
HETATM    2  C   UNL     1      42.137 -16.896   2.776  1.00  0.00     0.226 C 
HETATM    3  O   UNL     1      40.979 -17.212   3.031  1.00  0.00    -0.273 OA
HETATM    4  H   UNL     1      43.538 -15.904   1.649  1.00  0.00     0.169 HD
ENDROOT
BRANCH   1   5
HETATM    5  C   UNL     1      41.704 -15.399   0.825  1.00  0.00     0.053 A 
HETATM    6  C   UNL     1      40.954 -14.259   1.086  1.00  0.00     0.146 A 
HETATM    7  N   UNL     1      40.153 -13.644   0.176  1.00  0.00    -0.258 NA
HETATM    8  C   UNL     1      40.081 -14.164  -1.059  1.00  0.00     0.066 A 
HETATM    9  C   UNL     1      40.803 -15.315  -1.432  1.00  0.00    -0.005 A 
HETATM   10  C   UNL     1      39.274 -13.553  -2.009  1.00  0.00     0.032 A 
HETATM   11  C   UNL     1      40.700 -15.817  -2.743  1.00  0.00     0.014 A 
HETATM   12  C   UNL     1      41.614 -15.929  -0.464  1.00  0.00     0.044 A 
HETATM   13  C   UNL     1      39.886 -15.182  -3.679  1.00  0.00     0.001 A 
HETATM   14  C   UNL     1      39.169 -14.049  -3.311  1.00  0.00     0.002 A 
ENDBRANCH   1   5
BRANCH   2  15
HETATM   15  C   UNL     1      43.294 -17.431   3.608  1.00  0.00     0.141 C 
BRANCH  15  16
HETATM   16  C   UNL     1      43.708 -18.846   3.275  1.00  0.00    -0.049 A 
HETATM   17  C   UNL     1      44.444 -19.591   4.213  1.00  0.00     0.010 A 
HETATM   18  C   UNL     1      44.787 -20.921   3.958  1.00  0.00     0.037 A 
HETATM   19  C   UNL     1      44.388 -21.514   2.766  1.00  0.00     0.065 A 
HETATM   20  C   UNL     1      43.651 -20.801   1.830  1.00  0.00     0.037 A 
HETATM   21  C   UNL     1      43.301 -19.474   2.088  1.00  0.00     0.010 A 
BRANCH  19  22
HETATM   22  O   UNL     1      44.694 -22.811   2.480  1.00  0.00    -0.361 OA
HETATM   23  H   UNL     1      45.610 -22.983   2.752  1.00  0.00     0.217 HD
ENDBRANCH  19  22
ENDBRANCH  15  16
ENDBRANCH   2  15
TORSDOF 4
ENDMDL
MODEL 7
REMARK VINA RESULT:      -7.6      2.506      7.953
REMARK  4 active torsions:
REMARK  status: ('A' for Active; 'I' for Inactive)
REMARK    1  A    between atoms: C_7  and  N_8 
REMARK       I    between atoms: N_8  and  C_9 
REMARK    2  A    between atoms: C_9  and  C_10 
REMARK    3  A    between atoms: C_10  and  C_11 
REMARK    4  A    between atoms: C_14  and  O_15 
ROOT
HETATM    1  N   UNL     1      42.922 -16.369   2.645  1.00  0.00    -0.326 N 
HETATM    2  C   UNL     1      42.643 -17.324   3.609  1.00  0.00     0.226 C 
HETATM    3  O   UNL     1      41.529 -17.751   3.898  1.00  0.00    -0.273 OA
HETATM    4  H   UNL     1      43.896 -16.133   2.500  1.00  0.00     0.169 HD
ENDROOT
BRANCH   1   5
HETATM    5  C   UNL     1      41.983 -15.706   1.826  1.00  0.00     0.053 A 
HETATM    6  C   UNL     1      41.059 -14.764   2.263  1.00  0.00     0.146 A 
HETATM    7  N   UNL     1      40.164 -14.137   1.456  1.00  0.00    -0.258 NA
HETATM    8  C   UNL     1      40.168 -14.438   0.149  1.00  0.00     0.066 A 
HETATM    9  C   UNL     1      41.065 -15.376  -0.401  1.00  0.00    -0.005 A 
HETATM   10  C   UNL     1      39.267 -13.810  -0.699  1.00  0.00     0.032 A 
HETATM   11  C   UNL     1      41.036 -15.652  -1.782  1.00  0.00     0.014 A 
HETATM   12  C   UNL     1      41.971 -16.012   0.463  1.00  0.00     0.044 A 
HETATM   13  C   UNL     1      40.123 -15.004  -2.611  1.00  0.00     0.001 A 
HETATM   14  C   UNL     1      39.234 -14.082  -2.069  1.00  0.00     0.002 A 
ENDBRANCH   1   5
BRANCH   2  15
HETATM   15  C   UNL     1      43.885 -17.835   4.326  1.00  0.00     0.141 C 
BRANCH  15  16
HETATM   16  C   UNL     1      44.202 -19.291   4.076  1.00  0.00    -0.049 A 
HETATM   17  C   UNL     1      44.498 -20.131   5.163  1.00  0.00     0.010 A 
HETATM   18  C   UNL     1      44.734 -21.495   4.970  1.00  0.00     0.037 A 
HETATM   19  C   UNL     1      44.666 -22.025   3.687  1.00  0.00     0.065 A 
HETATM   20  C   UNL     1      44.364 -21.217   2.600  1.00  0.00     0.037 A 
HETATM   21  C   UNL     1      44.121 -19.855   2.794  1.00  0.00     0.010 A 
BRANCH  19  22
HETATM   22  O   UNL     1      44.880 -23.351   3.453  1.00  0.00    -0.361 OA
HETATM   23  H   UNL     1      45.782 -23.576   3.736  1.00  0.00     0.217 HD
ENDBRANCH  19  22
ENDBRANCH  15  16
ENDBRANCH   2  15
TORSDOF 4
ENDMDL
MODEL 8
REMARK VINA RESULT:      -7.6      6.645      9.693
REMARK  4 active torsions:
REMARK  status: ('A' for Active; 'I' for Inactive)
REMARK    1  A    between atoms: C_7  and  N_8 
REMARK       I    between atoms: N_8  and  C_9 
REMARK    2  A    between atoms: C_9  and  C_10 
REMARK    3  A    between atoms: C_10  and  C_11 
REMARK    4  A    between atoms: C_14  and  O_15 
ROOT
HETATM    1  N   UNL     1      44.449 -14.048   7.806  1.00  0.00    -0.326 N 
HETATM    2  C   UNL     1      45.526 -13.189   7.668  1.00  0.00     0.226 C 
HETATM    3  O   UNL     1      46.229 -13.073   6.669  1.00  0.00    -0.273 OA
HETATM    4  H   UNL     1      43.946 -14.017   8.685  1.00  0.00     0.169 HD
ENDROOT
BRANCH   1   5
HETATM    5  C   UNL     1      43.967 -14.953   6.835  1.00  0.00     0.053 A 
HETATM    6  C   UNL     1      42.952 -14.687   5.925  1.00  0.00     0.146 A 
HETATM    7  N   UNL     1      42.503 -15.573   4.997  1.00  0.00    -0.258 NA
HETATM    8  C   UNL     1      43.076 -16.785   4.949  1.00  0.00     0.066 A 
HETATM    9  C   UNL     1      44.116 -17.158   5.823  1.00  0.00    -0.005 A 
HETATM   10  C   UNL     1      42.640 -17.709   4.009  1.00  0.00     0.032 A 
HETATM   11  C   UNL     1      44.691 -18.440   5.727  1.00  0.00     0.014 A 
HETATM   12  C   UNL     1      44.549 -16.220   6.775  1.00  0.00     0.044 A 
HETATM   13  C   UNL     1      44.237 -19.347   4.772  1.00  0.00     0.001 A 
HETATM   14  C   UNL     1      43.208 -18.982   3.912  1.00  0.00     0.002 A 
ENDBRANCH   1   5
BRANCH   2  15
HETATM   15  C   UNL     1      45.791 -12.352   8.912  1.00  0.00     0.141 C 
BRANCH  15  16
HETATM   16  C   UNL     1      44.550 -11.928   9.662  1.00  0.00    -0.049 A 
HETATM   17  C   UNL     1      44.417 -12.257  11.022  1.00  0.00     0.010 A 
HETATM   18  C   UNL     1      43.310 -11.826  11.757  1.00  0.00     0.037 A 
HETATM   19  C   UNL     1      42.335 -11.055  11.136  1.00  0.00     0.065 A 
HETATM   20  C   UNL     1      42.450 -10.708   9.797  1.00  0.00     0.037 A 
HETATM   21  C   UNL     1      43.561 -11.133   9.064  1.00  0.00     0.010 A 
BRANCH  19  22
HETATM   22  O   UNL     1      41.242 -10.606  11.816  1.00  0.00    -0.361 OA
HETATM   23  H   UNL     1      40.632 -10.190  11.186  1.00  0.00     0.217 HD
ENDBRANCH  19  22
ENDBRANCH  15  16
ENDBRANCH   2  15
TORSDOF 4
ENDMDL
MODEL 9
REMARK VINA RESULT:      -7.5      3.154      3.722
REMARK  4 active torsions:
REMARK  status: ('A' for Active; 'I' for Inactive)
REMARK    1  A    between atoms: C_7  and  N_8 
REMARK       I    between atoms: N_8  and  C_9 
REMARK    2  A    between atoms: C_9  and  C_10 
REMARK    3  A    between atoms: C_10  and  C_11 
REMARK    4  A    between atoms: C_14  and  O_15 
ROOT
HETATM    1  N   UNL     1      42.895 -16.209   3.932  1.00  0.00    -0.326 N 
HETATM    2  C   UNL     1      41.802 -15.717   4.626  1.00  0.00     0.226 C 
HETATM    3  O   UNL     1      41.110 -16.350   5.418  1.00  0.00    -0.273 OA
HETATM    4  H   UNL     1      43.386 -15.561   3.329  1.00  0.00     0.169 HD
ENDROOT
BRANCH   1   5
HETATM    5  C   UNL     1      43.408 -17.523   3.998  1.00  0.00     0.053 A 
HETATM    6  C   UNL     1      44.113 -18.057   5.069  1.00  0.00     0.146 A 
HETATM    7  N   UNL     1      44.599 -19.326   5.111  1.00  0.00    -0.258 NA
HETATM    8  C   UNL     1      44.384 -20.122   4.053  1.00  0.00     0.066 A 
HETATM    9  C   UNL     1      43.678 -19.683   2.915  1.00  0.00    -0.005 A 
HETATM   10  C   UNL     1      44.865 -21.424   4.070  1.00  0.00     0.032 A 
HETATM   11  C   UNL     1      43.470 -20.560   1.833  1.00  0.00     0.014 A 
HETATM   12  C   UNL     1      43.197 -18.363   2.903  1.00  0.00     0.044 A 
HETATM   13  C   UNL     1      43.961 -21.864   1.879  1.00  0.00     0.001 A 
HETATM   14  C   UNL     1      44.662 -22.296   2.998  1.00  0.00     0.002 A 
ENDBRANCH   1   5
BRANCH   2  15
HETATM   15  C   UNL     1      41.503 -14.257   4.320  1.00  0.00     0.141 C 
BRANCH  15  16
HETATM   16  C   UNL     1      40.423 -14.039   3.285  1.00  0.00    -0.049 A 
HETATM   17  C   UNL     1      39.876 -15.145   2.613  1.00  0.00     0.010 A 
HETATM   18  C   UNL     1      38.834 -14.981   1.696  1.00  0.00     0.037 A 
HETATM   19  C   UNL     1      38.330 -13.708   1.455  1.00  0.00     0.065 A 
HETATM   20  C   UNL     1      38.847 -12.602   2.117  1.00  0.00     0.037 A 
HETATM   21  C   UNL     1      39.883 -12.768   3.038  1.00  0.00     0.010 A 
BRANCH  19  22
HETATM   22  O   UNL     1      37.309 -13.502   0.576  1.00  0.00    -0.361 OA
HETATM   23  H   UNL     1      37.522 -13.947  -0.260  1.00  0.00     0.217 HD
ENDBRANCH  19  22
ENDBRANCH  15  16
ENDBRANCH   2  15
TORSDOF 4
ENDMDL
MODEL 10
REMARK VINA RESULT:      -7.4      1.115      2.202
REMARK  4 active torsions:
REMARK  status: ('A' for Active; 'I' for Inactive)
REMARK    1  A    between atoms: C_7  and  N_8 
REMARK       I    between atoms: N_8  and  C_9 
REMARK    2  A    between atoms: C_9  and  C_10 
REMARK    3  A    between atoms: C_10  and  C_11 
REMARK    4  A    between atoms: C_14  and  O_15 
ROOT
HETATM    1  N   UNL     1      42.546 -15.824   0.700  1.00  0.00    -0.326 N 
HETATM    2  C   UNL     1      41.234 -15.386   0.623  1.00  0.00     0.226 C 
HETATM    3  O   UNL     1      40.285 -15.845   1.251  1.00  0.00    -0.273 OA
HETATM    4  H   UNL     1      43.229 -15.330   0.138  1.00  0.00     0.169 HD
ENDROOT
BRANCH   1   5
HETATM    5  C   UNL     1      43.033 -16.878   1.502  1.00  0.00     0.053 A 
HETATM    6  C   UNL     1      43.379 -18.143   1.043  1.00  0.00     0.146 A 
HETATM    7  N   UNL     1      43.846 -19.144   1.834  1.00  0.00    -0.258 NA
HETATM    8  C   UNL     1      43.988 -18.902   3.146  1.00  0.00     0.066 A 
HETATM    9  C   UNL     1      43.669 -17.654   3.717  1.00  0.00    -0.005 A 
HETATM   10  C   UNL     1      44.467 -19.906   3.977  1.00  0.00     0.032 A 
HETATM   11  C   UNL     1      43.844 -17.446   5.098  1.00  0.00     0.014 A 
HETATM   12  C   UNL     1      43.182 -16.644   2.871  1.00  0.00     0.044 A 
HETATM   13  C   UNL     1      44.330 -18.470   5.909  1.00  0.00     0.001 A 
HETATM   14  C   UNL     1      44.640 -19.704   5.348  1.00  0.00     0.002 A 
ENDBRANCH   1   5
BRANCH   2  15
HETATM   15  C   UNL     1      41.042 -14.231  -0.351  1.00  0.00     0.141 C 
BRANCH  15  16
HETATM   16  C   UNL     1      40.302 -14.593  -1.618  1.00  0.00    -0.049 A 
HETATM   17  C   UNL     1      40.762 -15.661  -2.407  1.00  0.00     0.010 A 
HETATM   18  C   UNL     1      40.064 -16.058  -3.551  1.00  0.00     0.037 A 
HETATM   19  C   UNL     1      38.895 -15.393  -3.903  1.00  0.00     0.065 A 
HETATM   20  C   UNL     1      38.415 -14.343  -3.132  1.00  0.00     0.037 A 
HETATM   21  C   UNL     1      39.110 -13.952  -1.985  1.00  0.00     0.010 A 
BRANCH  19  22
HETATM   22  O   UNL     1      38.178 -15.752  -5.005  1.00  0.00    -0.361 OA
HETATM   23  H   UNL     1      38.791 -16.066  -5.689  1.00  0.00     0.217 HD
ENDBRANCH  19  22
ENDBRANCH  15  16
ENDBRANCH   2  15
TORSDOF 4
ENDMDL
