MODEL 1
REMARK VINA RESULT:      -8.2      0.000      0.000
REMARK  4 active torsions:
REMARK  status: ('A' for Active; 'I' for Inactive)
REMARK    1  A    between atoms: C_7  and  C_8 
REMARK    2  A    between atoms: C_8  and  N_9 
REMARK    3  A    between atoms: N_15  and  C_17 
REMARK    4  A    between atoms: C_21  and  C_22 
ROOT
HETATM    1  N   UNL     1      43.928 -13.321   6.111  1.00  0.00    -0.067 N 
HETATM    2  H   UNL     1      44.438 -12.432   5.991  1.00  0.00     0.280 HD
HETATM    3  C   UNL     1      44.290 -14.158   4.919  1.00  0.00     0.236 C 
HETATM    4  C   UNL     1      43.451 -15.434   4.875  1.00  0.00     0.039 C 
HETATM    5  C   UNL     1      41.915 -15.204   4.923  1.00  0.00    -0.013 C 
HETATM    6  C   UNL     1      41.367 -14.616   3.597  1.00  0.00     0.245 C 
HETATM    7  N   UNL     1      41.419 -15.632   2.482  1.00  0.00    -0.065 N 
HETATM    8  H   UNL     1      42.388 -15.950   2.341  1.00  0.00     0.280 HD
HETATM    9  C   UNL     1      40.592 -16.877   2.793  1.00  0.00     0.244 C 
HETATM   10  C   UNL     1      41.128 -17.571   4.058  1.00  0.00     0.045 C 
HETATM   11  C   UNL     1      41.153 -16.535   5.213  1.00  0.00     0.022 C 
HETATM   12  C   UNL     1      41.611 -14.233   6.107  1.00  0.00     0.039 C 
HETATM   13  C   UNL     1      42.472 -12.972   6.155  1.00  0.00     0.236 C 
ENDROOT
BRANCH   7  14
HETATM   14  C   UNL     1      40.977 -15.029   1.178  1.00  0.00     0.188 A 
HETATM   15  C   UNL     1      42.061 -14.561   0.248  1.00  0.00     0.035 A 
HETATM   16  C   UNL     1      41.283 -15.806  -0.071  1.00  0.00     0.035 A 
ENDBRANCH   7  14
BRANCH  10  17
HETATM   17  C   UNL     1      42.432 -18.351   3.914  1.00  0.00    -0.052 A 
HETATM   18  C   UNL     1      42.996 -18.710   2.678  1.00  0.00     0.007 A 
HETATM   19  C   UNL     1      44.201 -19.420   2.613  1.00  0.00     0.001 A 
HETATM   20  C   UNL     1      44.851 -19.810   3.778  1.00  0.00     0.000 A 
HETATM   21  C   UNL     1      44.286 -19.514   5.012  1.00  0.00     0.001 A 
HETATM   22  C   UNL     1      43.085 -18.805   5.078  1.00  0.00     0.007 A 
ENDBRANCH  10  17
BRANCH   1  23
HETATM   23  C   UNL     1      44.485 -13.824   7.444  1.00  0.00     0.277 C 
BRANCH  23  24
HETATM   24  C   UNL     1      44.795 -12.710   8.372  1.00  0.00     0.011 A 
HETATM   25  C   UNL     1      45.999 -11.954   8.448  1.00  0.00     0.060 A 
HETATM   26  C   UNL     1      47.257 -12.116   7.675  1.00  0.00     0.073 C 
HETATM   27  N   UNL     1      45.893 -10.960   9.331  1.00  0.00    -0.178 NA
HETATM   28  N   UNL     1      44.696 -11.133   9.906  1.00  0.00    -0.284 N 
HETATM   29  C   UNL     1      44.269 -10.248  10.965  1.00  0.00     0.179 C 
HETATM   30  C   UNL     1      43.981 -12.155   9.344  1.00  0.00     0.122 A 
ENDBRANCH  23  24
ENDBRANCH   1  23
TORSDOF 4
ENDMDL
MODEL 2
REMARK VINA RESULT:      -7.7      3.333      7.888
REMARK  4 active torsions:
REMARK  status: ('A' for Active; 'I' for Inactive)
REMARK    1  A    between atoms: C_7  and  C_8 
REMARK    2  A    between atoms: C_8  and  N_9 
REMARK    3  A    between atoms: N_15  and  C_17 
REMARK    4  A    between atoms: C_21  and  C_22 
ROOT
HETATM    1  N   UNL     1      42.099 -15.645   0.396  1.00  0.00    -0.067 N 
HETATM    2  H   UNL     1      42.528 -15.682  -0.541  1.00  0.00     0.280 HD
HETATM    3  C   UNL     1      43.240 -15.735   1.366  1.00  0.00     0.236 C 
HETATM    4  C   UNL     1      42.727 -15.882   2.797  1.00  0.00     0.039 C 
HETATM    5  C   UNL     1      41.742 -17.064   3.017  1.00  0.00    -0.013 C 
HETATM    6  C   UNL     1      42.455 -18.440   2.968  1.00  0.00     0.245 C 
HETATM    7  N   UNL     1      43.340 -18.644   4.173  1.00  0.00    -0.065 N 
HETATM    8  H   UNL     1      44.044 -17.896   4.222  1.00  0.00     0.280 HD
HETATM    9  C   UNL     1      42.557 -18.595   5.483  1.00  0.00     0.244 C 
HETATM   10  C   UNL     1      41.882 -17.220   5.648  1.00  0.00     0.045 C 
HETATM   11  C   UNL     1      41.014 -16.945   4.392  1.00  0.00     0.022 C 
HETATM   12  C   UNL     1      40.646 -16.987   1.908  1.00  0.00     0.039 C 
HETATM   13  C   UNL     1      41.169 -16.816   0.482  1.00  0.00     0.236 C 
ENDROOT
BRANCH   7  14
HETATM   14  C   UNL     1      44.101 -19.936   4.075  1.00  0.00     0.188 A 
HETATM   15  C   UNL     1      45.527 -19.919   4.552  1.00  0.00     0.035 A 
HETATM   16  C   UNL     1      44.469 -20.610   5.365  1.00  0.00     0.035 A 
ENDBRANCH   7  14
BRANCH  10  17
HETATM   17  C   UNL     1      42.787 -16.051   6.029  1.00  0.00    -0.052 A 
HETATM   18  C   UNL     1      44.046 -16.202   6.634  1.00  0.00     0.007 A 
HETATM   19  C   UNL     1      44.832 -15.088   6.951  1.00  0.00     0.001 A 
HETATM   20  C   UNL     1      44.367 -13.803   6.698  1.00  0.00     0.000 A 
HETATM   21  C   UNL     1      43.103 -13.626   6.149  1.00  0.00     0.001 A 
HETATM   22  C   UNL     1      42.318 -14.736   5.832  1.00  0.00     0.007 A 
ENDBRANCH  10  17
BRANCH   1  23
HETATM   23  C   UNL     1      41.388 -14.291   0.362  1.00  0.00     0.277 C 
BRANCH  23  24
HETATM   24  C   UNL     1      40.226 -14.296  -0.559  1.00  0.00     0.011 A 
HETATM   25  C   UNL     1      38.854 -14.114  -0.226  1.00  0.00     0.060 A 
HETATM   26  C   UNL     1      38.230 -13.934   1.110  1.00  0.00     0.073 C 
HETATM   27  N   UNL     1      38.090 -14.075  -1.318  1.00  0.00    -0.178 NA
HETATM   28  N   UNL     1      38.922 -14.346  -2.333  1.00  0.00    -0.284 N 
HETATM   29  C   UNL     1      38.410 -14.437  -3.681  1.00  0.00     0.179 C 
HETATM   30  C   UNL     1      40.225 -14.458  -1.934  1.00  0.00     0.122 A 
ENDBRANCH  23  24
ENDBRANCH   1  23
TORSDOF 4
ENDMDL
MODEL 3
REMARK VINA RESULT:      -7.7      3.342      7.764
REMARK  4 active torsions:
REMARK  status: ('A' for Active; 'I' for Inactive)
REMARK    1  A    between atoms: C_7  and  C_8 
REMARK    2  A    between atoms: C_8  and  N_9 
REMARK    3  A    between atoms: N_15  and  C_17 
REMARK    4  A    between atoms: C_21  and  C_22 
ROOT
HETATM    1  N   UNL     1      42.143 -15.861   0.333  1.00  0.00    -0.067 N 
HETATM    2  H   UNL     1      42.592 -15.915  -0.594  1.00  0.00     0.280 HD
HETATM    3  C   UNL     1      43.266 -15.876   1.328  1.00  0.00     0.236 C 
HETATM    4  C   UNL     1      42.729 -15.992   2.753  1.00  0.00     0.039 C 
HETATM    5  C   UNL     1      41.782 -17.201   2.995  1.00  0.00    -0.013 C 
HETATM    6  C   UNL     1      42.544 -18.551   3.009  1.00  0.00     0.245 C 
HETATM    7  N   UNL     1      43.411 -18.681   4.238  1.00  0.00    -0.065 N 
HETATM    8  H   UNL     1      44.087 -17.906   4.275  1.00  0.00     0.280 HD
HETATM    9  C   UNL     1      42.599 -18.614   5.529  1.00  0.00     0.244 C 
HETATM   10  C   UNL     1      41.873 -17.260   5.633  1.00  0.00     0.045 C 
HETATM   11  C   UNL     1      41.022 -17.060   4.350  1.00  0.00     0.022 C 
HETATM   12  C   UNL     1      40.707 -17.202   1.863  1.00  0.00     0.039 C 
HETATM   13  C   UNL     1      41.253 -17.061   0.443  1.00  0.00     0.236 C 
ENDROOT
BRANCH   7  14
HETATM   14  C   UNL     1      44.219 -19.947   4.200  1.00  0.00     0.188 A 
HETATM   15  C   UNL     1      45.584 -19.896   4.828  1.00  0.00     0.035 A 
HETATM   16  C   UNL     1      44.469 -20.635   5.511  1.00  0.00     0.035 A 
ENDBRANCH   7  14
BRANCH  10  17
HETATM   17  C   UNL     1      42.727 -16.047   5.989  1.00  0.00    -0.052 A 
HETATM   18  C   UNL     1      43.996 -16.132   6.586  1.00  0.00     0.007 A 
HETATM   19  C   UNL     1      44.734 -14.980   6.882  1.00  0.00     0.001 A 
HETATM   20  C   UNL     1      44.210 -13.721   6.614  1.00  0.00     0.000 A 
HETATM   21  C   UNL     1      42.936 -13.608   6.073  1.00  0.00     0.001 A 
HETATM   22  C   UNL     1      42.199 -14.757   5.778  1.00  0.00     0.007 A 
ENDBRANCH  10  17
BRANCH   1  23
HETATM   23  C   UNL     1      41.385 -14.536   0.238  1.00  0.00     0.277 C 
BRANCH  23  24
HETATM   24  C   UNL     1      41.631 -13.847  -1.052  1.00  0.00     0.011 A 
HETATM   25  C   UNL     1      41.339 -14.326  -2.361  1.00  0.00     0.060 A 
HETATM   26  C   UNL     1      40.778 -15.637  -2.775  1.00  0.00     0.073 C 
HETATM   27  N   UNL     1      41.597 -13.400  -3.286  1.00  0.00    -0.178 NA
HETATM   28  N   UNL     1      42.157 -12.386  -2.614  1.00  0.00    -0.284 N 
HETATM   29  C   UNL     1      42.617 -11.215  -3.325  1.00  0.00     0.179 C 
HETATM   30  C   UNL     1      42.174 -12.591  -1.262  1.00  0.00     0.122 A 
ENDBRANCH  23  24
ENDBRANCH   1  23
TORSDOF 4
ENDMDL
MODEL 4
REMARK VINA RESULT:      -7.6      3.804      7.547
REMARK  4 active torsions:
REMARK  status: ('A' for Active; 'I' for Inactive)
REMARK    1  A    between atoms: C_7  and  C_8 
REMARK    2  A    between atoms: C_8  and  N_9 
REMARK    3  A    between atoms: N_15  and  C_17 
REMARK    4  A    between atoms: C_21  and  C_22 
ROOT
HETATM    1  N   UNL     1      43.693 -17.811   3.438  1.00  0.00    -0.067 N 
HETATM    2  H   UNL     1      44.521 -17.934   4.040  1.00  0.00     0.280 HD
HETATM    3  C   UNL     1      43.762 -16.398   2.939  1.00  0.00     0.236 C 
HETATM    4  C   UNL     1      42.488 -16.024   2.183  1.00  0.00     0.039 C 
HETATM    5  C   UNL     1      41.171 -16.248   2.978  1.00  0.00    -0.013 C 
HETATM    6  C   UNL     1      40.986 -15.208   4.113  1.00  0.00     0.245 C 
HETATM    7  N   UNL     1      40.697 -13.834   3.558  1.00  0.00    -0.065 N 
HETATM    8  H   UNL     1      41.464 -13.535   2.942  1.00  0.00     0.280 HD
HETATM    9  C   UNL     1      39.423 -13.806   2.716  1.00  0.00     0.244 C 
HETATM   10  C   UNL     1      39.560 -14.757   1.513  1.00  0.00     0.045 C 
HETATM   11  C   UNL     1      39.925 -16.170   2.042  1.00  0.00     0.022 C 
HETATM   12  C   UNL     1      41.209 -17.691   3.573  1.00  0.00     0.039 C 
HETATM   13  C   UNL     1      42.497 -18.063   4.306  1.00  0.00     0.236 C 
ENDROOT
BRANCH   7  14
HETATM   14  C   UNL     1      40.612 -12.812   4.657  1.00  0.00     0.188 A 
HETATM   15  C   UNL     1      41.503 -11.608   4.529  1.00  0.00     0.035 A 
HETATM   16  C   UNL     1      40.024 -11.477   4.302  1.00  0.00     0.035 A 
ENDBRANCH   7  14
BRANCH  10  17
HETATM   17  C   UNL     1      40.449 -14.290   0.364  1.00  0.00    -0.052 A 
HETATM   18  C   UNL     1      41.155 -13.076   0.366  1.00  0.00     0.007 A 
HETATM   19  C   UNL     1      41.963 -12.708  -0.717  1.00  0.00     0.001 A 
HETATM   20  C   UNL     1      42.059 -13.529  -1.833  1.00  0.00     0.000 A 
HETATM   21  C   UNL     1      41.329 -14.710  -1.882  1.00  0.00     0.001 A 
HETATM   22  C   UNL     1      40.524 -15.078  -0.802  1.00  0.00     0.007 A 
ENDBRANCH  10  17
BRANCH   1  23
HETATM   23  C   UNL     1      43.919 -18.883   2.371  1.00  0.00     0.277 C 
BRANCH  23  24
HETATM   24  C   UNL     1      44.219 -20.207   2.968  1.00  0.00     0.011 A 
HETATM   25  C   UNL     1      44.127 -21.482   2.342  1.00  0.00     0.060 A 
HETATM   26  C   UNL     1      43.660 -21.823   0.974  1.00  0.00     0.073 C 
HETATM   27  N   UNL     1      44.573 -22.450   3.143  1.00  0.00    -0.178 NA
HETATM   28  N   UNL     1      44.838 -21.842   4.307  1.00  0.00    -0.284 N 
HETATM   29  C   UNL     1      45.298 -22.616   5.437  1.00  0.00     0.179 C 
HETATM   30  C   UNL     1      44.670 -20.486   4.247  1.00  0.00     0.122 A 
ENDBRANCH  23  24
ENDBRANCH   1  23
TORSDOF 4
ENDMDL
MODEL 5
REMARK VINA RESULT:      -7.5      3.801      6.929
REMARK  4 active torsions:
REMARK  status: ('A' for Active; 'I' for Inactive)
REMARK    1  A    between atoms: C_7  and  C_8 
REMARK    2  A    between atoms: C_8  and  N_9 
REMARK    3  A    between atoms: N_15  and  C_17 
REMARK    4  A    between atoms: C_21  and  C_22 
ROOT
HETATM    1  N   UNL     1      42.625 -17.643   3.374  1.00  0.00    -0.067 N 
HETATM    2  H   UNL     1      42.378 -18.643   3.334  1.00  0.00     0.280 HD
HETATM    3  C   UNL     1      41.357 -16.927   3.735  1.00  0.00     0.236 C 
HETATM    4  C   UNL     1      41.540 -15.413   3.640  1.00  0.00     0.039 C 
HETATM    5  C   UNL     1      42.071 -14.906   2.271  1.00  0.00    -0.013 C 
HETATM    6  C   UNL     1      40.999 -15.000   1.154  1.00  0.00     0.245 C 
HETATM    7  N   UNL     1      39.894 -13.993   1.367  1.00  0.00    -0.065 N 
HETATM    8  H   UNL     1      39.450 -14.147   2.282  1.00  0.00     0.280 HD
HETATM    9  C   UNL     1      40.412 -12.557   1.368  1.00  0.00     0.244 C 
HETATM   10  C   UNL     1      41.427 -12.358   2.509  1.00  0.00     0.045 C 
HETATM   11  C   UNL     1      42.546 -13.423   2.362  1.00  0.00     0.022 C 
HETATM   12  C   UNL     1      43.318 -15.766   1.891  1.00  0.00     0.039 C 
HETATM   13  C   UNL     1      43.131 -17.277   2.012  1.00  0.00     0.236 C 
ENDROOT
BRANCH   7  14
HETATM   14  C   UNL     1      38.811 -14.151   0.337  1.00  0.00     0.188 A 
HETATM   15  C   UNL     1      37.399 -14.222   0.847  1.00  0.00     0.035 A 
HETATM   16  C   UNL     1      37.882 -12.987   0.141  1.00  0.00     0.035 A 
ENDBRANCH   7  14
BRANCH  10  17
HETATM   17  C   UNL     1      40.862 -12.261   3.924  1.00  0.00    -0.052 A 
HETATM   18  C   UNL     1      39.491 -12.327   4.224  1.00  0.00     0.007 A 
HETATM   19  C   UNL     1      39.036 -12.241   5.545  1.00  0.00     0.001 A 
HETATM   20  C   UNL     1      39.936 -12.060   6.588  1.00  0.00     0.000 A 
HETATM   21  C   UNL     1      41.292 -11.938   6.312  1.00  0.00     0.001 A 
HETATM   22  C   UNL     1      41.747 -12.025   4.995  1.00  0.00     0.007 A 
ENDBRANCH  10  17
BRANCH   1  23
HETATM   23  C   UNL     1      43.704 -17.629   4.459  1.00  0.00     0.277 C 
BRANCH  23  24
HETATM   24  C   UNL     1      44.010 -18.992   4.955  1.00  0.00     0.011 A 
HETATM   25  C   UNL     1      43.908 -19.472   6.291  1.00  0.00     0.060 A 
HETATM   26  C   UNL     1      43.532 -18.735   7.525  1.00  0.00     0.073 C 
HETATM   27  N   UNL     1      44.164 -20.779   6.359  1.00  0.00    -0.178 NA
HETATM   28  N   UNL     1      44.543 -21.122   5.121  1.00  0.00    -0.284 N 
HETATM   29  C   UNL     1      44.951 -22.480   4.841  1.00  0.00     0.179 C 
HETATM   30  C   UNL     1      44.439 -20.090   4.229  1.00  0.00     0.122 A 
ENDBRANCH  23  24
ENDBRANCH   1  23
TORSDOF 4
ENDMDL
MODEL 6
REMARK VINA RESULT:      -7.4      4.178      7.512
REMARK  4 active torsions:
REMARK  status: ('A' for Active; 'I' for Inactive)
REMARK    1  A    between atoms: C_7  and  C_8 
REMARK    2  A    between atoms: C_8  and  N_9 
REMARK    3  A    between atoms: N_15  and  C_17 
REMARK    4  A    between atoms: C_21  and  C_22 
ROOT
HETATM    1  N   UNL     1      42.865 -16.477   3.383  1.00  0.00    -0.067 N 
HETATM    2  H   UNL     1      43.365 -16.700   4.257  1.00  0.00     0.280 HD
HETATM    3  C   UNL     1      42.955 -14.986   3.234  1.00  0.00     0.236 C 
HETATM    4  C   UNL     1      42.089 -14.502   2.073  1.00  0.00     0.039 C 
HETATM    5  C   UNL     1      40.600 -14.944   2.144  1.00  0.00    -0.013 C 
HETATM    6  C   UNL     1      39.815 -14.188   3.247  1.00  0.00     0.245 C 
HETATM    7  N   UNL     1      39.613 -12.738   2.882  1.00  0.00    -0.065 N 
HETATM    8  H   UNL     1      40.524 -12.282   2.737  1.00  0.00     0.280 HD
HETATM    9  C   UNL     1      38.829 -12.570   1.583  1.00  0.00     0.244 C 
HETATM   10  C   UNL     1      39.589 -13.225   0.415  1.00  0.00     0.045 C 
HETATM   11  C   UNL     1      39.875 -14.706   0.783  1.00  0.00     0.022 C 
HETATM   12  C   UNL     1      40.569 -16.481   2.419  1.00  0.00     0.039 C 
HETATM   13  C   UNL     1      41.457 -16.958   3.566  1.00  0.00     0.236 C 
ENDROOT
BRANCH   7  14
HETATM   14  C   UNL     1      38.936 -11.988   3.995  1.00  0.00     0.188 A 
HETATM   15  C   UNL     1      39.617 -10.738   4.480  1.00  0.00     0.035 A 
HETATM   16  C   UNL     1      38.363 -10.641   3.659  1.00  0.00     0.035 A 
ENDBRANCH   7  14
BRANCH  10  17
HETATM   17  C   UNL     1      40.814 -12.484  -0.112  1.00  0.00    -0.052 A 
HETATM   18  C   UNL     1      41.261 -11.252   0.396  1.00  0.00     0.007 A 
HETATM   19  C   UNL     1      42.399 -10.626  -0.125  1.00  0.00     0.001 A 
HETATM   20  C   UNL     1      43.096 -11.200  -1.181  1.00  0.00     0.000 A 
HETATM   21  C   UNL     1      42.644 -12.390  -1.737  1.00  0.00     0.001 A 
HETATM   22  C   UNL     1      41.509 -13.016  -1.217  1.00  0.00     0.007 A 
ENDBRANCH  10  17
BRANCH   1  23
HETATM   23  C   UNL     1      43.662 -17.277   2.352  1.00  0.00     0.277 C 
BRANCH  23  24
HETATM   24  C   UNL     1      43.981 -18.643   2.835  1.00  0.00     0.011 A 
HETATM   25  C   UNL     1      44.361 -19.031   4.151  1.00  0.00     0.060 A 
HETATM   26  C   UNL     1      44.592 -18.182   5.348  1.00  0.00     0.073 C 
HETATM   27  N   UNL     1      44.472 -20.356   4.254  1.00  0.00    -0.178 NA
HETATM   28  N   UNL     1      44.287 -20.816   3.010  1.00  0.00    -0.284 N 
HETATM   29  C   UNL     1      44.392 -22.232   2.741  1.00  0.00     0.179 C 
HETATM   30  C   UNL     1      43.959 -19.829   2.122  1.00  0.00     0.122 A 
ENDBRANCH  23  24
ENDBRANCH   1  23
TORSDOF 4
ENDMDL
MODEL 7
REMARK VINA RESULT:      -7.3      4.227      7.366
REMARK  4 active torsions:
REMARK  status: ('A' for Active; 'I' for Inactive)
REMARK    1  A    between atoms: C_7  and  C_8 
REMARK    2  A    between atoms: C_8  and  N_9 
REMARK    3  A    between atoms: N_15  and  C_17 
REMARK    4  A    between atoms: C_21  and  C_22 
ROOT
HETATM    1  N   UNL     1      41.753 -15.202   3.436  1.00  0.00    -0.067 N 
HETATM    2  H   UNL     1      41.649 -15.224   4.462  1.00  0.00     0.280 HD
HETATM    3  C   UNL     1      41.416 -13.798   3.026  1.00  0.00     0.236 C 
HETATM    4  C   UNL     1      41.347 -13.677   1.505  1.00  0.00     0.039 C 
HETATM    5  C   UNL     1      40.383 -14.683   0.816  1.00  0.00    -0.013 C 
HETATM    6  C   UNL     1      38.894 -14.334   1.064  1.00  0.00     0.245 C 
HETATM    7  N   UNL     1      38.492 -13.079   0.327  1.00  0.00    -0.065 N 
HETATM    8  H   UNL     1      39.082 -12.292   0.626  1.00  0.00     0.280 HD
HETATM    9  C   UNL     1      38.672 -13.212  -1.183  1.00  0.00     0.244 C 
HETATM   10  C   UNL     1      40.151 -13.478  -1.522  1.00  0.00     0.045 C 
HETATM   11  C   UNL     1      40.620 -14.726  -0.726  1.00  0.00     0.022 C 
HETATM   12  C   UNL     1      40.701 -16.108   1.369  1.00  0.00     0.039 C 
HETATM   13  C   UNL     1      40.792 -16.213   2.891  1.00  0.00     0.236 C 
ENDROOT
BRANCH   7  14
HETATM   14  C   UNL     1      37.075 -12.693   0.646  1.00  0.00     0.188 A 
HETATM   15  C   UNL     1      36.867 -11.338   1.264  1.00  0.00     0.035 A 
HETATM   16  C   UNL     1      36.473 -11.581  -0.164  1.00  0.00     0.035 A 
ENDBRANCH   7  14
BRANCH  10  17
HETATM   17  C   UNL     1      41.106 -12.293  -1.411  1.00  0.00    -0.052 A 
HETATM   18  C   UNL     1      42.489 -12.380  -1.644  1.00  0.00     0.007 A 
HETATM   19  C   UNL     1      43.312 -11.253  -1.534  1.00  0.00     0.001 A 
HETATM   20  C   UNL     1      42.778 -10.025  -1.163  1.00  0.00     0.000 A 
HETATM   21  C   UNL     1      41.422  -9.925  -0.876  1.00  0.00     0.001 A 
HETATM   22  C   UNL     1      40.601 -11.048  -0.986  1.00  0.00     0.007 A 
ENDBRANCH  10  17
BRANCH   1  23
HETATM   23  C   UNL     1      43.223 -15.588   3.261  1.00  0.00     0.277 C 
BRANCH  23  24
HETATM   24  C   UNL     1      43.488 -16.978   3.704  1.00  0.00     0.011 A 
HETATM   25  C   UNL     1      43.773 -18.109   2.887  1.00  0.00     0.060 A 
HETATM   26  C   UNL     1      43.820 -18.207   1.406  1.00  0.00     0.073 C 
HETATM   27  N   UNL     1      44.062 -19.181   3.626  1.00  0.00    -0.178 NA
HETATM   28  N   UNL     1      43.854 -18.796   4.892  1.00  0.00    -0.284 N 
HETATM   29  C   UNL     1      44.025 -19.741   5.971  1.00  0.00     0.179 C 
HETATM   30  C   UNL     1      43.536 -17.470   4.997  1.00  0.00     0.122 A 
ENDBRANCH  23  24
ENDBRANCH   1  23
TORSDOF 4
ENDMDL
MODEL 8
REMARK VINA RESULT:      -7.3      3.872      6.912
REMARK  4 active torsions:
REMARK  status: ('A' for Active; 'I' for Inactive)
REMARK    1  A    between atoms: C_7  and  C_8 
REMARK    2  A    between atoms: C_8  and  N_9 
REMARK    3  A    between atoms: N_15  and  C_17 
REMARK    4  A    between atoms: C_21  and  C_22 
ROOT
HETATM    1  N   UNL     1      42.632 -17.580   2.970  1.00  0.00    -0.067 N 
HETATM    2  H   UNL     1      42.382 -18.580   2.935  1.00  0.00     0.280 HD
HETATM    3  C   UNL     1      41.393 -16.869   3.430  1.00  0.00     0.236 C 
HETATM    4  C   UNL     1      41.571 -15.355   3.342  1.00  0.00     0.039 C 
HETATM    5  C   UNL     1      42.002 -14.830   1.944  1.00  0.00    -0.013 C 
HETATM    6  C   UNL     1      40.853 -14.909   0.907  1.00  0.00     0.245 C 
HETATM    7  N   UNL     1      39.767 -13.906   1.211  1.00  0.00    -0.065 N 
HETATM    8  H   UNL     1      39.389 -14.071   2.153  1.00  0.00     0.280 HD
HETATM    9  C   UNL     1      40.285 -12.469   1.194  1.00  0.00     0.244 C 
HETATM   10  C   UNL     1      41.379 -12.285   2.261  1.00  0.00     0.045 C 
HETATM   11  C   UNL     1      42.484 -13.348   2.021  1.00  0.00     0.022 C 
HETATM   12  C   UNL     1      43.218 -15.684   1.465  1.00  0.00     0.039 C 
HETATM   13  C   UNL     1      43.039 -17.197   1.579  1.00  0.00     0.236 C 
ENDROOT
BRANCH   7  14
HETATM   14  C   UNL     1      38.613 -14.050   0.260  1.00  0.00     0.188 A 
HETATM   15  C   UNL     1      37.264 -14.318   0.869  1.00  0.00     0.035 A 
HETATM   16  C   UNL     1      37.571 -12.969   0.283  1.00  0.00     0.035 A 
ENDBRANCH   7  14
BRANCH  10  17
HETATM   17  C   UNL     1      40.917 -12.207   3.714  1.00  0.00    -0.052 A 
HETATM   18  C   UNL     1      41.794 -12.166   4.811  1.00  0.00     0.007 A 
HETATM   19  C   UNL     1      41.308 -12.086   6.121  1.00  0.00     0.001 A 
HETATM   20  C   UNL     1      39.940 -12.073   6.364  1.00  0.00     0.000 A 
HETATM   21  C   UNL     1      39.052 -12.166   5.300  1.00  0.00     0.001 A 
HETATM   22  C   UNL     1      39.536 -12.245   3.992  1.00  0.00     0.007 A 
ENDBRANCH  10  17
BRANCH   1  23
HETATM   23  C   UNL     1      43.786 -17.580   3.974  1.00  0.00     0.277 C 
BRANCH  23  24
HETATM   24  C   UNL     1      43.874 -18.859   4.719  1.00  0.00     0.011 A 
HETATM   25  C   UNL     1      44.404 -20.097   4.256  1.00  0.00     0.060 A 
HETATM   26  C   UNL     1      44.942 -20.444   2.915  1.00  0.00     0.073 C 
HETATM   27  N   UNL     1      44.420 -21.012   5.226  1.00  0.00    -0.178 NA
HETATM   28  N   UNL     1      43.805 -20.427   6.263  1.00  0.00    -0.284 N 
HETATM   29  C   UNL     1      43.597 -21.165   7.488  1.00  0.00     0.179 C 
HETATM   30  C   UNL     1      43.484 -19.120   6.020  1.00  0.00     0.122 A 
ENDBRANCH  23  24
ENDBRANCH   1  23
TORSDOF 4
ENDMDL
MODEL 9
REMARK VINA RESULT:      -7.0      3.743      8.102
REMARK  4 active torsions:
REMARK  status: ('A' for Active; 'I' for Inactive)
REMARK    1  A    between atoms: C_7  and  C_8 
REMARK    2  A    between atoms: C_8  and  N_9 
REMARK    3  A    between atoms: N_15  and  C_17 
REMARK    4  A    between atoms: C_21  and  C_22 
ROOT
HETATM    1  N   UNL     1      39.678 -13.487   0.572  1.00  0.00    -0.067 N 
HETATM    2  H   UNL     1      38.678 -13.340   0.370  1.00  0.00     0.280 HD
HETATM    3  C   UNL     1      39.779 -14.881   1.121  1.00  0.00     0.236 C 
HETATM    4  C   UNL     1      41.188 -15.160   1.641  1.00  0.00     0.039 C 
HETATM    5  C   UNL     1      41.711 -14.134   2.684  1.00  0.00    -0.013 C 
HETATM    6  C   UNL     1      41.008 -14.283   4.058  1.00  0.00     0.245 C 
HETATM    7  N   UNL     1      41.423 -15.558   4.753  1.00  0.00    -0.065 N 
HETATM    8  H   UNL     1      41.196 -16.369   4.162  1.00  0.00     0.280 HD
HETATM    9  C   UNL     1      42.926 -15.614   5.013  1.00  0.00     0.244 C 
HETATM   10  C   UNL     1      43.699 -15.555   3.682  1.00  0.00     0.045 C 
HETATM   11  C   UNL     1      43.248 -14.288   2.908  1.00  0.00     0.022 C 
HETATM   12  C   UNL     1      41.472 -12.702   2.111  1.00  0.00     0.039 C 
HETATM   13  C   UNL     1      40.066 -12.440   1.572  1.00  0.00     0.236 C 
ENDROOT
BRANCH   7  14
HETATM   14  C   UNL     1      40.669 -15.745   6.039  1.00  0.00     0.188 A 
HETATM   15  C   UNL     1      40.083 -17.107   6.287  1.00  0.00     0.035 A 
HETATM   16  C   UNL     1      41.285 -16.652   7.065  1.00  0.00     0.035 A 
ENDBRANCH   7  14
BRANCH  10  17
HETATM   17  C   UNL     1      43.699 -16.821   2.829  1.00  0.00    -0.052 A 
HETATM   18  C   UNL     1      43.955 -16.832   1.448  1.00  0.00     0.007 A 
HETATM   19  C   UNL     1      43.948 -18.029   0.722  1.00  0.00     0.001 A 
HETATM   20  C   UNL     1      43.659 -19.232   1.353  1.00  0.00     0.000 A 
HETATM   21  C   UNL     1      43.350 -19.241   2.707  1.00  0.00     0.001 A 
HETATM   22  C   UNL     1      43.357 -18.048   3.432  1.00  0.00     0.007 A 
ENDBRANCH  10  17
BRANCH   1  23
HETATM   23  C   UNL     1      40.310 -13.290  -0.807  1.00  0.00     0.277 C 
BRANCH  23  24
HETATM   24  C   UNL     1      39.512 -13.932  -1.880  1.00  0.00     0.011 A 
HETATM   25  C   UNL     1      39.923 -14.970  -2.763  1.00  0.00     0.060 A 
HETATM   26  C   UNL     1      41.249 -15.629  -2.882  1.00  0.00     0.073 C 
HETATM   27  N   UNL     1      38.916 -15.378  -3.535  1.00  0.00    -0.178 NA
HETATM   28  N   UNL     1      37.903 -14.549  -3.250  1.00  0.00    -0.284 N 
HETATM   29  C   UNL     1      36.648 -14.674  -3.955  1.00  0.00     0.179 C 
HETATM   30  C   UNL     1      38.200 -13.678  -2.238  1.00  0.00     0.122 A 
ENDBRANCH  23  24
ENDBRANCH   1  23
TORSDOF 4
ENDMDL
MODEL 10
REMARK VINA RESULT:      -7.0      1.800      2.844
REMARK  4 active torsions:
REMARK  status: ('A' for Active; 'I' for Inactive)
REMARK    1  A    between atoms: C_7  and  C_8 
REMARK    2  A    between atoms: C_8  and  N_9 
REMARK    3  A    between atoms: N_15  and  C_17 
REMARK    4  A    between atoms: C_21  and  C_22 
ROOT
HETATM    1  N   UNL     1      42.037 -12.334   5.179  1.00  0.00    -0.067 N 
HETATM    2  H   UNL     1      42.580 -11.495   5.436  1.00  0.00     0.280 HD
HETATM    3  C   UNL     1      42.820 -13.002   4.086  1.00  0.00     0.236 C 
HETATM    4  C   UNL     1      42.030 -14.159   3.480  1.00  0.00     0.039 C 
HETATM    5  C   UNL     1      40.611 -13.782   2.969  1.00  0.00    -0.013 C 
HETATM    6  C   UNL     1      40.661 -12.935   1.672  1.00  0.00     0.245 C 
HETATM    7  N   UNL     1      41.124 -13.758   0.494  1.00  0.00    -0.065 N 
HETATM    8  H   UNL     1      42.057 -14.149   0.684  1.00  0.00     0.280 HD
HETATM    9  C   UNL     1      40.202 -14.944   0.218  1.00  0.00     0.244 C 
HETATM   10  C   UNL     1      40.164 -15.884   1.437  1.00  0.00     0.045 C 
HETATM   11  C   UNL     1      39.756 -15.055   2.684  1.00  0.00     0.022 C 
HETATM   12  C   UNL     1      39.889 -12.987   4.102  1.00  0.00     0.039 C 
HETATM   13  C   UNL     1      40.697 -11.846   4.718  1.00  0.00     0.236 C 
ENDROOT
BRANCH   7  14
HETATM   14  C   UNL     1      41.261 -12.912  -0.740  1.00  0.00     0.188 A 
HETATM   15  C   UNL     1      42.660 -12.608  -1.199  1.00  0.00     0.035 A 
HETATM   16  C   UNL     1      41.811 -13.580  -1.967  1.00  0.00     0.035 A 
ENDBRANCH   7  14
BRANCH  10  17
HETATM   17  C   UNL     1      41.390 -16.763   1.667  1.00  0.00    -0.052 A 
HETATM   18  C   UNL     1      41.584 -17.549   2.816  1.00  0.00     0.007 A 
HETATM   19  C   UNL     1      42.728 -18.341   2.964  1.00  0.00     0.001 A 
HETATM   20  C   UNL     1      43.713 -18.345   1.984  1.00  0.00     0.000 A 
HETATM   21  C   UNL     1      43.570 -17.536   0.863  1.00  0.00     0.001 A 
HETATM   22  C   UNL     1      42.429 -16.746   0.714  1.00  0.00     0.007 A 
ENDBRANCH  10  17
BRANCH   1  23
HETATM   23  C   UNL     1      41.996 -13.099   6.502  1.00  0.00     0.277 C 
BRANCH  23  24
HETATM   24  C   UNL     1      43.233 -12.904   7.296  1.00  0.00     0.011 A 
HETATM   25  C   UNL     1      44.366 -13.764   7.362  1.00  0.00     0.060 A 
HETATM   26  C   UNL     1      44.580 -15.084   6.714  1.00  0.00     0.073 C 
HETATM   27  N   UNL     1      45.342 -13.226   8.094  1.00  0.00    -0.178 NA
HETATM   28  N   UNL     1      44.818 -12.100   8.595  1.00  0.00    -0.284 N 
HETATM   29  C   UNL     1      45.598 -11.278   9.493  1.00  0.00     0.179 C 
HETATM   30  C   UNL     1      43.561 -11.843   8.121  1.00  0.00     0.122 A 
ENDBRANCH  23  24
ENDBRANCH   1  23
TORSDOF 4
ENDMDL
