MODEL 1
REMARK VINA RESULT:      -8.0      0.000      0.000
REMARK  3 active torsions:
REMARK  status: ('A' for Active; 'I' for Inactive)
REMARK    1  A    between atoms: C_2  and  N_3 
REMARK    2  A    between atoms: C_2  and  C_10 
REMARK    3  A    between atoms: C_13  and  C_14 
ROOT
HETATM    1  C   UNL     1      43.258 -17.657   3.435  1.00  0.00    -0.028 A 
HETATM    2  C   UNL     1      43.644 -16.889   2.325  1.00  0.00     0.010 A 
HETATM    3  C   UNL     1      42.710 -16.124   1.616  1.00  0.00     0.013 A 
HETATM    4  C   UNL     1      41.360 -16.092   1.991  1.00  0.00    -0.024 A 
HETATM    5  C   UNL     1      40.980 -16.849   3.110  1.00  0.00     0.013 A 
HETATM    6  C   UNL     1      41.910 -17.620   3.820  1.00  0.00     0.010 A 
ENDROOT
BRANCH   4   7
HETATM    7  C   UNL     1      40.376 -15.298   1.235  1.00  0.00    -0.006 A 
HETATM    8  C   UNL     1      39.087 -15.063   1.739  1.00  0.00     0.131 A 
HETATM    9  N   UNL     1      38.094 -14.361   1.147  1.00  0.00    -0.239 NA
HETATM   10  C   UNL     1      38.420 -13.851  -0.059  1.00  0.00     0.177 A 
HETATM   11  C   UNL     1      39.667 -14.026  -0.645  1.00  0.00     0.082 A 
HETATM   12  N   UNL     1      37.596 -13.111  -0.858  1.00  0.00    -0.222 NA
HETATM   13  N   UNL     1      39.573 -13.356  -1.837  1.00  0.00    -0.348 N 
HETATM   14  C   UNL     1      40.685 -14.751  -0.022  1.00  0.00     0.047 A 
HETATM   15  H   UNL     1      40.298 -13.266  -2.535  1.00  0.00     0.167 HD
HETATM   16  C   UNL     1      38.315 -12.827  -1.920  1.00  0.00     0.210 A 
ENDBRANCH   4   7
BRANCH   1  17
HETATM   17  C   UNL     1      44.293 -18.498   4.161  1.00  0.00     0.217 C 
HETATM   18  C   UNL     1      44.373 -18.252   5.673  1.00  0.00     0.045 C 
BRANCH  17  19
HETATM   19  N   UNL     1      44.179 -20.008   3.908  1.00  0.00    -0.063 N 
HETATM   20  H   UNL     1      43.218 -20.253   4.178  1.00  0.00     0.280 HD
HETATM   21  C   UNL     1      44.344 -20.429   2.462  1.00  0.00     0.235 C 
HETATM   22  C   UNL     1      43.974 -21.901   2.325  1.00  0.00     0.028 C 
HETATM   23  C   UNL     1      44.804 -22.780   3.253  1.00  0.00     0.003 C 
HETATM   24  C   UNL     1      44.721 -22.293   4.696  1.00  0.00     0.028 C 
HETATM   25  C   UNL     1      45.082 -20.818   4.813  1.00  0.00     0.235 C 
ENDBRANCH  17  19
ENDBRANCH   1  17
TORSDOF 3
ENDMDL
MODEL 2
REMARK VINA RESULT:      -8.0      2.164      8.633
REMARK  3 active torsions:
REMARK  status: ('A' for Active; 'I' for Inactive)
REMARK    1  A    between atoms: C_2  and  N_3 
REMARK    2  A    between atoms: C_2  and  C_10 
REMARK    3  A    between atoms: C_13  and  C_14 
ROOT
HETATM    1  C   UNL     1      42.061 -15.630   1.027  1.00  0.00    -0.028 A 
HETATM    2  C   UNL     1      43.349 -15.757   1.571  1.00  0.00     0.010 A 
HETATM    3  C   UNL     1      43.820 -16.992   2.031  1.00  0.00     0.013 A 
HETATM    4  C   UNL     1      43.028 -18.146   1.960  1.00  0.00    -0.024 A 
HETATM    5  C   UNL     1      41.747 -18.019   1.403  1.00  0.00     0.013 A 
HETATM    6  C   UNL     1      41.268 -16.785   0.946  1.00  0.00     0.010 A 
ENDROOT
BRANCH   4   7
HETATM    7  C   UNL     1      43.521 -19.443   2.457  1.00  0.00    -0.006 A 
HETATM    8  C   UNL     1      43.447 -20.601   1.668  1.00  0.00     0.131 A 
HETATM    9  N   UNL     1      43.855 -21.847   2.006  1.00  0.00    -0.239 NA
HETATM   10  C   UNL     1      44.381 -21.939   3.245  1.00  0.00     0.177 A 
HETATM   11  C   UNL     1      44.499 -20.853   4.103  1.00  0.00     0.082 A 
HETATM   12  N   UNL     1      44.859 -23.081   3.821  1.00  0.00    -0.222 NA
HETATM   13  N   UNL     1      45.075 -21.379   5.230  1.00  0.00    -0.348 N 
HETATM   14  C   UNL     1      44.076 -19.573   3.742  1.00  0.00     0.047 A 
HETATM   15  H   UNL     1      45.314 -20.877   6.074  1.00  0.00     0.167 HD
HETATM   16  C   UNL     1      45.270 -22.715   5.014  1.00  0.00     0.210 A 
ENDBRANCH   4   7
BRANCH   1  17
HETATM   17  C   UNL     1      41.572 -14.268   0.567  1.00  0.00     0.217 C 
HETATM   18  C   UNL     1      42.050 -13.092   1.428  1.00  0.00     0.045 C 
BRANCH  17  19
HETATM   19  N   UNL     1      41.856 -13.953  -0.909  1.00  0.00    -0.063 N 
HETATM   20  H   UNL     1      42.707 -14.481  -1.136  1.00  0.00     0.280 HD
HETATM   21  C   UNL     1      40.788 -14.413  -1.878  1.00  0.00     0.235 C 
HETATM   22  C   UNL     1      41.304 -14.252  -3.304  1.00  0.00     0.028 C 
HETATM   23  C   UNL     1      41.728 -12.817  -3.591  1.00  0.00     0.003 C 
HETATM   24  C   UNL     1      42.727 -12.318  -2.553  1.00  0.00     0.028 C 
HETATM   25  C   UNL     1      42.201 -12.496  -1.135  1.00  0.00     0.235 C 
ENDBRANCH  17  19
ENDBRANCH   1  17
TORSDOF 3
ENDMDL
MODEL 3
REMARK VINA RESULT:      -7.8      1.644      8.514
REMARK  3 active torsions:
REMARK  status: ('A' for Active; 'I' for Inactive)
REMARK    1  A    between atoms: C_2  and  N_3 
REMARK    2  A    between atoms: C_2  and  C_10 
REMARK    3  A    between atoms: C_13  and  C_14 
ROOT
HETATM    1  C   UNL     1      41.619 -15.311   0.782  1.00  0.00    -0.028 A 
HETATM    2  C   UNL     1      41.334 -16.643   0.441  1.00  0.00     0.010 A 
HETATM    3  C   UNL     1      41.916 -17.708   1.139  1.00  0.00     0.013 A 
HETATM    4  C   UNL     1      42.800 -17.485   2.204  1.00  0.00    -0.024 A 
HETATM    5  C   UNL     1      43.072 -16.153   2.551  1.00  0.00     0.013 A 
HETATM    6  C   UNL     1      42.495 -15.083   1.854  1.00  0.00     0.010 A 
ENDROOT
BRANCH   4   7
HETATM    7  C   UNL     1      43.423 -18.606   2.927  1.00  0.00    -0.006 A 
HETATM    8  C   UNL     1      43.978 -18.431   4.205  1.00  0.00     0.131 A 
HETATM    9  N   UNL     1      44.582 -19.371   4.969  1.00  0.00    -0.239 NA
HETATM   10  C   UNL     1      44.637 -20.593   4.401  1.00  0.00     0.177 A 
HETATM   11  C   UNL     1      44.118 -20.870   3.142  1.00  0.00     0.082 A 
HETATM   12  N   UNL     1      45.196 -21.705   4.963  1.00  0.00    -0.222 NA
HETATM   13  N   UNL     1      44.380 -22.203   2.959  1.00  0.00    -0.348 N 
HETATM   14  C   UNL     1      43.495 -19.892   2.365  1.00  0.00     0.047 A 
HETATM   15  H   UNL     1      44.142 -22.757   2.148  1.00  0.00     0.167 HD
HETATM   16  C   UNL     1      45.027 -22.658   4.075  1.00  0.00     0.210 A 
ENDBRANCH   4   7
BRANCH   1  17
HETATM   17  C   UNL     1      40.992 -14.182  -0.016  1.00  0.00     0.217 C 
HETATM   18  C   UNL     1      41.990 -13.150  -0.558  1.00  0.00     0.045 C 
BRANCH  17  19
HETATM   19  N   UNL     1      40.080 -14.641  -1.163  1.00  0.00    -0.063 N 
HETATM   20  H   UNL     1      39.696 -15.543  -0.855  1.00  0.00     0.280 HD
HETATM   21  C   UNL     1      38.897 -13.738  -1.440  1.00  0.00     0.235 C 
HETATM   22  C   UNL     1      37.960 -14.428  -2.425  1.00  0.00     0.028 C 
HETATM   23  C   UNL     1      38.679 -14.806  -3.714  1.00  0.00     0.003 C 
HETATM   24  C   UNL     1      39.930 -15.630  -3.429  1.00  0.00     0.028 C 
HETATM   25  C   UNL     1      40.848 -14.931  -2.435  1.00  0.00     0.235 C 
ENDBRANCH  17  19
ENDBRANCH   1  17
TORSDOF 3
ENDMDL
MODEL 4
REMARK VINA RESULT:      -7.4      1.631      2.980
REMARK  3 active torsions:
REMARK  status: ('A' for Active; 'I' for Inactive)
REMARK    1  A    between atoms: C_2  and  N_3 
REMARK    2  A    between atoms: C_2  and  C_10 
REMARK    3  A    between atoms: C_13  and  C_14 
ROOT
HETATM    1  C   UNL     1      42.941 -18.565   2.726  1.00  0.00    -0.028 A 
HETATM    2  C   UNL     1      41.723 -17.946   3.051  1.00  0.00     0.010 A 
HETATM    3  C   UNL     1      41.150 -16.989   2.205  1.00  0.00     0.013 A 
HETATM    4  C   UNL     1      41.767 -16.617   1.003  1.00  0.00    -0.024 A 
HETATM    5  C   UNL     1      42.977 -17.247   0.674  1.00  0.00     0.013 A 
HETATM    6  C   UNL     1      43.557 -18.202   1.519  1.00  0.00     0.010 A 
ENDROOT
BRANCH   4   7
HETATM    7  C   UNL     1      41.170 -15.599   0.121  1.00  0.00    -0.006 A 
HETATM    8  C   UNL     1      40.476 -14.498   0.646  1.00  0.00     0.131 A 
HETATM    9  N   UNL     1      39.878 -13.502  -0.050  1.00  0.00    -0.239 NA
HETATM   10  C   UNL     1      39.984 -13.623  -1.389  1.00  0.00     0.177 A 
HETATM   11  C   UNL     1      40.650 -14.675  -2.007  1.00  0.00     0.082 A 
HETATM   12  N   UNL     1      39.466 -12.756  -2.309  1.00  0.00    -0.222 NA
HETATM   13  N   UNL     1      40.521 -14.412  -3.346  1.00  0.00    -0.348 N 
HETATM   14  C   UNL     1      41.264 -15.694  -1.277  1.00  0.00     0.047 A 
HETATM   15  H   UNL     1      40.886 -14.968  -4.106  1.00  0.00     0.167 HD
HETATM   16  C   UNL     1      39.804 -13.255  -3.476  1.00  0.00     0.210 A 
ENDBRANCH   4   7
BRANCH   1  17
HETATM   17  C   UNL     1      43.547 -19.576   3.683  1.00  0.00     0.217 C 
HETATM   18  C   UNL     1      44.931 -20.096   3.273  1.00  0.00     0.045 C 
BRANCH  17  19
HETATM   19  N   UNL     1      43.602 -19.116   5.147  1.00  0.00    -0.063 N 
HETATM   20  H   UNL     1      42.648 -18.805   5.366  1.00  0.00     0.280 HD
HETATM   21  C   UNL     1      43.946 -20.201   6.146  1.00  0.00     0.235 C 
HETATM   22  C   UNL     1      43.734 -19.666   7.557  1.00  0.00     0.028 C 
HETATM   23  C   UNL     1      44.550 -18.405   7.811  1.00  0.00     0.003 C 
HETATM   24  C   UNL     1      44.282 -17.349   6.744  1.00  0.00     0.028 C 
HETATM   25  C   UNL     1      44.487 -17.903   5.341  1.00  0.00     0.235 C 
ENDBRANCH  17  19
ENDBRANCH   1  17
TORSDOF 3
ENDMDL
MODEL 5
REMARK VINA RESULT:      -7.4      5.236      7.460
REMARK  3 active torsions:
REMARK  status: ('A' for Active; 'I' for Inactive)
REMARK    1  A    between atoms: C_2  and  N_3 
REMARK    2  A    between atoms: C_2  and  C_10 
REMARK    3  A    between atoms: C_13  and  C_14 
ROOT
HETATM    1  C   UNL     1      43.197 -16.828   4.538  1.00  0.00    -0.028 A 
HETATM    2  C   UNL     1      43.106 -15.475   4.174  1.00  0.00     0.010 A 
HETATM    3  C   UNL     1      43.611 -14.467   5.005  1.00  0.00     0.013 A 
HETATM    4  C   UNL     1      44.228 -14.771   6.226  1.00  0.00    -0.024 A 
HETATM    5  C   UNL     1      44.330 -16.125   6.580  1.00  0.00     0.013 A 
HETATM    6  C   UNL     1      43.823 -17.137   5.755  1.00  0.00     0.010 A 
ENDROOT
BRANCH   4   7
HETATM    7  C   UNL     1      44.746 -13.709   7.105  1.00  0.00    -0.006 A 
HETATM    8  C   UNL     1      46.076 -13.268   7.009  1.00  0.00     0.131 A 
HETATM    9  N   UNL     1      46.674 -12.311   7.756  1.00  0.00    -0.239 NA
HETATM   10  C   UNL     1      45.871 -11.750   8.683  1.00  0.00     0.177 A 
HETATM   11  C   UNL     1      44.542 -12.115   8.858  1.00  0.00     0.082 A 
HETATM   12  N   UNL     1      46.235 -10.769   9.560  1.00  0.00    -0.222 NA
HETATM   13  N   UNL     1      44.106 -11.312   9.879  1.00  0.00    -0.348 N 
HETATM   14  C   UNL     1      43.935 -13.102   8.079  1.00  0.00     0.047 A 
HETATM   15  H   UNL     1      43.179 -11.298  10.280  1.00  0.00     0.167 HD
HETATM   16  C   UNL     1      45.155 -10.525  10.267  1.00  0.00     0.210 A 
ENDBRANCH   4   7
BRANCH   1  17
HETATM   17  C   UNL     1      42.611 -17.891   3.626  1.00  0.00     0.217 C 
HETATM   18  C   UNL     1      42.074 -17.363   2.289  1.00  0.00     0.045 C 
BRANCH  17  19
HETATM   19  N   UNL     1      43.541 -19.081   3.353  1.00  0.00    -0.063 N 
HETATM   20  H   UNL     1      44.431 -18.663   3.058  1.00  0.00     0.280 HD
HETATM   21  C   UNL     1      43.846 -19.944   4.560  1.00  0.00     0.235 C 
HETATM   22  C   UNL     1      44.953 -20.930   4.203  1.00  0.00     0.028 C 
HETATM   23  C   UNL     1      44.580 -21.782   2.996  1.00  0.00     0.003 C 
HETATM   24  C   UNL     1      44.171 -20.914   1.811  1.00  0.00     0.028 C 
HETATM   25  C   UNL     1      43.074 -19.927   2.188  1.00  0.00     0.235 C 
ENDBRANCH  17  19
ENDBRANCH   1  17
TORSDOF 3
ENDMDL
MODEL 6
REMARK VINA RESULT:      -7.3      4.891      8.892
REMARK  3 active torsions:
REMARK  status: ('A' for Active; 'I' for Inactive)
REMARK    1  A    between atoms: C_2  and  N_3 
REMARK    2  A    between atoms: C_2  and  C_10 
REMARK    3  A    between atoms: C_13  and  C_14 
ROOT
HETATM    1  C   UNL     1      41.317 -13.445   5.623  1.00  0.00    -0.028 A 
HETATM    2  C   UNL     1      42.641 -13.509   5.160  1.00  0.00     0.010 A 
HETATM    3  C   UNL     1      43.245 -14.737   4.867  1.00  0.00     0.013 A 
HETATM    4  C   UNL     1      42.550 -15.945   5.020  1.00  0.00    -0.024 A 
HETATM    5  C   UNL     1      41.223 -15.877   5.469  1.00  0.00     0.013 A 
HETATM    6  C   UNL     1      40.615 -14.651   5.769  1.00  0.00     0.010 A 
ENDROOT
BRANCH   4   7
HETATM    7  C   UNL     1      43.192 -17.238   4.724  1.00  0.00    -0.006 A 
HETATM    8  C   UNL     1      44.090 -17.829   5.627  1.00  0.00     0.131 A 
HETATM    9  N   UNL     1      44.748 -19.002   5.475  1.00  0.00    -0.239 NA
HETATM   10  C   UNL     1      44.486 -19.636   4.314  1.00  0.00     0.177 A 
HETATM   11  C   UNL     1      43.614 -19.135   3.355  1.00  0.00     0.082 A 
HETATM   12  N   UNL     1      45.025 -20.828   3.921  1.00  0.00    -0.222 NA
HETATM   13  N   UNL     1      43.639 -20.075   2.358  1.00  0.00    -0.348 N 
HETATM   14  C   UNL     1      42.939 -17.925   3.525  1.00  0.00     0.047 A 
HETATM   15  H   UNL     1      43.120 -20.048   1.492  1.00  0.00     0.167 HD
HETATM   16  C   UNL     1      44.498 -21.068   2.742  1.00  0.00     0.210 A 
ENDBRANCH   4   7
BRANCH   1  17
HETATM   17  C   UNL     1      40.705 -12.097   5.960  1.00  0.00     0.217 C 
HETATM   18  C   UNL     1      39.235 -11.939   5.550  1.00  0.00     0.045 C 
BRANCH  17  19
HETATM   19  N   UNL     1      40.859 -11.675   7.429  1.00  0.00    -0.063 N 
HETATM   20  H   UNL     1      41.087 -12.540   7.933  1.00  0.00     0.280 HD
HETATM   21  C   UNL     1      41.990 -10.705   7.700  1.00  0.00     0.235 C 
HETATM   22  C   UNL     1      42.176 -10.561   9.206  1.00  0.00     0.028 C 
HETATM   23  C   UNL     1      40.890 -10.116   9.892  1.00  0.00     0.003 C 
HETATM   24  C   UNL     1      39.726 -11.034   9.536  1.00  0.00     0.028 C 
HETATM   25  C   UNL     1      39.562 -11.175   8.028  1.00  0.00     0.235 C 
ENDBRANCH  17  19
ENDBRANCH   1  17
TORSDOF 3
ENDMDL
MODEL 7
REMARK VINA RESULT:      -7.3      1.583      2.942
REMARK  3 active torsions:
REMARK  status: ('A' for Active; 'I' for Inactive)
REMARK    1  A    between atoms: C_2  and  N_3 
REMARK    2  A    between atoms: C_2  and  C_10 
REMARK    3  A    between atoms: C_13  and  C_14 
ROOT
HETATM    1  C   UNL     1      42.906 -18.281   2.993  1.00  0.00    -0.028 A 
HETATM    2  C   UNL     1      43.567 -17.874   1.823  1.00  0.00     0.010 A 
HETATM    3  C   UNL     1      42.956 -17.003   0.914  1.00  0.00     0.013 A 
HETATM    4  C   UNL     1      41.666 -16.502   1.139  1.00  0.00    -0.024 A 
HETATM    5  C   UNL     1      41.014 -16.899   2.316  1.00  0.00     0.013 A 
HETATM    6  C   UNL     1      41.619 -17.774   3.227  1.00  0.00     0.010 A 
ENDROOT
BRANCH   4   7
HETATM    7  C   UNL     1      41.019 -15.596   0.174  1.00  0.00    -0.006 A 
HETATM    8  C   UNL     1      40.120 -14.604   0.597  1.00  0.00     0.131 A 
HETATM    9  N   UNL     1      39.457 -13.718  -0.183  1.00  0.00    -0.239 NA
HETATM   10  C   UNL     1      39.716 -13.839  -1.501  1.00  0.00     0.177 A 
HETATM   11  C   UNL     1      40.589 -14.787  -2.020  1.00  0.00     0.082 A 
HETATM   12  N   UNL     1      39.173 -13.070  -2.491  1.00  0.00    -0.222 NA
HETATM   13  N   UNL     1      40.561 -14.563  -3.372  1.00  0.00    -0.348 N 
HETATM   14  C   UNL     1      41.269 -15.694  -1.205  1.00  0.00     0.047 A 
HETATM   15  H   UNL     1      41.080 -15.068  -4.076  1.00  0.00     0.167 HD
HETATM   16  C   UNL     1      39.698 -13.528  -3.605  1.00  0.00     0.210 A 
ENDBRANCH   4   7
BRANCH   1  17
HETATM   17  C   UNL     1      43.588 -19.252   3.941  1.00  0.00     0.217 C 
HETATM   18  C   UNL     1      44.812 -19.967   3.354  1.00  0.00     0.045 C 
BRANCH  17  19
HETATM   19  N   UNL     1      43.967 -18.653   5.303  1.00  0.00    -0.063 N 
HETATM   20  H   UNL     1      44.984 -18.779   5.377  1.00  0.00     0.280 HD
HETATM   21  C   UNL     1      43.702 -17.169   5.445  1.00  0.00     0.235 C 
HETATM   22  C   UNL     1      44.337 -16.670   6.738  1.00  0.00     0.028 C 
HETATM   23  C   UNL     1      43.827 -17.440   7.950  1.00  0.00     0.003 C 
HETATM   24  C   UNL     1      43.999 -18.943   7.763  1.00  0.00     0.028 C 
HETATM   25  C   UNL     1      43.369 -19.423   6.462  1.00  0.00     0.235 C 
ENDBRANCH  17  19
ENDBRANCH   1  17
TORSDOF 3
ENDMDL
MODEL 8
REMARK VINA RESULT:      -7.2      1.974      8.405
REMARK  3 active torsions:
REMARK  status: ('A' for Active; 'I' for Inactive)
REMARK    1  A    between atoms: C_2  and  N_3 
REMARK    2  A    between atoms: C_2  and  C_10 
REMARK    3  A    between atoms: C_13  and  C_14 
ROOT
HETATM    1  C   UNL     1      40.803 -14.932   0.436  1.00  0.00    -0.028 A 
HETATM    2  C   UNL     1      40.457 -14.784   1.789  1.00  0.00     0.010 A 
HETATM    3  C   UNL     1      41.026 -15.599   2.774  1.00  0.00     0.013 A 
HETATM    4  C   UNL     1      41.965 -16.588   2.448  1.00  0.00    -0.024 A 
HETATM    5  C   UNL     1      42.320 -16.724   1.098  1.00  0.00     0.013 A 
HETATM    6  C   UNL     1      41.750 -15.914   0.107  1.00  0.00     0.010 A 
ENDROOT
BRANCH   4   7
HETATM    7  C   UNL     1      42.553 -17.455   3.485  1.00  0.00    -0.006 A 
HETATM    8  C   UNL     1      43.324 -18.577   3.144  1.00  0.00     0.131 A 
HETATM    9  N   UNL     1      43.911 -19.453   3.994  1.00  0.00    -0.239 NA
HETATM   10  C   UNL     1      43.704 -19.180   5.298  1.00  0.00     0.177 A 
HETATM   11  C   UNL     1      42.956 -18.095   5.739  1.00  0.00     0.082 A 
HETATM   12  N   UNL     1      44.183 -19.911   6.348  1.00  0.00    -0.222 NA
HETATM   13  N   UNL     1      43.002 -18.190   7.105  1.00  0.00    -0.348 N 
HETATM   14  C   UNL     1      42.358 -17.198   4.852  1.00  0.00     0.047 A 
HETATM   15  H   UNL     1      42.566 -17.564   7.767  1.00  0.00     0.167 HD
HETATM   16  C   UNL     1      43.746 -19.293   7.422  1.00  0.00     0.210 A 
ENDBRANCH   4   7
BRANCH   1  17
HETATM   17  C   UNL     1      40.142 -14.051  -0.608  1.00  0.00     0.217 C 
HETATM   18  C   UNL     1      41.070 -13.011  -1.250  1.00  0.00     0.045 C 
BRANCH  17  19
HETATM   19  N   UNL     1      39.410 -14.817  -1.719  1.00  0.00    -0.063 N 
HETATM   20  H   UNL     1      39.082 -15.683  -1.275  1.00  0.00     0.280 HD
HETATM   21  C   UNL     1      38.184 -14.122  -2.274  1.00  0.00     0.235 C 
HETATM   22  C   UNL     1      37.432 -15.086  -3.184  1.00  0.00     0.028 C 
HETATM   23  C   UNL     1      38.321 -15.613  -4.304  1.00  0.00     0.003 C 
HETATM   24  C   UNL     1      39.606 -16.220  -3.751  1.00  0.00     0.028 C 
HETATM   25  C   UNL     1      40.338 -15.248  -2.835  1.00  0.00     0.235 C 
ENDBRANCH  17  19
ENDBRANCH   1  17
TORSDOF 3
ENDMDL
MODEL 9
REMARK VINA RESULT:      -7.1      1.598      8.640
REMARK  3 active torsions:
REMARK  status: ('A' for Active; 'I' for Inactive)
REMARK    1  A    between atoms: C_2  and  N_3 
REMARK    2  A    between atoms: C_2  and  C_10 
REMARK    3  A    between atoms: C_13  and  C_14 
ROOT
HETATM    1  C   UNL     1      41.861 -14.241   1.062  1.00  0.00    -0.028 A 
HETATM    2  C   UNL     1      41.691 -15.431   0.335  1.00  0.00     0.010 A 
HETATM    3  C   UNL     1      42.169 -16.651   0.825  1.00  0.00     0.013 A 
HETATM    4  C   UNL     1      42.830 -16.733   2.059  1.00  0.00    -0.024 A 
HETATM    5  C   UNL     1      42.985 -15.545   2.790  1.00  0.00     0.013 A 
HETATM    6  C   UNL     1      42.513 -14.320   2.302  1.00  0.00     0.010 A 
ENDROOT
BRANCH   4   7
HETATM    7  C   UNL     1      43.345 -18.016   2.567  1.00  0.00    -0.006 A 
HETATM    8  C   UNL     1      43.925 -18.115   3.841  1.00  0.00     0.131 A 
HETATM    9  N   UNL     1      44.440 -19.225   4.420  1.00  0.00    -0.239 NA
HETATM   10  C   UNL     1      44.368 -20.332   3.653  1.00  0.00     0.177 A 
HETATM   11  C   UNL     1      43.814 -20.339   2.379  1.00  0.00     0.082 A 
HETATM   12  N   UNL     1      44.819 -21.573   4.005  1.00  0.00    -0.222 NA
HETATM   13  N   UNL     1      43.941 -21.640   1.967  1.00  0.00    -0.348 N 
HETATM   14  C   UNL     1      43.284 -19.188   1.794  1.00  0.00     0.047 A 
HETATM   15  H   UNL     1      43.642 -22.022   1.081  1.00  0.00     0.167 HD
HETATM   16  C   UNL     1      44.549 -22.339   2.973  1.00  0.00     0.210 A 
ENDBRANCH   4   7
BRANCH   1  17
HETATM   17  C   UNL     1      41.356 -12.931   0.484  1.00  0.00     0.217 C 
HETATM   18  C   UNL     1      42.154 -12.412  -0.720  1.00  0.00     0.045 C 
BRANCH  17  19
HETATM   19  N   UNL     1      39.862 -12.923   0.132  1.00  0.00    -0.063 N 
HETATM   20  H   UNL     1      39.650 -13.885  -0.158  1.00  0.00     0.280 HD
HETATM   21  C   UNL     1      38.934 -12.602   1.285  1.00  0.00     0.235 C 
HETATM   22  C   UNL     1      37.495 -12.861   0.856  1.00  0.00     0.028 C 
HETATM   23  C   UNL     1      37.125 -12.061  -0.387  1.00  0.00     0.003 C 
HETATM   24  C   UNL     1      38.120 -12.304  -1.517  1.00  0.00     0.028 C 
HETATM   25  C   UNL     1      39.553 -12.052  -1.068  1.00  0.00     0.235 C 
ENDBRANCH  17  19
ENDBRANCH   1  17
TORSDOF 3
ENDMDL
MODEL 10
REMARK VINA RESULT:      -7.0      2.080      8.574
REMARK  3 active torsions:
REMARK  status: ('A' for Active; 'I' for Inactive)
REMARK    1  A    between atoms: C_2  and  N_3 
REMARK    2  A    between atoms: C_2  and  C_10 
REMARK    3  A    between atoms: C_13  and  C_14 
ROOT
HETATM    1  C   UNL     1      40.727 -15.246   0.153  1.00  0.00    -0.028 A 
HETATM    2  C   UNL     1      40.380 -15.070   1.502  1.00  0.00     0.010 A 
HETATM    3  C   UNL     1      40.971 -15.844   2.507  1.00  0.00     0.013 A 
HETATM    4  C   UNL     1      41.932 -16.819   2.205  1.00  0.00    -0.024 A 
HETATM    5  C   UNL     1      42.287 -16.983   0.857  1.00  0.00     0.013 A 
HETATM    6  C   UNL     1      41.695 -16.214  -0.153  1.00  0.00     0.010 A 
ENDROOT
BRANCH   4   7
HETATM    7  C   UNL     1      42.543 -17.644   3.262  1.00  0.00    -0.006 A 
HETATM    8  C   UNL     1      43.335 -18.759   2.949  1.00  0.00     0.131 A 
HETATM    9  N   UNL     1      43.944 -19.598   3.820  1.00  0.00    -0.239 NA
HETATM   10  C   UNL     1      43.738 -19.293   5.118  1.00  0.00     0.177 A 
HETATM   11  C   UNL     1      42.970 -18.211   5.531  1.00  0.00     0.082 A 
HETATM   12  N   UNL     1      44.238 -19.983   6.185  1.00  0.00    -0.222 NA
HETATM   13  N   UNL     1      43.024 -18.266   6.900  1.00  0.00    -0.348 N 
HETATM   14  C   UNL     1      42.349 -17.352   4.623  1.00  0.00     0.047 A 
HETATM   15  H   UNL     1      42.579 -17.630   7.545  1.00  0.00     0.167 HD
HETATM   16  C   UNL     1      43.793 -19.344   7.243  1.00  0.00     0.210 A 
ENDBRANCH   4   7
BRANCH   1  17
HETATM   17  C   UNL     1      40.042 -14.408  -0.913  1.00  0.00     0.217 C 
HETATM   18  C   UNL     1      38.895 -13.529  -0.397  1.00  0.00     0.045 C 
BRANCH  17  19
HETATM   19  N   UNL     1      40.993 -13.543  -1.753  1.00  0.00    -0.063 N 
HETATM   20  H   UNL     1      41.672 -14.202  -2.152  1.00  0.00     0.280 HD
HETATM   21  C   UNL     1      40.344 -12.830  -2.921  1.00  0.00     0.235 C 
HETATM   22  C   UNL     1      41.429 -12.211  -3.794  1.00  0.00     0.028 C 
HETATM   23  C   UNL     1      42.323 -11.268  -2.999  1.00  0.00     0.003 C 
HETATM   24  C   UNL     1      42.894 -11.956  -1.764  1.00  0.00     0.028 C 
HETATM   25  C   UNL     1      41.798 -12.578  -0.909  1.00  0.00     0.235 C 
ENDBRANCH  17  19
ENDBRANCH   1  17
TORSDOF 3
ENDMDL
