MODEL 1
REMARK VINA RESULT:      -8.8      0.000      0.000
REMARK  8 active torsions:
REMARK  status: ('A' for Active; 'I' for Inactive)
REMARK    1  A    between atoms: C_2  and  C_3 
REMARK    2  A    between atoms: C_3  and  N_4 
REMARK       I    between atoms: N_4  and  C_5 
REMARK    3  A    between atoms: C_5  and  C_6 
REMARK    4  A    between atoms: C_7  and  N_8 
REMARK    5  A    between atoms: N_11  and  C_12 
REMARK    6  A    between atoms: C_13  and  O_14 
REMARK    7  A    between atoms: C_24  and  N_25 
REMARK       I    between atoms: N_25  and  C_26 
REMARK       I    between atoms: C_26  and  N_27 
REMARK    8  A    between atoms: N_27  and  C_28 
ROOT
HETATM    1  C   UNL     1      41.975 -13.016   4.414  1.00  0.00     0.060 A 
HETATM    2  C   UNL     1      40.871 -12.497   3.705  1.00  0.00     0.046 A 
HETATM    3  C   UNL     1      40.035 -11.620   4.421  1.00  0.00     0.032 A 
HETATM    4  C   UNL     1      40.241 -11.319   5.777  1.00  0.00     0.032 A 
HETATM    5  C   UNL     1      41.291 -11.902   6.474  1.00  0.00     0.037 A 
HETATM    6  C   UNL     1      42.165 -12.738   5.784  1.00  0.00     0.049 A 
ENDROOT
BRANCH   2   7
HETATM    7  N   UNL     1      40.567 -12.861   2.399  1.00  0.00    -0.378 N 
HETATM    8  C   UNL     1      41.169 -12.103   1.283  1.00  0.00     0.138 C 
HETATM    9  C   UNL     1      41.250 -13.002   0.023  1.00  0.00     0.115 C 
HETATM   10  N   UNL     1      39.911 -13.532  -0.338  1.00  0.00    -0.278 NA
HETATM   11  C   UNL     1      39.293 -14.273   0.796  1.00  0.00     0.115 C 
HETATM   12  C   UNL     1      39.227 -13.390   2.066  1.00  0.00     0.138 C 
BRANCH  10  13
HETATM   13  C   UNL     1      39.794 -14.257  -1.550  1.00  0.00     0.044 A 
HETATM   14  C   UNL     1      38.688 -14.039  -2.418  1.00  0.00     0.089 A 
HETATM   15  C   UNL     1      38.560 -14.784  -3.600  1.00  0.00     0.038 A 
HETATM   16  C   UNL     1      39.513 -15.743  -3.941  1.00  0.00     0.003 A 
HETATM   17  C   UNL     1      40.603 -15.962  -3.111  1.00  0.00     0.002 A 
HETATM   18  C   UNL     1      40.742 -15.224  -1.931  1.00  0.00     0.026 A 
BRANCH  14  19
HETATM   19  O   UNL     1      37.798 -13.058  -2.037  1.00  0.00    -0.354 OA
HETATM   20  C   UNL     1      37.109 -12.359  -3.063  1.00  0.00     0.210 C 
ENDBRANCH  14  19
ENDBRANCH  10  13
ENDBRANCH   2   7
BRANCH   1  21
HETATM   21  C   UNL     1      42.954 -13.970   3.824  1.00  0.00     0.254 C 
HETATM   22  N   UNL     1      42.534 -15.287   3.870  1.00  0.00    -0.353 N 
HETATM   23  H   UNL     1      41.706 -15.488   4.417  1.00  0.00     0.163 HD
HETATM   24  O   UNL     1      43.989 -13.582   3.304  1.00  0.00    -0.268 OA
BRANCH  22  25
HETATM   25  C   UNL     1      43.210 -16.427   3.260  1.00  0.00     0.080 C 
HETATM   26  C   UNL     1      43.022 -17.726   4.040  1.00  0.00     0.032 C 
BRANCH  25  27
HETATM   27  C   UNL     1      42.959 -16.556   1.749  1.00  0.00     0.020 C 
HETATM   28  C   UNL     1      43.778 -17.604   1.015  1.00  0.00     0.007 C 
ENDBRANCH  25  27
ENDBRANCH  22  25
ENDBRANCH   1  21
BRANCH   5  29
HETATM   29  N   UNL     1      41.481 -11.767   7.862  1.00  0.00    -0.309 N 
HETATM   30  C   UNL     1      41.883 -10.634   8.551  1.00  0.00     0.325 C 
HETATM   31  N   UNL     1      41.591 -10.782   9.896  1.00  0.00    -0.307 N 
HETATM   32  O   UNL     1      42.405  -9.652   8.042  1.00  0.00    -0.247 OA
HETATM   33  H   UNL     1      40.832 -11.417  10.106  1.00  0.00     0.170 HD
HETATM   34  H   UNL     1      41.427 -12.609   8.415  1.00  0.00     0.170 HD
BRANCH  31  35
HETATM   35  C   UNL     1      41.953  -9.915  10.953  1.00  0.00     0.053 A 
HETATM   36  C   UNL     1      43.016 -10.282  11.799  1.00  0.00     0.037 A 
HETATM   37 BR   UNL     1      43.941 -11.930  11.571  1.00  0.00    -0.049 Br
HETATM   38  C   UNL     1      43.419  -9.450  12.847  1.00  0.00     0.021 A 
HETATM   39  C   UNL     1      42.771  -8.234  13.054  1.00  0.00     0.002 A 
HETATM   40  C   UNL     1      41.727  -7.854  12.214  1.00  0.00     0.002 A 
HETATM   41  C   UNL     1      41.319  -8.689  11.169  1.00  0.00     0.031 A 
ENDBRANCH  31  35
ENDBRANCH   5  29
TORSDOF 8
ENDMDL
MODEL 2
REMARK VINA RESULT:      -8.0      5.287      8.330
REMARK  8 active torsions:
REMARK  status: ('A' for Active; 'I' for Inactive)
REMARK    1  A    between atoms: C_2  and  C_3 
REMARK    2  A    between atoms: C_3  and  N_4 
REMARK       I    between atoms: N_4  and  C_5 
REMARK    3  A    between atoms: C_5  and  C_6 
REMARK    4  A    between atoms: C_7  and  N_8 
REMARK    5  A    between atoms: N_11  and  C_12 
REMARK    6  A    between atoms: C_13  and  O_14 
REMARK    7  A    between atoms: C_24  and  N_25 
REMARK       I    between atoms: N_25  and  C_26 
REMARK       I    between atoms: C_26  and  N_27 
REMARK    8  A    between atoms: N_27  and  C_28 
ROOT
HETATM    1  C   UNL     1      40.679 -13.890   1.083  1.00  0.00     0.060 A 
HETATM    2  C   UNL     1      39.710 -13.406   1.987  1.00  0.00     0.046 A 
HETATM    3  C   UNL     1      39.891 -13.763   3.336  1.00  0.00     0.032 A 
HETATM    4  C   UNL     1      40.934 -14.601   3.762  1.00  0.00     0.032 A 
HETATM    5  C   UNL     1      41.832 -15.127   2.842  1.00  0.00     0.037 A 
HETATM    6  C   UNL     1      41.710 -14.756   1.506  1.00  0.00     0.049 A 
ENDROOT
BRANCH   2   7
HETATM    7  N   UNL     1      38.599 -12.672   1.589  1.00  0.00    -0.378 N 
HETATM    8  C   UNL     1      38.179 -11.508   2.397  1.00  0.00     0.138 C 
HETATM    9  C   UNL     1      37.411 -10.501   1.505  1.00  0.00     0.115 C 
HETATM   10  N   UNL     1      36.253 -11.153   0.844  1.00  0.00    -0.278 NA
HETATM   11  C   UNL     1      36.674 -12.340   0.051  1.00  0.00     0.115 C 
HETATM   12  C   UNL     1      37.460 -13.344   0.928  1.00  0.00     0.138 C 
BRANCH  10  13
HETATM   13  C   UNL     1      35.367 -10.329   0.105  1.00  0.00     0.044 A 
HETATM   14  C   UNL     1      34.066 -10.039   0.604  1.00  0.00     0.089 A 
HETATM   15  C   UNL     1      33.182  -9.250  -0.148  1.00  0.00     0.038 A 
HETATM   16  C   UNL     1      33.563  -8.740  -1.388  1.00  0.00     0.003 A 
HETATM   17  C   UNL     1      34.831  -9.006  -1.885  1.00  0.00     0.002 A 
HETATM   18  C   UNL     1      35.722  -9.788  -1.145  1.00  0.00     0.026 A 
BRANCH  14  19
HETATM   19  O   UNL     1      33.762 -10.549   1.846  1.00  0.00    -0.354 OA
HETATM   20  C   UNL     1      33.429  -9.627   2.874  1.00  0.00     0.210 C 
ENDBRANCH  14  19
ENDBRANCH  10  13
ENDBRANCH   2   7
BRANCH   1  21
HETATM   21  C   UNL     1      40.640 -13.627  -0.381  1.00  0.00     0.254 C 
HETATM   22  N   UNL     1      40.033 -14.637  -1.105  1.00  0.00    -0.353 N 
HETATM   23  H   UNL     1      39.820 -15.495  -0.610  1.00  0.00     0.163 HD
HETATM   24  O   UNL     1      41.059 -12.581  -0.854  1.00  0.00    -0.268 OA
BRANCH  22  25
HETATM   25  C   UNL     1      39.728 -14.610  -2.531  1.00  0.00     0.080 C 
HETATM   26  C   UNL     1      40.197 -15.863  -3.270  1.00  0.00     0.032 C 
BRANCH  25  27
HETATM   27  C   UNL     1      38.283 -14.195  -2.847  1.00  0.00     0.020 C 
HETATM   28  C   UNL     1      37.432 -15.214  -3.585  1.00  0.00     0.007 C 
ENDBRANCH  25  27
ENDBRANCH  22  25
ENDBRANCH   1  21
BRANCH   5  29
HETATM   29  N   UNL     1      42.812 -16.084   3.164  1.00  0.00    -0.309 N 
HETATM   30  C   UNL     1      42.653 -17.457   3.252  1.00  0.00     0.325 C 
HETATM   31  N   UNL     1      43.893 -18.072   3.215  1.00  0.00    -0.307 N 
HETATM   32  O   UNL     1      41.578 -18.034   3.337  1.00  0.00    -0.247 OA
HETATM   33  H   UNL     1      44.622 -17.545   2.751  1.00  0.00     0.170 HD
HETATM   34  H   UNL     1      43.707 -15.735   3.475  1.00  0.00     0.170 HD
BRANCH  31  35
HETATM   35  C   UNL     1      44.177 -19.443   3.404  1.00  0.00     0.053 A 
HETATM   36  C   UNL     1      44.568 -19.886   4.682  1.00  0.00     0.037 A 
HETATM   37 BR   UNL     1      44.759 -18.672   6.136  1.00  0.00    -0.049 Br
HETATM   38  C   UNL     1      44.845 -21.235   4.920  1.00  0.00     0.021 A 
HETATM   39  C   UNL     1      44.721 -22.160   3.887  1.00  0.00     0.002 A 
HETATM   40  C   UNL     1      44.321 -21.736   2.622  1.00  0.00     0.002 A 
HETATM   41  C   UNL     1      44.050 -20.385   2.381  1.00  0.00     0.031 A 
ENDBRANCH  31  35
ENDBRANCH   5  29
TORSDOF 8
ENDMDL
MODEL 3
REMARK VINA RESULT:      -7.9      4.477     10.122
REMARK  8 active torsions:
REMARK  status: ('A' for Active; 'I' for Inactive)
REMARK    1  A    between atoms: C_2  and  C_3 
REMARK    2  A    between atoms: C_3  and  N_4 
REMARK       I    between atoms: N_4  and  C_5 
REMARK    3  A    between atoms: C_5  and  C_6 
REMARK    4  A    between atoms: C_7  and  N_8 
REMARK    5  A    between atoms: N_11  and  C_12 
REMARK    6  A    between atoms: C_13  and  O_14 
REMARK    7  A    between atoms: C_24  and  N_25 
REMARK       I    between atoms: N_25  and  C_26 
REMARK       I    between atoms: C_26  and  N_27 
REMARK    8  A    between atoms: N_27  and  C_28 
ROOT
HETATM    1  C   UNL     1      41.745 -14.385   1.345  1.00  0.00     0.060 A 
HETATM    2  C   UNL     1      41.888 -15.691   0.830  1.00  0.00     0.046 A 
HETATM    3  C   UNL     1      41.346 -15.912  -0.450  1.00  0.00     0.032 A 
HETATM    4  C   UNL     1      40.648 -14.920  -1.156  1.00  0.00     0.032 A 
HETATM    5  C   UNL     1      40.454 -13.664  -0.596  1.00  0.00     0.037 A 
HETATM    6  C   UNL     1      41.019 -13.396   0.649  1.00  0.00     0.049 A 
ENDROOT
BRANCH   2   7
HETATM    7  N   UNL     1      42.469 -16.731   1.546  1.00  0.00    -0.378 N 
HETATM    8  C   UNL     1      41.977 -17.031   2.906  1.00  0.00     0.138 C 
HETATM    9  C   UNL     1      42.249 -18.518   3.245  1.00  0.00     0.115 C 
HETATM   10  N   UNL     1      43.691 -18.839   3.105  1.00  0.00    -0.278 NA
HETATM   11  C   UNL     1      44.193 -18.512   1.741  1.00  0.00     0.115 C 
HETATM   12  C   UNL     1      43.907 -17.034   1.384  1.00  0.00     0.138 C 
BRANCH  10  13
HETATM   13  C   UNL     1      44.123 -20.125   3.516  1.00  0.00     0.044 A 
HETATM   14  C   UNL     1      44.600 -20.336   4.840  1.00  0.00     0.089 A 
HETATM   15  C   UNL     1      45.057 -21.603   5.233  1.00  0.00     0.038 A 
HETATM   16  C   UNL     1      45.049 -22.670   4.335  1.00  0.00     0.003 A 
HETATM   17  C   UNL     1      44.579 -22.484   3.043  1.00  0.00     0.002 A 
HETATM   18  C   UNL     1      44.118 -21.226   2.641  1.00  0.00     0.026 A 
BRANCH  14  19
HETATM   19  O   UNL     1      44.555 -19.249   5.686  1.00  0.00    -0.354 OA
HETATM   20  C   UNL     1      43.718 -19.336   6.829  1.00  0.00     0.210 C 
ENDBRANCH  14  19
ENDBRANCH  10  13
ENDBRANCH   2   7
BRANCH   1  21
HETATM   21  C   UNL     1      42.241 -13.973   2.687  1.00  0.00     0.254 C 
HETATM   22  N   UNL     1      41.258 -13.971   3.659  1.00  0.00    -0.353 N 
HETATM   23  H   UNL     1      40.302 -14.094   3.349  1.00  0.00     0.163 HD
HETATM   24  O   UNL     1      43.422 -13.727   2.884  1.00  0.00    -0.268 OA
BRANCH  22  25
HETATM   25  C   UNL     1      41.459 -13.742   5.086  1.00  0.00     0.080 C 
HETATM   26  C   UNL     1      40.290 -13.017   5.750  1.00  0.00     0.032 C 
BRANCH  25  27
HETATM   27  C   UNL     1      41.946 -14.985   5.848  1.00  0.00     0.020 C 
HETATM   28  C   UNL     1      40.882 -15.993   6.246  1.00  0.00     0.007 C 
ENDBRANCH  25  27
ENDBRANCH  22  25
ENDBRANCH   1  21
BRANCH   5  29
HETATM   29  N   UNL     1      39.648 -12.665  -1.172  1.00  0.00    -0.309 N 
HETATM   30  C   UNL     1      38.320 -12.770  -1.553  1.00  0.00     0.325 C 
HETATM   31  N   UNL     1      37.783 -11.504  -1.717  1.00  0.00    -0.307 N 
HETATM   32  O   UNL     1      37.716 -13.822  -1.708  1.00  0.00    -0.247 OA
HETATM   33  H   UNL     1      38.235 -10.772  -1.187  1.00  0.00     0.170 HD
HETATM   34  H   UNL     1      40.105 -11.807  -1.443  1.00  0.00     0.170 HD
BRANCH  31  35
HETATM   35  C   UNL     1      36.505 -11.174  -2.221  1.00  0.00     0.053 A 
HETATM   36  C   UNL     1      35.469 -10.887  -1.311  1.00  0.00     0.037 A 
HETATM   37 BR   UNL     1      35.750 -10.976   0.569  1.00  0.00    -0.049 Br
HETATM   38  C   UNL     1      34.193 -10.540  -1.763  1.00  0.00     0.021 A 
HETATM   39  C   UNL     1      33.939 -10.463  -3.130  1.00  0.00     0.002 A 
HETATM   40  C   UNL     1      34.959 -10.731  -4.039  1.00  0.00     0.002 A 
HETATM   41  C   UNL     1      36.235 -11.084  -3.589  1.00  0.00     0.031 A 
ENDBRANCH  31  35
ENDBRANCH   5  29
TORSDOF 8
ENDMDL
MODEL 4
REMARK VINA RESULT:      -7.9      3.265     11.186
REMARK  8 active torsions:
REMARK  status: ('A' for Active; 'I' for Inactive)
REMARK    1  A    between atoms: C_2  and  C_3 
REMARK    2  A    between atoms: C_3  and  N_4 
REMARK       I    between atoms: N_4  and  C_5 
REMARK    3  A    between atoms: C_5  and  C_6 
REMARK    4  A    between atoms: C_7  and  N_8 
REMARK    5  A    between atoms: N_11  and  C_12 
REMARK    6  A    between atoms: C_13  and  O_14 
REMARK    7  A    between atoms: C_24  and  N_25 
REMARK       I    between atoms: N_25  and  C_26 
REMARK       I    between atoms: C_26  and  N_27 
REMARK    8  A    between atoms: N_27  and  C_28 
ROOT
HETATM    1  C   UNL     1      40.984 -13.010   4.754  1.00  0.00     0.060 A 
HETATM    2  C   UNL     1      40.514 -11.764   5.221  1.00  0.00     0.046 A 
HETATM    3  C   UNL     1      39.983 -10.900   4.245  1.00  0.00     0.032 A 
HETATM    4  C   UNL     1      39.974 -11.220   2.878  1.00  0.00     0.032 A 
HETATM    5  C   UNL     1      40.512 -12.421   2.434  1.00  0.00     0.037 A 
HETATM    6  C   UNL     1      41.002 -13.320   3.378  1.00  0.00     0.049 A 
ENDROOT
BRANCH   2   7
HETATM    7  N   UNL     1      40.612 -11.363   6.548  1.00  0.00    -0.378 N 
HETATM    8  C   UNL     1      39.379 -11.214   7.347  1.00  0.00     0.138 C 
HETATM    9  C   UNL     1      39.702 -11.409   8.850  1.00  0.00     0.115 C 
HETATM   10  N   UNL     1      40.756 -10.462   9.293  1.00  0.00    -0.278 NA
HETATM   11  C   UNL     1      41.990 -10.595   8.470  1.00  0.00     0.115 C 
HETATM   12  C   UNL     1      41.674 -10.423   6.965  1.00  0.00     0.138 C 
BRANCH  10  13
HETATM   13  C   UNL     1      41.064 -10.419  10.676  1.00  0.00     0.044 A 
HETATM   14  C   UNL     1      40.278  -9.634  11.565  1.00  0.00     0.089 A 
HETATM   15  C   UNL     1      40.607  -9.568  12.928  1.00  0.00     0.038 A 
HETATM   16  C   UNL     1      41.703 -10.270  13.429  1.00  0.00     0.003 A 
HETATM   17  C   UNL     1      42.473 -11.048  12.577  1.00  0.00     0.002 A 
HETATM   18  C   UNL     1      42.155 -11.123  11.218  1.00  0.00     0.026 A 
BRANCH  14  19
HETATM   19  O   UNL     1      39.194  -8.987  11.013  1.00  0.00    -0.354 OA
HETATM   20  C   UNL     1      37.957  -9.065  11.706  1.00  0.00     0.210 C 
ENDBRANCH  14  19
ENDBRANCH  10  13
ENDBRANCH   2   7
BRANCH   1  21
HETATM   21  C   UNL     1      41.592 -14.042   5.639  1.00  0.00     0.254 C 
HETATM   22  N   UNL     1      42.960 -13.905   5.782  1.00  0.00    -0.353 N 
HETATM   23  H   UNL     1      43.424 -13.240   5.175  1.00  0.00     0.163 HD
HETATM   24  O   UNL     1      40.907 -14.874   6.214  1.00  0.00    -0.268 OA
BRANCH  22  25
HETATM   25  C   UNL     1      43.812 -14.677   6.681  1.00  0.00     0.080 C 
HETATM   26  C   UNL     1      44.038 -16.113   6.211  1.00  0.00     0.032 C 
BRANCH  25  27
HETATM   27  C   UNL     1      45.095 -13.941   7.100  1.00  0.00     0.020 C 
HETATM   28  C   UNL     1      44.971 -12.978   8.267  1.00  0.00     0.007 C 
ENDBRANCH  25  27
ENDBRANCH  22  25
ENDBRANCH   1  21
BRANCH   5  29
HETATM   29  N   UNL     1      40.671 -12.753   1.076  1.00  0.00    -0.309 N 
HETATM   30  C   UNL     1      40.002 -13.736   0.365  1.00  0.00     0.325 C 
HETATM   31  N   UNL     1      40.150 -13.509  -0.992  1.00  0.00    -0.307 N 
HETATM   32  O   UNL     1      39.369 -14.655   0.866  1.00  0.00    -0.247 OA
HETATM   33  H   UNL     1      40.329 -12.548  -1.252  1.00  0.00     0.170 HD
HETATM   34  H   UNL     1      41.431 -12.309   0.582  1.00  0.00     0.170 HD
BRANCH  31  35
HETATM   35  C   UNL     1      39.733 -14.345  -2.053  1.00  0.00     0.053 A 
HETATM   36  C   UNL     1      38.547 -14.028  -2.742  1.00  0.00     0.037 A 
HETATM   37 BR   UNL     1      37.485 -12.528  -2.247  1.00  0.00    -0.049 Br
HETATM   38  C   UNL     1      38.103 -14.817  -3.807  1.00  0.00     0.021 A 
HETATM   39  C   UNL     1      38.846 -15.926  -4.204  1.00  0.00     0.002 A 
HETATM   40  C   UNL     1      40.028 -16.241  -3.539  1.00  0.00     0.002 A 
HETATM   41  C   UNL     1      40.470 -15.456  -2.469  1.00  0.00     0.031 A 
ENDBRANCH  31  35
ENDBRANCH   5  29
TORSDOF 8
ENDMDL
MODEL 5
REMARK VINA RESULT:      -7.9      6.254      8.251
REMARK  8 active torsions:
REMARK  status: ('A' for Active; 'I' for Inactive)
REMARK    1  A    between atoms: C_2  and  C_3 
REMARK    2  A    between atoms: C_3  and  N_4 
REMARK       I    between atoms: N_4  and  C_5 
REMARK    3  A    between atoms: C_5  and  C_6 
REMARK    4  A    between atoms: C_7  and  N_8 
REMARK    5  A    between atoms: N_11  and  C_12 
REMARK    6  A    between atoms: C_13  and  O_14 
REMARK    7  A    between atoms: C_24  and  N_25 
REMARK       I    between atoms: N_25  and  C_26 
REMARK       I    between atoms: C_26  and  N_27 
REMARK    8  A    between atoms: N_27  and  C_28 
ROOT
HETATM    1  C   UNL     1      40.459 -13.795  -0.876  1.00  0.00     0.060 A 
HETATM    2  C   UNL     1      39.057 -13.760  -0.716  1.00  0.00     0.046 A 
HETATM    3  C   UNL     1      38.564 -14.230   0.515  1.00  0.00     0.032 A 
HETATM    4  C   UNL     1      39.400 -14.763   1.509  1.00  0.00     0.032 A 
HETATM    5  C   UNL     1      40.770 -14.858   1.298  1.00  0.00     0.037 A 
HETATM    6  C   UNL     1      41.296 -14.357   0.110  1.00  0.00     0.049 A 
ENDROOT
BRANCH   2   7
HETATM    7  N   UNL     1      38.188 -13.349  -1.720  1.00  0.00    -0.378 N 
HETATM    8  C   UNL     1      37.260 -12.230  -1.454  1.00  0.00     0.138 C 
HETATM    9  C   UNL     1      36.886 -11.532  -2.786  1.00  0.00     0.115 C 
HETATM   10  N   UNL     1      36.309 -12.502  -3.750  1.00  0.00    -0.278 NA
HETATM   11  C   UNL     1      37.234 -13.642  -3.998  1.00  0.00     0.115 C 
HETATM   12  C   UNL     1      37.630 -14.334  -2.671  1.00  0.00     0.138 C 
BRANCH  10  13
HETATM   13  C   UNL     1      35.787 -11.991  -4.965  1.00  0.00     0.044 A 
HETATM   14  C   UNL     1      34.469 -12.331  -5.382  1.00  0.00     0.089 A 
HETATM   15  C   UNL     1      33.969 -11.849  -6.602  1.00  0.00     0.038 A 
HETATM   16  C   UNL     1      34.752 -11.033  -7.418  1.00  0.00     0.003 A 
HETATM   17  C   UNL     1      36.035 -10.685  -7.021  1.00  0.00     0.002 A 
HETATM   18  C   UNL     1      36.543 -11.156  -5.807  1.00  0.00     0.026 A 
BRANCH  14  19
HETATM   19  O   UNL     1      33.738 -13.116  -4.519  1.00  0.00    -0.354 OA
HETATM   20  C   UNL     1      32.557 -12.561  -3.961  1.00  0.00     0.210 C 
ENDBRANCH  14  19
ENDBRANCH  10  13
ENDBRANCH   2   7
BRANCH   1  21
HETATM   21  C   UNL     1      41.155 -13.354  -2.116  1.00  0.00     0.254 C 
HETATM   22  N   UNL     1      41.376 -11.989  -2.164  1.00  0.00    -0.353 N 
HETATM   23  H   UNL     1      40.926 -11.423  -1.456  1.00  0.00     0.163 HD
HETATM   24  O   UNL     1      41.533 -14.155  -2.957  1.00  0.00    -0.268 OA
BRANCH  22  25
HETATM   25  C   UNL     1      42.145 -11.279  -3.180  1.00  0.00     0.080 C 
HETATM   26  C   UNL     1      41.357 -11.025  -4.464  1.00  0.00     0.032 C 
BRANCH  25  27
HETATM   27  C   UNL     1      42.888 -10.046  -2.642  1.00  0.00     0.020 C 
HETATM   28  C   UNL     1      43.608 -10.216  -1.316  1.00  0.00     0.007 C 
ENDBRANCH  25  27
ENDBRANCH  22  25
ENDBRANCH   1  21
BRANCH   5  29
HETATM   29  N   UNL     1      41.655 -15.507   2.179  1.00  0.00    -0.309 N 
HETATM   30  C   UNL     1      42.008 -16.846   2.182  1.00  0.00     0.325 C 
HETATM   31  N   UNL     1      43.159 -17.020   2.932  1.00  0.00    -0.307 N 
HETATM   32  O   UNL     1      41.400 -17.734   1.601  1.00  0.00    -0.247 OA
HETATM   33  H   UNL     1      43.755 -16.206   3.003  1.00  0.00     0.170 HD
HETATM   34  H   UNL     1      41.991 -14.972   2.966  1.00  0.00     0.170 HD
BRANCH  31  35
HETATM   35  C   UNL     1      43.774 -18.242   3.290  1.00  0.00     0.053 A 
HETATM   36  C   UNL     1      44.077 -18.479   4.643  1.00  0.00     0.037 A 
HETATM   37 BR   UNL     1      43.714 -17.177   5.983  1.00  0.00    -0.049 Br
HETATM   38  C   UNL     1      44.671 -19.679   5.046  1.00  0.00     0.021 A 
HETATM   39  C   UNL     1      44.957 -20.661   4.101  1.00  0.00     0.002 A 
HETATM   40  C   UNL     1      44.648 -20.443   2.760  1.00  0.00     0.002 A 
HETATM   41  C   UNL     1      44.060 -19.240   2.356  1.00  0.00     0.031 A 
ENDBRANCH  31  35
ENDBRANCH   5  29
TORSDOF 8
ENDMDL
MODEL 6
REMARK VINA RESULT:      -7.8      1.048      2.059
REMARK  8 active torsions:
REMARK  status: ('A' for Active; 'I' for Inactive)
REMARK    1  A    between atoms: C_2  and  C_3 
REMARK    2  A    between atoms: C_3  and  N_4 
REMARK       I    between atoms: N_4  and  C_5 
REMARK    3  A    between atoms: C_5  and  C_6 
REMARK    4  A    between atoms: C_7  and  N_8 
REMARK    5  A    between atoms: N_11  and  C_12 
REMARK    6  A    between atoms: C_13  and  O_14 
REMARK    7  A    between atoms: C_24  and  N_25 
REMARK       I    between atoms: N_25  and  C_26 
REMARK       I    between atoms: C_26  and  N_27 
REMARK    8  A    between atoms: N_27  and  C_28 
ROOT
HETATM    1  C   UNL     1      41.445 -12.772   4.005  1.00  0.00     0.060 A 
HETATM    2  C   UNL     1      40.302 -12.121   3.492  1.00  0.00     0.046 A 
HETATM    3  C   UNL     1      39.639 -11.251   4.377  1.00  0.00     0.032 A 
HETATM    4  C   UNL     1      40.043 -11.079   5.711  1.00  0.00     0.032 A 
HETATM    5  C   UNL     1      41.126 -11.788   6.214  1.00  0.00     0.037 A 
HETATM    6  C   UNL     1      41.834 -12.622   5.352  1.00  0.00     0.049 A 
ENDROOT
BRANCH   2   7
HETATM    7  N   UNL     1      39.803 -12.354   2.216  1.00  0.00    -0.378 N 
HETATM    8  C   UNL     1      39.148 -13.646   1.925  1.00  0.00     0.138 C 
HETATM    9  C   UNL     1      38.141 -13.471   0.761  1.00  0.00     0.115 C 
HETATM   10  N   UNL     1      38.811 -12.916  -0.442  1.00  0.00    -0.278 NA
HETATM   11  C   UNL     1      39.492 -11.626  -0.141  1.00  0.00     0.115 C 
HETATM   12  C   UNL     1      40.486 -11.785   1.035  1.00  0.00     0.138 C 
BRANCH  10  13
HETATM   13  C   UNL     1      38.053 -12.829  -1.637  1.00  0.00     0.044 A 
HETATM   14  C   UNL     1      38.256 -13.766  -2.689  1.00  0.00     0.089 A 
HETATM   15  C   UNL     1      37.527 -13.656  -3.883  1.00  0.00     0.038 A 
HETATM   16  C   UNL     1      36.595 -12.632  -4.054  1.00  0.00     0.003 A 
HETATM   17  C   UNL     1      36.379 -11.716  -3.035  1.00  0.00     0.002 A 
HETATM   18  C   UNL     1      37.097 -11.817  -1.840  1.00  0.00     0.026 A 
BRANCH  14  19
HETATM   19  O   UNL     1      39.168 -14.769  -2.446  1.00  0.00    -0.354 OA
HETATM   20  C   UNL     1      39.617 -15.535  -3.553  1.00  0.00     0.210 C 
ENDBRANCH  14  19
ENDBRANCH  10  13
ENDBRANCH   2   7
BRANCH   1  21
HETATM   21  C   UNL     1      42.261 -13.739   3.219  1.00  0.00     0.254 C 
HETATM   22  N   UNL     1      41.866 -15.054   3.387  1.00  0.00    -0.353 N 
HETATM   23  H   UNL     1      41.190 -15.243   4.116  1.00  0.00     0.163 HD
HETATM   24  O   UNL     1      43.144 -13.363   2.463  1.00  0.00    -0.268 OA
BRANCH  22  25
HETATM   25  C   UNL     1      42.382 -16.206   2.656  1.00  0.00     0.080 C 
HETATM   26  C   UNL     1      43.019 -17.258   3.562  1.00  0.00     0.032 C 
BRANCH  25  27
HETATM   27  C   UNL     1      41.395 -16.776   1.625  1.00  0.00     0.020 C 
HETATM   28  C   UNL     1      41.395 -16.121   0.255  1.00  0.00     0.007 C 
ENDBRANCH  25  27
ENDBRANCH  22  25
ENDBRANCH   1  21
BRANCH   5  29
HETATM   29  N   UNL     1      41.505 -11.782   7.569  1.00  0.00    -0.309 N 
HETATM   30  C   UNL     1      41.838 -10.685   8.346  1.00  0.00     0.325 C 
HETATM   31  N   UNL     1      41.781 -11.030   9.686  1.00  0.00    -0.307 N 
HETATM   32  O   UNL     1      42.126  -9.579   7.910  1.00  0.00    -0.247 OA
HETATM   33  H   UNL     1      41.165 -11.800   9.907  1.00  0.00     0.170 HD
HETATM   34  H   UNL     1      41.660 -12.679   8.005  1.00  0.00     0.170 HD
BRANCH  31  35
HETATM   35  C   UNL     1      42.170 -10.241  10.792  1.00  0.00     0.053 A 
HETATM   36  C   UNL     1      43.306 -10.620  11.532  1.00  0.00     0.037 A 
HETATM   37 BR   UNL     1      44.295 -12.187  11.094  1.00  0.00    -0.049 Br
HETATM   38  C   UNL     1      43.737  -9.862  12.624  1.00  0.00     0.021 A 
HETATM   39  C   UNL     1      43.044  -8.709  12.983  1.00  0.00     0.002 A 
HETATM   40  C   UNL     1      41.927  -8.316  12.250  1.00  0.00     0.002 A 
HETATM   41  C   UNL     1      41.491  -9.077  11.161  1.00  0.00     0.031 A 
ENDBRANCH  31  35
ENDBRANCH   5  29
TORSDOF 8
ENDMDL
MODEL 7
REMARK VINA RESULT:      -7.8      5.148     11.241
REMARK  8 active torsions:
REMARK  status: ('A' for Active; 'I' for Inactive)
REMARK    1  A    between atoms: C_2  and  C_3 
REMARK    2  A    between atoms: C_3  and  N_4 
REMARK       I    between atoms: N_4  and  C_5 
REMARK    3  A    between atoms: C_5  and  C_6 
REMARK    4  A    between atoms: C_7  and  N_8 
REMARK    5  A    between atoms: N_11  and  C_12 
REMARK    6  A    between atoms: C_13  and  O_14 
REMARK    7  A    between atoms: C_24  and  N_25 
REMARK       I    between atoms: N_25  and  C_26 
REMARK       I    between atoms: C_26  and  N_27 
REMARK    8  A    between atoms: N_27  and  C_28 
ROOT
HETATM    1  C   UNL     1      41.048 -13.942  -0.127  1.00  0.00     0.060 A 
HETATM    2  C   UNL     1      41.371 -15.316  -0.146  1.00  0.00     0.046 A 
HETATM    3  C   UNL     1      41.050 -16.009  -1.328  1.00  0.00     0.032 A 
HETATM    4  C   UNL     1      40.394 -15.397  -2.408  1.00  0.00     0.032 A 
HETATM    5  C   UNL     1      40.019 -14.062  -2.336  1.00  0.00     0.037 A 
HETATM    6  C   UNL     1      40.363 -13.334  -1.199  1.00  0.00     0.049 A 
ENDROOT
BRANCH   2   7
HETATM    7  N   UNL     1      41.914 -15.985   0.945  1.00  0.00    -0.378 N 
HETATM    8  C   UNL     1      43.125 -16.809   0.752  1.00  0.00     0.138 C 
HETATM    9  C   UNL     1      43.906 -16.911   2.086  1.00  0.00     0.115 C 
HETATM   10  N   UNL     1      43.043 -17.453   3.167  1.00  0.00    -0.278 NA
HETATM   11  C   UNL     1      41.811 -16.636   3.342  1.00  0.00     0.115 C 
HETATM   12  C   UNL     1      41.034 -16.511   2.010  1.00  0.00     0.138 C 
BRANCH  10  13
HETATM   13  C   UNL     1      43.652 -17.739   4.414  1.00  0.00     0.044 A 
HETATM   14  C   UNL     1      44.201 -19.027   4.670  1.00  0.00     0.089 A 
HETATM   15  C   UNL     1      44.772 -19.315   5.919  1.00  0.00     0.038 A 
HETATM   16  C   UNL     1      44.812 -18.347   6.922  1.00  0.00     0.003 A 
HETATM   17  C   UNL     1      44.290 -17.084   6.685  1.00  0.00     0.002 A 
HETATM   18  C   UNL     1      43.720 -16.784   5.445  1.00  0.00     0.026 A 
BRANCH  14  19
HETATM   19  O   UNL     1      44.155 -19.928   3.629  1.00  0.00    -0.354 OA
HETATM   20  C   UNL     1      44.754 -21.199   3.830  1.00  0.00     0.210 C 
ENDBRANCH  14  19
ENDBRANCH  10  13
ENDBRANCH   2   7
BRANCH   1  21
HETATM   21  C   UNL     1      41.299 -13.057   1.042  1.00  0.00     0.254 C 
HETATM   22  N   UNL     1      40.238 -13.003   1.928  1.00  0.00    -0.353 N 
HETATM   23  H   UNL     1      39.369 -13.430   1.633  1.00  0.00     0.163 HD
HETATM   24  O   UNL     1      42.373 -12.496   1.201  1.00  0.00    -0.268 OA
BRANCH  22  25
HETATM   25  C   UNL     1      40.232 -12.332   3.223  1.00  0.00     0.080 C 
HETATM   26  C   UNL     1      38.886 -11.694   3.564  1.00  0.00     0.032 C 
BRANCH  25  27
HETATM   27  C   UNL     1      40.838 -13.172   4.358  1.00  0.00     0.020 C 
HETATM   28  C   UNL     1      39.867 -14.016   5.166  1.00  0.00     0.007 C 
ENDBRANCH  25  27
ENDBRANCH  22  25
ENDBRANCH   1  21
BRANCH   5  29
HETATM   29  N   UNL     1      39.235 -13.415  -3.309  1.00  0.00    -0.309 N 
HETATM   30  C   UNL     1      37.878 -13.573  -3.540  1.00  0.00     0.325 C 
HETATM   31  N   UNL     1      37.410 -12.515  -4.301  1.00  0.00    -0.307 N 
HETATM   32  O   UNL     1      37.199 -14.501  -3.122  1.00  0.00    -0.247 OA
HETATM   33  H   UNL     1      37.946 -11.661  -4.228  1.00  0.00     0.170 HD
HETATM   34  H   UNL     1      39.723 -12.854  -3.991  1.00  0.00     0.170 HD
BRANCH  31  35
HETATM   35  C   UNL     1      36.120 -12.364  -4.858  1.00  0.00     0.053 A 
HETATM   36  C   UNL     1      35.162 -11.607  -4.158  1.00  0.00     0.037 A 
HETATM   37 BR   UNL     1      35.559 -10.826  -2.468  1.00  0.00    -0.049 Br
HETATM   38  C   UNL     1      33.878 -11.417  -4.677  1.00  0.00     0.021 A 
HETATM   39  C   UNL     1      33.541 -11.971  -5.909  1.00  0.00     0.002 A 
HETATM   40  C   UNL     1      34.485 -12.710  -6.618  1.00  0.00     0.002 A 
HETATM   41  C   UNL     1      35.768 -12.906  -6.097  1.00  0.00     0.031 A 
ENDBRANCH  31  35
ENDBRANCH   5  29
TORSDOF 8
ENDMDL
MODEL 8
REMARK VINA RESULT:      -7.7      5.513     11.316
REMARK  8 active torsions:
REMARK  status: ('A' for Active; 'I' for Inactive)
REMARK    1  A    between atoms: C_2  and  C_3 
REMARK    2  A    between atoms: C_3  and  N_4 
REMARK       I    between atoms: N_4  and  C_5 
REMARK    3  A    between atoms: C_5  and  C_6 
REMARK    4  A    between atoms: C_7  and  N_8 
REMARK    5  A    between atoms: N_11  and  C_12 
REMARK    6  A    between atoms: C_13  and  O_14 
REMARK    7  A    between atoms: C_24  and  N_25 
REMARK       I    between atoms: N_25  and  C_26 
REMARK       I    between atoms: C_26  and  N_27 
REMARK    8  A    between atoms: N_27  and  C_28 
ROOT
HETATM    1  C   UNL     1      39.978 -14.350  -0.273  1.00  0.00     0.060 A 
HETATM    2  C   UNL     1      40.987 -15.291  -0.571  1.00  0.00     0.046 A 
HETATM    3  C   UNL     1      41.350 -15.400  -1.926  1.00  0.00     0.032 A 
HETATM    4  C   UNL     1      40.712 -14.666  -2.939  1.00  0.00     0.032 A 
HETATM    5  C   UNL     1      39.670 -13.801  -2.630  1.00  0.00     0.037 A 
HETATM    6  C   UNL     1      39.317 -13.635  -1.294  1.00  0.00     0.049 A 
ENDROOT
BRANCH   2   7
HETATM    7  N   UNL     1      41.560 -16.119   0.387  1.00  0.00    -0.378 N 
HETATM    8  C   UNL     1      40.697 -17.053   1.140  1.00  0.00     0.138 C 
HETATM    9  C   UNL     1      41.535 -18.262   1.628  1.00  0.00     0.115 C 
HETATM   10  N   UNL     1      42.693 -17.813   2.441  1.00  0.00    -0.278 NA
HETATM   11  C   UNL     1      43.547 -16.852   1.690  1.00  0.00     0.115 C 
HETATM   12  C   UNL     1      42.716 -15.650   1.181  1.00  0.00     0.138 C 
BRANCH  10  13
HETATM   13  C   UNL     1      43.476 -18.808   3.078  1.00  0.00     0.044 A 
HETATM   14  C   UNL     1      43.905 -18.636   4.424  1.00  0.00     0.089 A 
HETATM   15  C   UNL     1      44.708 -19.609   5.038  1.00  0.00     0.038 A 
HETATM   16  C   UNL     1      45.093 -20.755   4.343  1.00  0.00     0.003 A 
HETATM   17  C   UNL     1      44.676 -20.942   3.033  1.00  0.00     0.002 A 
HETATM   18  C   UNL     1      43.874 -19.981   2.410  1.00  0.00     0.026 A 
BRANCH  14  19
HETATM   19  O   UNL     1      43.466 -17.498   5.063  1.00  0.00    -0.354 OA
HETATM   20  C   UNL     1      42.549 -17.655   6.135  1.00  0.00     0.210 C 
ENDBRANCH  14  19
ENDBRANCH  10  13
ENDBRANCH   2   7
BRANCH   1  21
HETATM   21  C   UNL     1      39.457 -14.112   1.101  1.00  0.00     0.254 C 
HETATM   22  N   UNL     1      40.246 -13.256   1.846  1.00  0.00    -0.353 N 
HETATM   23  H   UNL     1      41.148 -13.004   1.459  1.00  0.00     0.163 HD
HETATM   24  O   UNL     1      38.399 -14.595   1.476  1.00  0.00    -0.268 OA
BRANCH  22  25
HETATM   25  C   UNL     1      39.932 -12.731   3.171  1.00  0.00     0.080 C 
HETATM   26  C   UNL     1      38.754 -11.758   3.169  1.00  0.00     0.032 C 
BRANCH  25  27
HETATM   27  C   UNL     1      39.857 -13.812   4.261  1.00  0.00     0.020 C 
HETATM   28  C   UNL     1      40.977 -14.836   4.276  1.00  0.00     0.007 C 
ENDBRANCH  25  27
ENDBRANCH  22  25
ENDBRANCH   1  21
BRANCH   5  29
HETATM   29  N   UNL     1      38.887 -13.142  -3.596  1.00  0.00    -0.309 N 
HETATM   30  C   UNL     1      37.556 -13.372  -3.902  1.00  0.00     0.325 C 
HETATM   31  N   UNL     1      37.051 -12.298  -4.615  1.00  0.00    -0.307 N 
HETATM   32  O   UNL     1      36.925 -14.370  -3.581  1.00  0.00    -0.247 OA
HETATM   33  H   UNL     1      37.523 -11.417  -4.459  1.00  0.00     0.170 HD
HETATM   34  H   UNL     1      39.366 -12.504  -4.215  1.00  0.00     0.170 HD
BRANCH  31  35
HETATM   35  C   UNL     1      35.780 -12.193  -5.223  1.00  0.00     0.053 A 
HETATM   36  C   UNL     1      34.742 -11.547  -4.524  1.00  0.00     0.037 A 
HETATM   37 BR   UNL     1      35.011 -10.854  -2.772  1.00  0.00    -0.049 Br
HETATM   38  C   UNL     1      33.473 -11.407  -5.092  1.00  0.00     0.021 A 
HETATM   39  C   UNL     1      33.229 -11.899  -6.371  1.00  0.00     0.002 A 
HETATM   40  C   UNL     1      34.251 -12.528  -7.078  1.00  0.00     0.002 A 
HETATM   41  C   UNL     1      35.519 -12.675  -6.508  1.00  0.00     0.031 A 
ENDBRANCH  31  35
ENDBRANCH   5  29
TORSDOF 8
ENDMDL
MODEL 9
REMARK VINA RESULT:      -7.4      5.046     10.916
REMARK  8 active torsions:
REMARK  status: ('A' for Active; 'I' for Inactive)
REMARK    1  A    between atoms: C_2  and  C_3 
REMARK    2  A    between atoms: C_3  and  N_4 
REMARK       I    between atoms: N_4  and  C_5 
REMARK    3  A    between atoms: C_5  and  C_6 
REMARK    4  A    between atoms: C_7  and  N_8 
REMARK    5  A    between atoms: N_11  and  C_12 
REMARK    6  A    between atoms: C_13  and  O_14 
REMARK    7  A    between atoms: C_24  and  N_25 
REMARK       I    between atoms: N_25  and  C_26 
REMARK       I    between atoms: C_26  and  N_27 
REMARK    8  A    between atoms: N_27  and  C_28 
ROOT
HETATM    1  C   UNL     1      41.266 -13.975   0.117  1.00  0.00     0.060 A 
HETATM    2  C   UNL     1      41.512 -15.331  -0.189  1.00  0.00     0.046 A 
HETATM    3  C   UNL     1      41.238 -15.724  -1.512  1.00  0.00     0.032 A 
HETATM    4  C   UNL     1      40.694 -14.847  -2.463  1.00  0.00     0.032 A 
HETATM    5  C   UNL     1      40.389 -13.537  -2.118  1.00  0.00     0.037 A 
HETATM    6  C   UNL     1      40.692 -13.101  -0.830  1.00  0.00     0.049 A 
ENDROOT
BRANCH   2   7
HETATM    7  N   UNL     1      41.940 -16.257   0.754  1.00  0.00    -0.378 N 
HETATM    8  C   UNL     1      43.165 -17.039   0.490  1.00  0.00     0.138 C 
HETATM    9  C   UNL     1      43.803 -17.482   1.831  1.00  0.00     0.115 C 
HETATM   10  N   UNL     1      42.833 -18.249   2.653  1.00  0.00    -0.278 NA
HETATM   11  C   UNL     1      41.588 -17.470   2.896  1.00  0.00     0.115 C 
HETATM   12  C   UNL     1      40.953 -17.005   1.563  1.00  0.00     0.138 C 
BRANCH  10  13
HETATM   13  C   UNL     1      43.308 -18.845   3.847  1.00  0.00     0.044 A 
HETATM   14  C   UNL     1      44.159 -19.985   3.796  1.00  0.00     0.089 A 
HETATM   15  C   UNL     1      44.599 -20.591   4.983  1.00  0.00     0.038 A 
HETATM   16  C   UNL     1      44.214 -20.086   6.224  1.00  0.00     0.003 A 
HETATM   17  C   UNL     1      43.392 -18.970   6.291  1.00  0.00     0.002 A 
HETATM   18  C   UNL     1      42.948 -18.356   5.117  1.00  0.00     0.026 A 
BRANCH  14  19
HETATM   19  O   UNL     1      44.526 -20.416   2.541  1.00  0.00    -0.354 OA
HETATM   20  C   UNL     1      44.369 -21.796   2.246  1.00  0.00     0.210 C 
ENDBRANCH  14  19
ENDBRANCH  10  13
ENDBRANCH   2   7
BRANCH   1  21
HETATM   21  C   UNL     1      41.483 -13.386   1.466  1.00  0.00     0.254 C 
HETATM   22  N   UNL     1      40.391 -13.519   2.305  1.00  0.00    -0.353 N 
HETATM   23  H   UNL     1      39.529 -13.851   1.891  1.00  0.00     0.163 HD
HETATM   24  O   UNL     1      42.555 -12.896   1.785  1.00  0.00    -0.268 OA
BRANCH  22  25
HETATM   25  C   UNL     1      40.344 -13.162   3.719  1.00  0.00     0.080 C 
HETATM   26  C   UNL     1      39.558 -11.880   3.990  1.00  0.00     0.032 C 
BRANCH  25  27
HETATM   27  C   UNL     1      39.975 -14.336   4.640  1.00  0.00     0.020 C 
HETATM   28  C   UNL     1      40.524 -14.282   6.055  1.00  0.00     0.007 C 
ENDBRANCH  25  27
ENDBRANCH  22  25
ENDBRANCH   1  21
BRANCH   5  29
HETATM   29  N   UNL     1      39.713 -12.640  -2.965  1.00  0.00    -0.309 N 
HETATM   30  C   UNL     1      40.259 -11.601  -3.700  1.00  0.00     0.325 C 
HETATM   31  N   UNL     1      39.363 -11.202  -4.677  1.00  0.00    -0.307 N 
HETATM   32  O   UNL     1      41.369 -11.121  -3.518  1.00  0.00    -0.247 OA
HETATM   33  H   UNL     1      38.703 -11.909  -4.972  1.00  0.00     0.170 HD
HETATM   34  H   UNL     1      38.704 -12.678  -2.960  1.00  0.00     0.170 HD
BRANCH  31  35
HETATM   35  C   UNL     1      39.481 -10.096  -5.550  1.00  0.00     0.053 A 
HETATM   36  C   UNL     1      38.943  -8.857  -5.154  1.00  0.00     0.037 A 
HETATM   37 BR   UNL     1      38.032  -8.658  -3.495  1.00  0.00    -0.049 Br
HETATM   38  C   UNL     1      39.049  -7.733  -5.977  1.00  0.00     0.021 A 
HETATM   39  C   UNL     1      39.705  -7.831  -7.201  1.00  0.00     0.002 A 
HETATM   40  C   UNL     1      40.254  -9.048  -7.598  1.00  0.00     0.002 A 
HETATM   41  C   UNL     1      40.143 -10.175  -6.777  1.00  0.00     0.031 A 
ENDBRANCH  31  35
ENDBRANCH   5  29
TORSDOF 8
ENDMDL
MODEL 10
REMARK VINA RESULT:      -7.4      4.536     10.366
REMARK  8 active torsions:
REMARK  status: ('A' for Active; 'I' for Inactive)
REMARK    1  A    between atoms: C_2  and  C_3 
REMARK    2  A    between atoms: C_3  and  N_4 
REMARK       I    between atoms: N_4  and  C_5 
REMARK    3  A    between atoms: C_5  and  C_6 
REMARK    4  A    between atoms: C_7  and  N_8 
REMARK    5  A    between atoms: N_11  and  C_12 
REMARK    6  A    between atoms: C_13  and  O_14 
REMARK    7  A    between atoms: C_24  and  N_25 
REMARK       I    between atoms: N_25  and  C_26 
REMARK       I    between atoms: C_26  and  N_27 
REMARK    8  A    between atoms: N_27  and  C_28 
ROOT
HETATM    1  C   UNL     1      41.818 -14.052   1.240  1.00  0.00     0.060 A 
HETATM    2  C   UNL     1      41.932 -15.376   0.767  1.00  0.00     0.046 A 
HETATM    3  C   UNL     1      41.421 -15.618  -0.521  1.00  0.00     0.032 A 
HETATM    4  C   UNL     1      40.778 -14.624  -1.277  1.00  0.00     0.032 A 
HETATM    5  C   UNL     1      40.611 -13.347  -0.759  1.00  0.00     0.037 A 
HETATM    6  C   UNL     1      41.147 -13.061   0.494  1.00  0.00     0.049 A 
ENDROOT
BRANCH   2   7
HETATM    7  N   UNL     1      42.456 -16.413   1.530  1.00  0.00    -0.378 N 
HETATM    8  C   UNL     1      41.828 -16.742   2.826  1.00  0.00     0.138 C 
HETATM    9  C   UNL     1      42.095 -18.227   3.176  1.00  0.00     0.115 C 
HETATM   10  N   UNL     1      43.552 -18.515   3.189  1.00  0.00    -0.278 NA
HETATM   11  C   UNL     1      44.189 -18.160   1.891  1.00  0.00     0.115 C 
HETATM   12  C   UNL     1      43.910 -16.683   1.521  1.00  0.00     0.138 C 
BRANCH  10  13
HETATM   13  C   UNL     1      43.966 -19.797   3.630  1.00  0.00     0.044 A 
HETATM   14  C   UNL     1      44.252 -20.028   5.005  1.00  0.00     0.089 A 
HETATM   15  C   UNL     1      44.694 -21.290   5.432  1.00  0.00     0.038 A 
HETATM   16  C   UNL     1      44.855 -22.332   4.519  1.00  0.00     0.003 A 
HETATM   17  C   UNL     1      44.572 -22.125   3.177  1.00  0.00     0.002 A 
HETATM   18  C   UNL     1      44.129 -20.874   2.740  1.00  0.00     0.026 A 
BRANCH  14  19
HETATM   19  O   UNL     1      44.045 -18.967   5.859  1.00  0.00    -0.354 OA
HETATM   20  C   UNL     1      45.185 -18.253   6.313  1.00  0.00     0.210 C 
ENDBRANCH  14  19
ENDBRANCH  10  13
ENDBRANCH   2   7
BRANCH   1  21
HETATM   21  C   UNL     1      42.289 -13.616   2.584  1.00  0.00     0.254 C 
HETATM   22  N   UNL     1      41.258 -13.323   3.458  1.00  0.00    -0.353 N 
HETATM   23  H   UNL     1      40.322 -13.283   3.071  1.00  0.00     0.163 HD
HETATM   24  O   UNL     1      43.477 -13.593   2.869  1.00  0.00    -0.268 OA
BRANCH  22  25
HETATM   25  C   UNL     1      41.396 -12.999   4.873  1.00  0.00     0.080 C 
HETATM   26  C   UNL     1      41.504 -11.498   5.140  1.00  0.00     0.032 C 
BRANCH  25  27
HETATM   27  C   UNL     1      40.389 -13.729   5.776  1.00  0.00     0.020 C 
HETATM   28  C   UNL     1      40.485 -15.244   5.808  1.00  0.00     0.007 C 
ENDBRANCH  25  27
ENDBRANCH  22  25
ENDBRANCH   1  21
BRANCH   5  29
HETATM   29  N   UNL     1      39.856 -12.339  -1.388  1.00  0.00    -0.309 N 
HETATM   30  C   UNL     1      40.258 -11.503  -2.417  1.00  0.00     0.325 C 
HETATM   31  N   UNL     1      39.147 -10.926  -3.007  1.00  0.00    -0.307 N 
HETATM   32  O   UNL     1      41.419 -11.317  -2.755  1.00  0.00    -0.247 OA
HETATM   33  H   UNL     1      38.287 -11.451  -2.915  1.00  0.00     0.170 HD
HETATM   34  H   UNL     1      38.959 -12.118  -0.981  1.00  0.00     0.170 HD
BRANCH  31  35
HETATM   35  C   UNL     1      39.128  -9.921  -4.001  1.00  0.00     0.053 A 
HETATM   36  C   UNL     1      39.033  -8.574  -3.604  1.00  0.00     0.037 A 
HETATM   37 BR   UNL     1      38.891  -8.089  -1.769  1.00  0.00    -0.049 Br
HETATM   38  C   UNL     1      39.026  -7.546  -4.551  1.00  0.00     0.021 A 
HETATM   39  C   UNL     1      39.127  -7.852  -5.906  1.00  0.00     0.002 A 
HETATM   40  C   UNL     1      39.235  -9.180  -6.310  1.00  0.00     0.002 A 
HETATM   41  C   UNL     1      39.236 -10.210  -5.364  1.00  0.00     0.031 A 
ENDBRANCH  31  35
ENDBRANCH   5  29
TORSDOF 8
ENDMDL
