MODEL 1
REMARK VINA RESULT:      -7.8      0.000      0.000
REMARK  8 active torsions:
REMARK  status: ('A' for Active; 'I' for Inactive)
REMARK    1  A    between atoms: C_2  and  C_3 
REMARK    2  A    between atoms: C_3  and  C_4 
REMARK    3  A    between atoms: C_4  and  N_5 
REMARK    4  A    between atoms: N_5  and  C_6 
REMARK    5  A    between atoms: C_8  and  N_9 
REMARK    6  A    between atoms: N_9  and  C_10 
REMARK    7  A    between atoms: C_10  and  C_11 
REMARK    8  A    between atoms: C_12  and  O_13 
ROOT
HETATM    1  C   UNL     1      43.851 -18.198   1.992  1.00  0.00     0.181 A 
HETATM    2  N   UNL     1      43.989 -17.659   3.218  1.00  0.00    -0.207 NA
HETATM    3  C   UNL     1      44.229 -18.492   4.248  1.00  0.00     0.119 A 
HETATM    4  C   UNL     1      44.384 -19.884   4.070  1.00  0.00     0.031 A 
HETATM    5  C   UNL     1      44.172 -20.374   2.768  1.00  0.00     0.048 A 
HETATM    6  N   UNL     1      43.905 -19.511   1.783  1.00  0.00    -0.330 N 
HETATM    7  H   UNL     1      43.716 -19.835   0.845  1.00  0.00     0.168 HD
HETATM    8  C   UNL     1      44.752 -20.820   5.067  1.00  0.00     0.017 A 
HETATM    9  C   UNL     1      44.841 -22.185   4.785  1.00  0.00     0.001 A 
HETATM   10  C   UNL     1      44.579 -22.650   3.501  1.00  0.00     0.002 A 
HETATM   11  C   UNL     1      44.253 -21.747   2.491  1.00  0.00     0.030 A 
ENDROOT
BRANCH   3  12
HETATM   12  N   UNL     1      44.328 -17.865   5.487  1.00  0.00    -0.272 NA
HETATM   13  H   UNL     1      44.811 -16.979   5.364  1.00  0.00     0.129 HD
BRANCH  12  14
HETATM   14  C   UNL     1      43.066 -17.700   6.228  1.00  0.00     0.135 C 
BRANCH  14  15
HETATM   15  C   UNL     1      42.350 -16.392   5.954  1.00  0.00    -0.012 A 
HETATM   16  C   UNL     1      43.043 -15.172   6.128  1.00  0.00     0.075 A 
HETATM   17  C   UNL     1      42.379 -13.957   5.925  1.00  0.00     0.037 A 
HETATM   18  C   UNL     1      41.026 -13.940   5.584  1.00  0.00     0.003 A 
HETATM   19  C   UNL     1      40.324 -15.133   5.457  1.00  0.00     0.001 A 
HETATM   20  C   UNL     1      40.976 -16.351   5.653  1.00  0.00     0.011 A 
BRANCH  16  21
HETATM   21  O   UNL     1      44.355 -15.279   6.512  1.00  0.00    -0.355 OA
HETATM   22  C   UNL     1      45.026 -14.086   6.906  1.00  0.00     0.210 C 
ENDBRANCH  16  21
ENDBRANCH  14  15
ENDBRANCH  12  14
ENDBRANCH   3  12
BRANCH   1  23
HETATM   23  N   UNL     1      43.615 -17.415   0.871  1.00  0.00    -0.262 NA
HETATM   24  H   UNL     1      44.443 -16.960   0.501  1.00  0.00     0.130 HD
BRANCH  23  25
HETATM   25  C   UNL     1      42.485 -16.488   0.972  1.00  0.00     0.095 C 
BRANCH  25  26
HETATM   26  C   UNL     1      41.167 -17.271   0.963  1.00  0.00     0.014 C 
BRANCH  26  27
HETATM   27  C   UNL     1      40.229 -16.858   2.100  1.00  0.00    -0.003 C 
HETATM   28  C   UNL     1      39.671 -15.461   1.877  1.00  0.00     0.005 C 
ENDBRANCH  26  27
ENDBRANCH  25  26
ENDBRANCH  23  25
ENDBRANCH   1  23
TORSDOF 8
ENDMDL
MODEL 2
REMARK VINA RESULT:      -7.4      1.537      3.698
REMARK  8 active torsions:
REMARK  status: ('A' for Active; 'I' for Inactive)
REMARK    1  A    between atoms: C_2  and  C_3 
REMARK    2  A    between atoms: C_3  and  C_4 
REMARK    3  A    between atoms: C_4  and  N_5 
REMARK    4  A    between atoms: N_5  and  C_6 
REMARK    5  A    between atoms: C_8  and  N_9 
REMARK    6  A    between atoms: N_9  and  C_10 
REMARK    7  A    between atoms: C_10  and  C_11 
REMARK    8  A    between atoms: C_12  and  O_13 
ROOT
HETATM    1  C   UNL     1      44.590 -18.437   5.426  1.00  0.00     0.181 A 
HETATM    2  N   UNL     1      44.217 -17.712   4.355  1.00  0.00    -0.207 NA
HETATM    3  C   UNL     1      44.022 -18.362   3.192  1.00  0.00     0.119 A 
HETATM    4  C   UNL     1      44.151 -19.764   3.083  1.00  0.00     0.031 A 
HETATM    5  C   UNL     1      44.596 -20.441   4.232  1.00  0.00     0.048 A 
HETATM    6  N   UNL     1      44.806 -19.748   5.356  1.00  0.00    -0.330 N 
HETATM    7  H   UNL     1      45.157 -20.201   6.189  1.00  0.00     0.168 HD
HETATM    8  C   UNL     1      43.854 -20.545   1.940  1.00  0.00     0.017 A 
HETATM    9  C   UNL     1      44.054 -21.927   1.932  1.00  0.00     0.001 A 
HETATM   10  C   UNL     1      44.541 -22.567   3.066  1.00  0.00     0.002 A 
HETATM   11  C   UNL     1      44.805 -21.829   4.218  1.00  0.00     0.030 A 
ENDROOT
BRANCH   3  12
HETATM   12  N   UNL     1      43.669 -17.542   2.124  1.00  0.00    -0.272 NA
HETATM   13  H   UNL     1      42.835 -17.923   1.685  1.00  0.00     0.129 HD
BRANCH  12  14
HETATM   14  C   UNL     1      43.517 -16.111   2.434  1.00  0.00     0.135 C 
BRANCH  14  15
HETATM   15  C   UNL     1      42.085 -15.614   2.393  1.00  0.00    -0.012 A 
HETATM   16  C   UNL     1      41.777 -14.338   2.920  1.00  0.00     0.075 A 
HETATM   17  C   UNL     1      40.453 -13.889   2.932  1.00  0.00     0.037 A 
HETATM   18  C   UNL     1      39.426 -14.705   2.456  1.00  0.00     0.003 A 
HETATM   19  C   UNL     1      39.712 -15.979   1.978  1.00  0.00     0.001 A 
HETATM   20  C   UNL     1      41.030 -16.436   1.958  1.00  0.00     0.011 A 
BRANCH  16  21
HETATM   21  O   UNL     1      42.839 -13.623   3.412  1.00  0.00    -0.355 OA
HETATM   22  C   UNL     1      42.809 -13.261   4.789  1.00  0.00     0.210 C 
ENDBRANCH  16  21
ENDBRANCH  14  15
ENDBRANCH  12  14
ENDBRANCH   3  12
BRANCH   1  23
HETATM   23  N   UNL     1      44.800 -17.854   6.667  1.00  0.00    -0.262 NA
HETATM   24  H   UNL     1      44.745 -18.504   7.445  1.00  0.00     0.130 HD
BRANCH  23  25
HETATM   25  C   UNL     1      44.042 -16.628   6.928  1.00  0.00     0.095 C 
BRANCH  25  26
HETATM   26  C   UNL     1      42.606 -16.980   7.334  1.00  0.00     0.014 C 
BRANCH  26  27
HETATM   27  C   UNL     1      41.561 -16.356   6.407  1.00  0.00    -0.003 C 
HETATM   28  C   UNL     1      40.946 -17.398   5.485  1.00  0.00     0.005 C 
ENDBRANCH  26  27
ENDBRANCH  25  26
ENDBRANCH  23  25
ENDBRANCH   1  23
TORSDOF 8
ENDMDL
MODEL 3
REMARK VINA RESULT:      -7.4      2.259      7.177
REMARK  8 active torsions:
REMARK  status: ('A' for Active; 'I' for Inactive)
REMARK    1  A    between atoms: C_2  and  C_3 
REMARK    2  A    between atoms: C_3  and  C_4 
REMARK    3  A    between atoms: C_4  and  N_5 
REMARK    4  A    between atoms: N_5  and  C_6 
REMARK    5  A    between atoms: C_8  and  N_9 
REMARK    6  A    between atoms: N_9  and  C_10 
REMARK    7  A    between atoms: C_10  and  C_11 
REMARK    8  A    between atoms: C_12  and  O_13 
ROOT
HETATM    1  C   UNL     1      43.521 -14.879   6.794  1.00  0.00     0.181 A 
HETATM    2  N   UNL     1      43.604 -16.174   6.440  1.00  0.00    -0.207 NA
HETATM    3  C   UNL     1      42.787 -16.613   5.462  1.00  0.00     0.119 A 
HETATM    4  C   UNL     1      41.899 -15.753   4.781  1.00  0.00     0.031 A 
HETATM    5  C   UNL     1      41.834 -14.427   5.247  1.00  0.00     0.048 A 
HETATM    6  N   UNL     1      42.641 -14.046   6.242  1.00  0.00    -0.330 N 
HETATM    7  H   UNL     1      42.595 -13.110   6.620  1.00  0.00     0.168 HD
HETATM    8  C   UNL     1      41.092 -16.094   3.669  1.00  0.00     0.017 A 
HETATM    9  C   UNL     1      40.218 -15.168   3.095  1.00  0.00     0.001 A 
HETATM   10  C   UNL     1      40.137 -13.877   3.604  1.00  0.00     0.002 A 
HETATM   11  C   UNL     1      40.947 -13.502   4.674  1.00  0.00     0.030 A 
ENDROOT
BRANCH   3  12
HETATM   12  N   UNL     1      42.910 -17.969   5.174  1.00  0.00    -0.272 NA
HETATM   13  H   UNL     1      42.219 -18.214   4.469  1.00  0.00     0.129 HD
BRANCH  12  14
HETATM   14  C   UNL     1      44.258 -18.430   4.801  1.00  0.00     0.135 C 
BRANCH  14  15
HETATM   15  C   UNL     1      44.271 -19.649   3.900  1.00  0.00    -0.012 A 
HETATM   16  C   UNL     1      43.713 -19.561   2.604  1.00  0.00     0.075 A 
HETATM   17  C   UNL     1      43.675 -20.692   1.781  1.00  0.00     0.037 A 
HETATM   18  C   UNL     1      44.156 -21.917   2.243  1.00  0.00     0.003 A 
HETATM   19  C   UNL     1      44.664 -22.026   3.533  1.00  0.00     0.001 A 
HETATM   20  C   UNL     1      44.710 -20.904   4.361  1.00  0.00     0.011 A 
BRANCH  16  21
HETATM   21  O   UNL     1      43.218 -18.331   2.248  1.00  0.00    -0.355 OA
HETATM   22  C   UNL     1      43.955 -17.576   1.292  1.00  0.00     0.210 C 
ENDBRANCH  16  21
ENDBRANCH  14  15
ENDBRANCH  12  14
ENDBRANCH   3  12
BRANCH   1  23
HETATM   23  N   UNL     1      44.331 -14.336   7.781  1.00  0.00    -0.262 NA
HETATM   24  H   UNL     1      43.821 -13.899   8.542  1.00  0.00     0.130 HD
BRANCH  23  25
HETATM   25  C   UNL     1      45.429 -13.490   7.306  1.00  0.00     0.095 C 
BRANCH  25  26
HETATM   26  C   UNL     1      45.787 -12.451   8.375  1.00  0.00     0.014 C 
BRANCH  26  27
HETATM   27  C   UNL     1      44.809 -12.456   9.552  1.00  0.00    -0.003 C 
HETATM   28  C   UNL     1      45.240 -11.478  10.635  1.00  0.00     0.005 C 
ENDBRANCH  26  27
ENDBRANCH  25  26
ENDBRANCH  23  25
ENDBRANCH   1  23
TORSDOF 8
ENDMDL
MODEL 4
REMARK VINA RESULT:      -7.4      2.187      7.002
REMARK  8 active torsions:
REMARK  status: ('A' for Active; 'I' for Inactive)
REMARK    1  A    between atoms: C_2  and  C_3 
REMARK    2  A    between atoms: C_3  and  C_4 
REMARK    3  A    between atoms: C_4  and  N_5 
REMARK    4  A    between atoms: N_5  and  C_6 
REMARK    5  A    between atoms: C_8  and  N_9 
REMARK    6  A    between atoms: N_9  and  C_10 
REMARK    7  A    between atoms: C_10  and  C_11 
REMARK    8  A    between atoms: C_12  and  O_13 
ROOT
HETATM    1  C   UNL     1      42.448 -14.492   5.521  1.00  0.00     0.181 A 
HETATM    2  N   UNL     1      42.684 -15.787   5.242  1.00  0.00    -0.207 NA
HETATM    3  C   UNL     1      41.961 -16.362   4.261  1.00  0.00     0.119 A 
HETATM    4  C   UNL     1      41.015 -15.640   3.502  1.00  0.00     0.031 A 
HETATM    5  C   UNL     1      40.788 -14.308   3.892  1.00  0.00     0.048 A 
HETATM    6  N   UNL     1      41.507 -13.790   4.893  1.00  0.00    -0.330 N 
HETATM    7  H   UNL     1      41.345 -12.847   5.217  1.00  0.00     0.168 HD
HETATM    8  C   UNL     1      40.296 -16.123   2.382  1.00  0.00     0.017 A 
HETATM    9  C   UNL     1      39.353 -15.329   1.727  1.00  0.00     0.001 A 
HETATM   10  C   UNL     1      39.112 -14.031   2.161  1.00  0.00     0.002 A 
HETATM   11  C   UNL     1      39.832 -13.515   3.237  1.00  0.00     0.030 A 
ENDROOT
BRANCH   3  12
HETATM   12  N   UNL     1      42.241 -17.709   4.052  1.00  0.00    -0.272 NA
HETATM   13  H   UNL     1      41.388 -18.174   3.750  1.00  0.00     0.129 HD
BRANCH  12  14
HETATM   14  C   UNL     1      43.369 -18.001   3.152  1.00  0.00     0.135 C 
BRANCH  14  15
HETATM   15  C   UNL     1      43.729 -19.472   3.063  1.00  0.00    -0.012 A 
HETATM   16  C   UNL     1      44.401 -20.089   4.144  1.00  0.00     0.075 A 
HETATM   17  C   UNL     1      44.782 -21.432   4.053  1.00  0.00     0.037 A 
HETATM   18  C   UNL     1      44.532 -22.160   2.890  1.00  0.00     0.003 A 
HETATM   19  C   UNL     1      43.913 -21.550   1.804  1.00  0.00     0.001 A 
HETATM   20  C   UNL     1      43.526 -20.212   1.884  1.00  0.00     0.011 A 
BRANCH  16  21
HETATM   21  O   UNL     1      44.652 -19.287   5.228  1.00  0.00    -0.355 OA
HETATM   22  C   UNL     1      44.050 -19.648   6.468  1.00  0.00     0.210 C 
ENDBRANCH  16  21
ENDBRANCH  14  15
ENDBRANCH  12  14
ENDBRANCH   3  12
BRANCH   1  23
HETATM   23  N   UNL     1      43.153 -13.815   6.506  1.00  0.00    -0.262 NA
HETATM   24  H   UNL     1      43.327 -12.838   6.294  1.00  0.00     0.130 HD
BRANCH  23  25
HETATM   25  C   UNL     1      44.357 -14.488   6.998  1.00  0.00     0.095 C 
BRANCH  25  26
HETATM   26  C   UNL     1      45.344 -13.451   7.549  1.00  0.00     0.014 C 
BRANCH  26  27
HETATM   27  C   UNL     1      44.739 -12.595   8.664  1.00  0.00    -0.003 C 
HETATM   28  C   UNL     1      45.726 -11.548   9.156  1.00  0.00     0.005 C 
ENDBRANCH  26  27
ENDBRANCH  25  26
ENDBRANCH  23  25
ENDBRANCH   1  23
TORSDOF 8
ENDMDL
MODEL 5
REMARK VINA RESULT:      -7.4      2.584      7.338
REMARK  8 active torsions:
REMARK  status: ('A' for Active; 'I' for Inactive)
REMARK    1  A    between atoms: C_2  and  C_3 
REMARK    2  A    between atoms: C_3  and  C_4 
REMARK    3  A    between atoms: C_4  and  N_5 
REMARK    4  A    between atoms: N_5  and  C_6 
REMARK    5  A    between atoms: C_8  and  N_9 
REMARK    6  A    between atoms: N_9  and  C_10 
REMARK    7  A    between atoms: C_10  and  C_11 
REMARK    8  A    between atoms: C_12  and  O_13 
ROOT
HETATM    1  C   UNL     1      44.270 -14.273   7.041  1.00  0.00     0.181 A 
HETATM    2  N   UNL     1      44.274 -15.614   6.923  1.00  0.00    -0.207 NA
HETATM    3  C   UNL     1      43.289 -16.185   6.203  1.00  0.00     0.119 A 
HETATM    4  C   UNL     1      42.300 -15.423   5.543  1.00  0.00     0.031 A 
HETATM    5  C   UNL     1      42.335 -14.034   5.761  1.00  0.00     0.048 A 
HETATM    6  N   UNL     1      43.314 -13.516   6.509  1.00  0.00    -0.330 N 
HETATM    7  H   UNL     1      43.347 -12.526   6.709  1.00  0.00     0.168 HD
HETATM    8  C   UNL     1      41.300 -15.923   4.674  1.00  0.00     0.017 A 
HETATM    9  C   UNL     1      40.346 -15.078   4.102  1.00  0.00     0.001 A 
HETATM   10  C   UNL     1      40.373 -13.714   4.371  1.00  0.00     0.002 A 
HETATM   11  C   UNL     1      41.369 -13.189   5.192  1.00  0.00     0.030 A 
ENDROOT
BRANCH   3  12
HETATM   12  N   UNL     1      43.342 -17.575   6.153  1.00  0.00    -0.272 NA
HETATM   13  H   UNL     1      42.457 -17.920   5.790  1.00  0.00     0.129 HD
BRANCH  12  14
HETATM   14  C   UNL     1      44.490 -18.150   5.432  1.00  0.00     0.135 C 
BRANCH  14  15
HETATM   15  C   UNL     1      44.120 -18.874   4.152  1.00  0.00    -0.012 A 
HETATM   16  C   UNL     1      44.439 -20.245   4.013  1.00  0.00     0.075 A 
HETATM   17  C   UNL     1      44.147 -20.912   2.818  1.00  0.00     0.037 A 
HETATM   18  C   UNL     1      43.572 -20.225   1.748  1.00  0.00     0.003 A 
HETATM   19  C   UNL     1      43.298 -18.866   1.858  1.00  0.00     0.001 A 
HETATM   20  C   UNL     1      43.581 -18.192   3.046  1.00  0.00     0.011 A 
BRANCH  16  21
HETATM   21  O   UNL     1      45.047 -20.830   5.094  1.00  0.00    -0.355 OA
HETATM   22  C   UNL     1      45.086 -22.253   5.138  1.00  0.00     0.210 C 
ENDBRANCH  16  21
ENDBRANCH  14  15
ENDBRANCH  12  14
ENDBRANCH   3  12
BRANCH   1  23
HETATM   23  N   UNL     1      45.252 -13.598   7.752  1.00  0.00    -0.262 NA
HETATM   24  H   UNL     1      46.020 -14.187   8.058  1.00  0.00     0.130 HD
BRANCH  23  25
HETATM   25  C   UNL     1      44.770 -12.729   8.828  1.00  0.00     0.095 C 
BRANCH  25  26
HETATM   26  C   UNL     1      45.785 -11.609   9.087  1.00  0.00     0.014 C 
BRANCH  26  27
HETATM   27  C   UNL     1      45.537 -10.883  10.411  1.00  0.00    -0.003 C 
HETATM   28  C   UNL     1      44.134 -11.151  10.935  1.00  0.00     0.005 C 
ENDBRANCH  26  27
ENDBRANCH  25  26
ENDBRANCH  23  25
ENDBRANCH   1  23
TORSDOF 8
ENDMDL
MODEL 6
REMARK VINA RESULT:      -7.4      2.238      3.125
REMARK  8 active torsions:
REMARK  status: ('A' for Active; 'I' for Inactive)
REMARK    1  A    between atoms: C_2  and  C_3 
REMARK    2  A    between atoms: C_3  and  C_4 
REMARK    3  A    between atoms: C_4  and  N_5 
REMARK    4  A    between atoms: N_5  and  C_6 
REMARK    5  A    between atoms: C_8  and  N_9 
REMARK    6  A    between atoms: N_9  and  C_10 
REMARK    7  A    between atoms: C_10  and  C_11 
REMARK    8  A    between atoms: C_12  and  O_13 
ROOT
HETATM    1  C   UNL     1      41.160 -17.021   1.770  1.00  0.00     0.181 A 
HETATM    2  N   UNL     1      40.696 -16.889   3.026  1.00  0.00    -0.207 NA
HETATM    3  C   UNL     1      41.329 -17.563   4.005  1.00  0.00     0.119 A 
HETATM    4  C   UNL     1      42.474 -18.352   3.757  1.00  0.00     0.031 A 
HETATM    5  C   UNL     1      42.861 -18.482   2.411  1.00  0.00     0.048 A 
HETATM    6  N   UNL     1      42.182 -17.818   1.470  1.00  0.00    -0.330 N 
HETATM    7  H   UNL     1      42.417 -17.917   0.492  1.00  0.00     0.168 HD
HETATM    8  C   UNL     1      43.271 -19.000   4.731  1.00  0.00     0.017 A 
HETATM    9  C   UNL     1      44.365 -19.788   4.367  1.00  0.00     0.001 A 
HETATM   10  C   UNL     1      44.699 -19.940   3.026  1.00  0.00     0.002 A 
HETATM   11  C   UNL     1      43.955 -19.283   2.048  1.00  0.00     0.030 A 
ENDROOT
BRANCH   3  12
HETATM   12  N   UNL     1      40.773 -17.401   5.271  1.00  0.00    -0.272 NA
HETATM   13  H   UNL     1      41.224 -18.052   5.908  1.00  0.00     0.129 HD
BRANCH  12  14
HETATM   14  C   UNL     1      40.773 -16.028   5.803  1.00  0.00     0.135 C 
BRANCH  14  15
HETATM   15  C   UNL     1      42.153 -15.413   5.938  1.00  0.00    -0.012 A 
HETATM   16  C   UNL     1      43.057 -15.939   6.889  1.00  0.00     0.075 A 
HETATM   17  C   UNL     1      44.315 -15.349   7.056  1.00  0.00     0.037 A 
HETATM   18  C   UNL     1      44.671 -14.223   6.314  1.00  0.00     0.003 A 
HETATM   19  C   UNL     1      43.771 -13.669   5.410  1.00  0.00     0.001 A 
HETATM   20  C   UNL     1      42.516 -14.251   5.232  1.00  0.00     0.011 A 
BRANCH  16  21
HETATM   21  O   UNL     1      42.608 -17.016   7.610  1.00  0.00    -0.355 OA
HETATM   22  C   UNL     1      43.583 -17.844   8.235  1.00  0.00     0.210 C 
ENDBRANCH  16  21
ENDBRANCH  14  15
ENDBRANCH  12  14
ENDBRANCH   3  12
BRANCH   1  23
HETATM   23  N   UNL     1      40.578 -16.354   0.701  1.00  0.00    -0.262 NA
HETATM   24  H   UNL     1      39.700 -16.755   0.390  1.00  0.00     0.130 HD
BRANCH  23  25
HETATM   25  C   UNL     1      41.470 -16.061  -0.424  1.00  0.00     0.095 C 
BRANCH  25  26
HETATM   26  C   UNL     1      40.756 -15.155  -1.433  1.00  0.00     0.014 C 
BRANCH  26  27
HETATM   27  C   UNL     1      41.011 -15.571  -2.883  1.00  0.00    -0.003 C 
HETATM   28  C   UNL     1      39.717 -15.958  -3.584  1.00  0.00     0.005 C 
ENDBRANCH  26  27
ENDBRANCH  25  26
ENDBRANCH  23  25
ENDBRANCH   1  23
TORSDOF 8
ENDMDL
MODEL 7
REMARK VINA RESULT:      -7.3      1.806      6.329
REMARK  8 active torsions:
REMARK  status: ('A' for Active; 'I' for Inactive)
REMARK    1  A    between atoms: C_2  and  C_3 
REMARK    2  A    between atoms: C_3  and  C_4 
REMARK    3  A    between atoms: C_4  and  N_5 
REMARK    4  A    between atoms: N_5  and  C_6 
REMARK    5  A    between atoms: C_8  and  N_9 
REMARK    6  A    between atoms: N_9  and  C_10 
REMARK    7  A    between atoms: C_10  and  C_11 
REMARK    8  A    between atoms: C_12  and  O_13 
ROOT
HETATM    1  C   UNL     1      40.895 -16.754   4.079  1.00  0.00     0.181 A 
HETATM    2  N   UNL     1      41.686 -17.680   3.508  1.00  0.00    -0.207 NA
HETATM    3  C   UNL     1      41.897 -17.595   2.180  1.00  0.00     0.119 A 
HETATM    4  C   UNL     1      41.357 -16.551   1.398  1.00  0.00     0.031 A 
HETATM    5  C   UNL     1      40.497 -15.656   2.060  1.00  0.00     0.048 A 
HETATM    6  N   UNL     1      40.293 -15.799   3.373  1.00  0.00    -0.330 N 
HETATM    7  H   UNL     1      39.657 -15.192   3.871  1.00  0.00     0.168 HD
HETATM    8  C   UNL     1      41.616 -16.313   0.027  1.00  0.00     0.017 A 
HETATM    9  C   UNL     1      40.995 -15.267  -0.659  1.00  0.00     0.001 A 
HETATM   10  C   UNL     1      40.112 -14.424   0.007  1.00  0.00     0.002 A 
HETATM   11  C   UNL     1      39.868 -14.611   1.366  1.00  0.00     0.030 A 
ENDROOT
BRANCH   3  12
HETATM   12  N   UNL     1      42.699 -18.605   1.657  1.00  0.00    -0.272 NA
HETATM   13  H   UNL     1      42.743 -18.493   0.648  1.00  0.00     0.129 HD
BRANCH  12  14
HETATM   14  C   UNL     1      44.041 -18.734   2.251  1.00  0.00     0.135 C 
BRANCH  14  15
HETATM   15  C   UNL     1      44.246 -20.004   3.055  1.00  0.00    -0.012 A 
HETATM   16  C   UNL     1      44.504 -19.913   4.442  1.00  0.00     0.075 A 
HETATM   17  C   UNL     1      44.743 -21.074   5.185  1.00  0.00     0.037 A 
HETATM   18  C   UNL     1      44.760 -22.321   4.560  1.00  0.00     0.003 A 
HETATM   19  C   UNL     1      44.554 -22.417   3.188  1.00  0.00     0.001 A 
HETATM   20  C   UNL     1      44.311 -21.266   2.438  1.00  0.00     0.011 A 
BRANCH  16  21
HETATM   21  O   UNL     1      44.518 -18.645   4.966  1.00  0.00    -0.355 OA
HETATM   22  C   UNL     1      45.239 -18.440   6.177  1.00  0.00     0.210 C 
ENDBRANCH  16  21
ENDBRANCH  14  15
ENDBRANCH  12  14
ENDBRANCH   3  12
BRANCH   1  23
HETATM   23  N   UNL     1      40.632 -16.755   5.442  1.00  0.00    -0.262 NA
HETATM   24  H   UNL     1      39.865 -16.150   5.717  1.00  0.00     0.130 HD
BRANCH  23  25
HETATM   25  C   UNL     1      41.799 -16.585   6.312  1.00  0.00     0.095 C 
BRANCH  25  26
HETATM   26  C   UNL     1      42.323 -15.148   6.204  1.00  0.00     0.014 C 
BRANCH  26  27
HETATM   27  C   UNL     1      43.809 -15.089   5.842  1.00  0.00    -0.003 C 
HETATM   28  C   UNL     1      44.594 -14.272   6.858  1.00  0.00     0.005 C 
ENDBRANCH  26  27
ENDBRANCH  25  26
ENDBRANCH  23  25
ENDBRANCH   1  23
TORSDOF 8
ENDMDL
MODEL 8
REMARK VINA RESULT:      -7.2      1.822      4.361
REMARK  8 active torsions:
REMARK  status: ('A' for Active; 'I' for Inactive)
REMARK    1  A    between atoms: C_2  and  C_3 
REMARK    2  A    between atoms: C_3  and  C_4 
REMARK    3  A    between atoms: C_4  and  N_5 
REMARK    4  A    between atoms: N_5  and  C_6 
REMARK    5  A    between atoms: C_8  and  N_9 
REMARK    6  A    between atoms: N_9  and  C_10 
REMARK    7  A    between atoms: C_10  and  C_11 
REMARK    8  A    between atoms: C_12  and  O_13 
ROOT
HETATM    1  C   UNL     1      44.308 -18.048   5.115  1.00  0.00     0.181 A 
HETATM    2  N   UNL     1      43.946 -17.462   3.959  1.00  0.00    -0.207 NA
HETATM    3  C   UNL     1      43.836 -18.242   2.866  1.00  0.00     0.119 A 
HETATM    4  C   UNL     1      44.040 -19.638   2.913  1.00  0.00     0.031 A 
HETATM    5  C   UNL     1      44.468 -20.164   4.145  1.00  0.00     0.048 A 
HETATM    6  N   UNL     1      44.594 -19.346   5.195  1.00  0.00    -0.330 N 
HETATM    7  H   UNL     1      44.930 -19.688   6.084  1.00  0.00     0.168 HD
HETATM    8  C   UNL     1      43.833 -20.550   1.850  1.00  0.00     0.017 A 
HETATM    9  C   UNL     1      44.104 -21.912   1.999  1.00  0.00     0.001 A 
HETATM   10  C   UNL     1      44.572 -22.401   3.214  1.00  0.00     0.002 A 
HETATM   11  C   UNL     1      44.747 -21.532   4.289  1.00  0.00     0.030 A 
ENDROOT
BRANCH   3  12
HETATM   12  N   UNL     1      43.489 -17.559   1.703  1.00  0.00    -0.272 NA
HETATM   13  H   UNL     1      43.835 -18.084   0.904  1.00  0.00     0.129 HD
BRANCH  12  14
HETATM   14  C   UNL     1      42.063 -17.220   1.556  1.00  0.00     0.135 C 
BRANCH  14  15
HETATM   15  C   UNL     1      41.799 -16.008   0.684  1.00  0.00    -0.012 A 
HETATM   16  C   UNL     1      42.069 -14.716   1.191  1.00  0.00     0.075 A 
HETATM   17  C   UNL     1      41.784 -13.588   0.414  1.00  0.00     0.037 A 
HETATM   18  C   UNL     1      41.203 -13.727  -0.847  1.00  0.00     0.003 A 
HETATM   19  C   UNL     1      40.891 -14.991  -1.335  1.00  0.00     0.001 A 
HETATM   20  C   UNL     1      41.174 -16.123  -0.571  1.00  0.00     0.011 A 
BRANCH  16  21
HETATM   21  O   UNL     1      42.592 -14.668   2.458  1.00  0.00    -0.355 OA
HETATM   22  C   UNL     1      42.780 -13.384   3.046  1.00  0.00     0.210 C 
ENDBRANCH  16  21
ENDBRANCH  14  15
ENDBRANCH  12  14
ENDBRANCH   3  12
BRANCH   1  23
HETATM   23  N   UNL     1      44.434 -17.327   6.293  1.00  0.00    -0.262 NA
HETATM   24  H   UNL     1      44.727 -17.883   7.091  1.00  0.00     0.130 HD
BRANCH  23  25
HETATM   25  C   UNL     1      43.306 -16.453   6.625  1.00  0.00     0.095 C 
BRANCH  25  26
HETATM   26  C   UNL     1      42.097 -17.298   7.042  1.00  0.00     0.014 C 
BRANCH  26  27
HETATM   27  C   UNL     1      40.783 -16.779   6.454  1.00  0.00    -0.003 C 
HETATM   28  C   UNL     1      41.033 -15.735   5.376  1.00  0.00     0.005 C 
ENDBRANCH  26  27
ENDBRANCH  25  26
ENDBRANCH  23  25
ENDBRANCH   1  23
TORSDOF 8
ENDMDL
MODEL 9
REMARK VINA RESULT:      -7.1      2.109      4.558
REMARK  8 active torsions:
REMARK  status: ('A' for Active; 'I' for Inactive)
REMARK    1  A    between atoms: C_2  and  C_3 
REMARK    2  A    between atoms: C_3  and  C_4 
REMARK    3  A    between atoms: C_4  and  N_5 
REMARK    4  A    between atoms: N_5  and  C_6 
REMARK    5  A    between atoms: C_8  and  N_9 
REMARK    6  A    between atoms: N_9  and  C_10 
REMARK    7  A    between atoms: C_10  and  C_11 
REMARK    8  A    between atoms: C_12  and  O_13 
ROOT
HETATM    1  C   UNL     1      43.824 -17.626   4.683  1.00  0.00     0.181 A 
HETATM    2  N   UNL     1      43.269 -17.259   3.513  1.00  0.00    -0.207 NA
HETATM    3  C   UNL     1      43.201 -18.181   2.533  1.00  0.00     0.119 A 
HETATM    4  C   UNL     1      43.645 -19.508   2.715  1.00  0.00     0.031 A 
HETATM    5  C   UNL     1      44.262 -19.796   3.947  1.00  0.00     0.048 A 
HETATM    6  N   UNL     1      44.335 -18.839   4.878  1.00  0.00    -0.330 N 
HETATM    7  H   UNL     1      44.800 -19.006   5.759  1.00  0.00     0.168 HD
HETATM    8  C   UNL     1      43.509 -20.571   1.790  1.00  0.00     0.017 A 
HETATM    9  C   UNL     1      44.021 -21.841   2.062  1.00  0.00     0.001 A 
HETATM   10  C   UNL     1      44.669 -22.088   3.267  1.00  0.00     0.002 A 
HETATM   11  C   UNL     1      44.784 -21.071   4.213  1.00  0.00     0.030 A 
ENDROOT
BRANCH   3  12
HETATM   12  N   UNL     1      42.643 -17.719   1.344  1.00  0.00    -0.272 NA
HETATM   13  H   UNL     1      43.005 -18.279   0.577  1.00  0.00     0.129 HD
BRANCH  12  14
HETATM   14  C   UNL     1      41.173 -17.635   1.312  1.00  0.00     0.135 C 
BRANCH  14  15
HETATM   15  C   UNL     1      40.627 -16.226   1.437  1.00  0.00    -0.012 A 
HETATM   16  C   UNL     1      40.766 -15.329   0.353  1.00  0.00     0.075 A 
HETATM   17  C   UNL     1      40.310 -14.012   0.473  1.00  0.00     0.037 A 
HETATM   18  C   UNL     1      39.748 -13.566   1.670  1.00  0.00     0.003 A 
HETATM   19  C   UNL     1      39.649 -14.427   2.758  1.00  0.00     0.001 A 
HETATM   20  C   UNL     1      40.097 -15.743   2.648  1.00  0.00     0.011 A 
BRANCH  16  21
HETATM   21  O   UNL     1      41.375 -15.835  -0.768  1.00  0.00    -0.355 OA
HETATM   22  C   UNL     1      40.915 -15.373  -2.034  1.00  0.00     0.210 C 
ENDBRANCH  16  21
ENDBRANCH  14  15
ENDBRANCH  12  14
ENDBRANCH   3  12
BRANCH   1  23
HETATM   23  N   UNL     1      43.925 -16.748   5.752  1.00  0.00    -0.262 NA
HETATM   24  H   UNL     1      43.987 -17.202   6.658  1.00  0.00     0.130 HD
BRANCH  23  25
HETATM   25  C   UNL     1      42.958 -15.647   5.762  1.00  0.00     0.095 C 
BRANCH  25  26
HETATM   26  C   UNL     1      43.672 -14.323   5.466  1.00  0.00     0.014 C 
BRANCH  26  27
HETATM   27  C   UNL     1      43.213 -13.687   4.152  1.00  0.00    -0.003 C 
HETATM   28  C   UNL     1      42.230 -12.552   4.400  1.00  0.00     0.005 C 
ENDBRANCH  26  27
ENDBRANCH  25  26
ENDBRANCH  23  25
ENDBRANCH   1  23
TORSDOF 8
ENDMDL
MODEL 10
REMARK VINA RESULT:      -7.1      2.639      3.967
REMARK  8 active torsions:
REMARK  status: ('A' for Active; 'I' for Inactive)
REMARK    1  A    between atoms: C_2  and  C_3 
REMARK    2  A    between atoms: C_3  and  C_4 
REMARK    3  A    between atoms: C_4  and  N_5 
REMARK    4  A    between atoms: N_5  and  C_6 
REMARK    5  A    between atoms: C_8  and  N_9 
REMARK    6  A    between atoms: N_9  and  C_10 
REMARK    7  A    between atoms: C_10  and  C_11 
REMARK    8  A    between atoms: C_12  and  O_13 
ROOT
HETATM    1  C   UNL     1      41.625 -14.781   0.886  1.00  0.00     0.181 A 
HETATM    2  N   UNL     1      40.874 -14.848   2.000  1.00  0.00    -0.207 NA
HETATM    3  C   UNL     1      41.042 -15.912   2.809  1.00  0.00     0.119 A 
HETATM    4  C   UNL     1      42.002 -16.913   2.546  1.00  0.00     0.031 A 
HETATM    5  C   UNL     1      42.708 -16.798   1.335  1.00  0.00     0.048 A 
HETATM    6  N   UNL     1      42.484 -15.740   0.549  1.00  0.00    -0.330 N 
HETATM    7  H   UNL     1      42.952 -15.646  -0.342  1.00  0.00     0.168 HD
HETATM    8  C   UNL     1      42.331 -18.000   3.392  1.00  0.00     0.017 A 
HETATM    9  C   UNL     1      43.275 -18.956   3.012  1.00  0.00     0.001 A 
HETATM   10  C   UNL     1      43.925 -18.846   1.788  1.00  0.00     0.002 A 
HETATM   11  C   UNL     1      43.649 -17.766   0.952  1.00  0.00     0.030 A 
ENDROOT
BRANCH   3  12
HETATM   12  N   UNL     1      40.208 -15.927   3.924  1.00  0.00    -0.272 NA
HETATM   13  H   UNL     1      40.118 -16.886   4.248  1.00  0.00     0.129 HD
BRANCH  12  14
HETATM   14  C   UNL     1      40.580 -15.014   5.018  1.00  0.00     0.135 C 
BRANCH  14  15
HETATM   15  C   UNL     1      41.704 -15.524   5.899  1.00  0.00    -0.012 A 
HETATM   16  C   UNL     1      42.960 -14.875   5.867  1.00  0.00     0.075 A 
HETATM   17  C   UNL     1      44.019 -15.365   6.638  1.00  0.00     0.037 A 
HETATM   18  C   UNL     1      43.855 -16.512   7.415  1.00  0.00     0.003 A 
HETATM   19  C   UNL     1      42.638 -17.185   7.418  1.00  0.00     0.001 A 
HETATM   20  C   UNL     1      41.574 -16.703   6.656  1.00  0.00     0.011 A 
BRANCH  16  21
HETATM   21  O   UNL     1      43.048 -13.785   5.038  1.00  0.00    -0.355 OA
HETATM   22  C   UNL     1      43.855 -13.908   3.871  1.00  0.00     0.210 C 
ENDBRANCH  16  21
ENDBRANCH  14  15
ENDBRANCH  12  14
ENDBRANCH   3  12
BRANCH   1  23
HETATM   23  N   UNL     1      41.529 -13.716   0.002  1.00  0.00    -0.262 NA
HETATM   24  H   UNL     1      41.467 -12.808   0.451  1.00  0.00     0.130 HD
BRANCH  23  25
HETATM   25  C   UNL     1      40.533 -13.864  -1.062  1.00  0.00     0.095 C 
BRANCH  25  26
HETATM   26  C   UNL     1      41.109 -13.356  -2.389  1.00  0.00     0.014 C 
BRANCH  26  27
HETATM   27  C   UNL     1      41.025 -14.399  -3.506  1.00  0.00    -0.003 C 
HETATM   28  C   UNL     1      40.720 -15.782  -2.951  1.00  0.00     0.005 C 
ENDBRANCH  26  27
ENDBRANCH  25  26
ENDBRANCH  23  25
ENDBRANCH   1  23
TORSDOF 8
ENDMDL
