MODEL 1
REMARK VINA RESULT:      -9.5      0.000      0.000
REMARK  6 active torsions:
REMARK  status: ('A' for Active; 'I' for Inactive)
REMARK    1  A    between atoms: C_2  and  C_3 
REMARK    2  A    between atoms: C_5  and  N_6 
REMARK       I    between atoms: N_6  and  C_7 
REMARK    3  A    between atoms: C_7  and  C_8 
REMARK    4  A    between atoms: N_11  and  C_12 
REMARK    5  A    between atoms: C_18  and  C_19 
REMARK    6  A    between atoms: C_28  and  O_29 
ROOT
HETATM    1  C   UNL     1      40.874 -14.176   2.083  1.00  0.00     0.081 C 
HETATM    2  C   UNL     1      40.746 -14.477   3.588  1.00  0.00     0.034 C 
HETATM    3  C   UNL     1      40.991 -15.947   3.944  1.00  0.00     0.125 C 
HETATM    4  N   UNL     1      42.269 -16.421   3.392  1.00  0.00    -0.364 N 
HETATM    5  C   UNL     1      42.379 -16.208   1.936  1.00  0.00     0.125 C 
HETATM    6  C   UNL     1      42.211 -14.736   1.594  1.00  0.00     0.034 C 
ENDROOT
BRANCH   1   7
HETATM    7  C   UNL     1      39.681 -14.718   1.300  1.00  0.00     0.226 C 
HETATM    8  N   UNL     1      39.568 -14.637  -0.051  1.00  0.00    -0.324 N 
HETATM    9  H   UNL     1      38.801 -15.224  -0.367  1.00  0.00     0.169 HD
HETATM   10  O   UNL     1      38.756 -15.293   1.889  1.00  0.00    -0.273 OA
BRANCH   8  11
HETATM   11  C   UNL     1      40.298 -14.045  -1.101  1.00  0.00     0.068 A 
HETATM   12  C   UNL     1      40.679 -12.705  -1.181  1.00  0.00     0.040 A 
HETATM   13  C   UNL     1      41.526 -12.224  -2.207  1.00  0.00    -0.048 A 
HETATM   14  C   UNL     1      41.957 -13.145  -3.180  1.00  0.00     0.011 A 
HETATM   15  C   UNL     1      41.526 -14.470  -3.160  1.00  0.00     0.039 A 
HETATM   16  C   UNL     1      40.690 -14.898  -2.140  1.00  0.00     0.092 A 
BRANCH  13  17
HETATM   17  C   UNL     1      42.038 -10.769  -2.201  1.00  0.00    -0.024 C 
HETATM   18  C   UNL     1      43.268 -10.703  -1.275  1.00  0.00     0.019 C 
HETATM   19  C   UNL     1      40.984  -9.762  -1.684  1.00  0.00     0.019 C 
HETATM   20  C   UNL     1      42.454 -10.281  -3.609  1.00  0.00     0.019 C 
ENDBRANCH  13  17
BRANCH  16  21
HETATM   21  O   UNL     1      40.268 -16.200  -2.167  1.00  0.00    -0.358 OA
HETATM   22  H   UNL     1      40.976 -16.715  -1.742  1.00  0.00     0.218 HD
ENDBRANCH  16  21
ENDBRANCH   8  11
ENDBRANCH   1   7
BRANCH   4  23
HETATM   23  C   UNL     1      42.978 -17.495   3.948  1.00  0.00     0.146 A 
HETATM   24  N   UNL     1      43.158 -18.557   3.194  1.00  0.00    -0.146 NA
HETATM   25  N   UNL     1      43.850 -19.577   3.757  1.00  0.00    -0.188 N 
HETATM   26  C   UNL     1      44.380 -19.627   5.024  1.00  0.00     0.175 A 
HETATM   27  C   UNL     1      44.170 -20.776   3.183  1.00  0.00     0.258 A 
HETATM   28  C   UNL     1      44.207 -18.494   5.835  1.00  0.00     0.058 A 
HETATM   29  N   UNL     1      44.975 -20.783   5.212  1.00  0.00    -0.128 NA
HETATM   30  C   UNL     1      43.540 -17.439   5.349  1.00  0.00     0.056 A 
HETATM   31  N   UNL     1      44.844 -21.512   4.051  1.00  0.00    -0.123 NA
BRANCH  27  32
HETATM   32  C   UNL     1      43.773 -21.083   1.802  1.00  0.00     0.454 C 
HETATM   33  F   UNL     1      44.464 -22.132   1.280  1.00  0.00    -0.163 F 
HETATM   34  F   UNL     1      42.457 -21.416   1.702  1.00  0.00    -0.163 F 
HETATM   35  F   UNL     1      43.959 -20.032   0.957  1.00  0.00    -0.163 F 
ENDBRANCH  27  32
ENDBRANCH   4  23
TORSDOF 6
ENDMDL
MODEL 2
REMARK VINA RESULT:      -9.3      2.012      2.639
REMARK  6 active torsions:
REMARK  status: ('A' for Active; 'I' for Inactive)
REMARK    1  A    between atoms: C_2  and  C_3 
REMARK    2  A    between atoms: C_5  and  N_6 
REMARK       I    between atoms: N_6  and  C_7 
REMARK    3  A    between atoms: C_7  and  C_8 
REMARK    4  A    between atoms: N_11  and  C_12 
REMARK    5  A    between atoms: C_18  and  C_19 
REMARK    6  A    between atoms: C_28  and  O_29 
ROOT
HETATM    1  C   UNL     1      40.820 -14.332   1.989  1.00  0.00     0.081 C 
HETATM    2  C   UNL     1      40.770 -14.951   3.399  1.00  0.00     0.034 C 
HETATM    3  C   UNL     1      40.965 -16.471   3.411  1.00  0.00     0.125 C 
HETATM    4  N   UNL     1      42.182 -16.855   2.681  1.00  0.00    -0.364 N 
HETATM    5  C   UNL     1      42.213 -16.334   1.302  1.00  0.00     0.125 C 
HETATM    6  C   UNL     1      42.096 -14.817   1.298  1.00  0.00     0.034 C 
ENDROOT
BRANCH   1   7
HETATM    7  C   UNL     1      39.557 -14.650   1.194  1.00  0.00     0.226 C 
HETATM    8  N   UNL     1      39.446 -14.464  -0.148  1.00  0.00    -0.324 N 
HETATM    9  H   UNL     1      38.601 -14.915  -0.487  1.00  0.00     0.169 HD
HETATM   10  O   UNL     1      38.565 -15.128   1.759  1.00  0.00    -0.273 OA
BRANCH   8  11
HETATM   11  C   UNL     1      40.244 -13.911  -1.169  1.00  0.00     0.068 A 
HETATM   12  C   UNL     1      40.651 -12.580  -1.262  1.00  0.00     0.040 A 
HETATM   13  C   UNL     1      41.562 -12.139  -2.251  1.00  0.00    -0.048 A 
HETATM   14  C   UNL     1      42.031 -13.092  -3.173  1.00  0.00     0.011 A 
HETATM   15  C   UNL     1      41.577 -14.409  -3.145  1.00  0.00     0.039 A 
HETATM   16  C   UNL     1      40.678 -14.797  -2.163  1.00  0.00     0.092 A 
BRANCH  13  17
HETATM   17  C   UNL     1      42.098 -10.692  -2.252  1.00  0.00    -0.024 C 
HETATM   18  C   UNL     1      40.995  -9.778  -1.684  1.00  0.00     0.019 C 
HETATM   19  C   UNL     1      42.468 -10.190  -3.668  1.00  0.00     0.019 C 
HETATM   20  C   UNL     1      43.369 -10.531  -1.386  1.00  0.00     0.019 C 
ENDBRANCH  13  17
BRANCH  16  21
HETATM   21  O   UNL     1      40.236 -16.093  -2.180  1.00  0.00    -0.358 OA
HETATM   22  H   UNL     1      39.289 -16.045  -2.405  1.00  0.00     0.218 HD
ENDBRANCH  16  21
ENDBRANCH   8  11
ENDBRANCH   1   7
BRANCH   4  23
HETATM   23  C   UNL     1      42.871 -18.048   2.942  1.00  0.00     0.146 A 
HETATM   24  N   UNL     1      43.163 -18.317   4.196  1.00  0.00    -0.146 NA
HETATM   25  N   UNL     1      43.825 -19.478   4.418  1.00  0.00    -0.188 N 
HETATM   26  C   UNL     1      44.228 -20.401   3.482  1.00  0.00     0.175 A 
HETATM   27  C   UNL     1      44.233 -19.980   5.622  1.00  0.00     0.258 A 
HETATM   28  C   UNL     1      43.910 -20.133   2.141  1.00  0.00     0.058 A 
HETATM   29  N   UNL     1      44.848 -21.395   4.077  1.00  0.00    -0.128 NA
HETATM   30  C   UNL     1      43.249 -19.008   1.840  1.00  0.00     0.056 A 
HETATM   31  N   UNL     1      44.854 -21.133   5.428  1.00  0.00    -0.123 NA
BRANCH  27  32
HETATM   32  C   UNL     1      43.962 -19.261   6.873  1.00  0.00     0.454 C 
HETATM   33  F   UNL     1      44.958 -18.396   7.206  1.00  0.00    -0.163 F 
HETATM   34  F   UNL     1      42.826 -18.515   6.808  1.00  0.00    -0.163 F 
HETATM   35  F   UNL     1      43.800 -20.098   7.934  1.00  0.00    -0.163 F 
ENDBRANCH  27  32
ENDBRANCH   4  23
TORSDOF 6
ENDMDL
MODEL 3
REMARK VINA RESULT:      -9.2      6.100      9.132
REMARK  6 active torsions:
REMARK  status: ('A' for Active; 'I' for Inactive)
REMARK    1  A    between atoms: C_2  and  C_3 
REMARK    2  A    between atoms: C_5  and  N_6 
REMARK       I    between atoms: N_6  and  C_7 
REMARK    3  A    between atoms: C_7  and  C_8 
REMARK    4  A    between atoms: N_11  and  C_12 
REMARK    5  A    between atoms: C_18  and  C_19 
REMARK    6  A    between atoms: C_28  and  O_29 
ROOT
HETATM    1  C   UNL     1      41.724 -13.316   3.561  1.00  0.00     0.081 C 
HETATM    2  C   UNL     1      41.579 -11.783   3.573  1.00  0.00     0.034 C 
HETATM    3  C   UNL     1      40.988 -11.231   4.874  1.00  0.00     0.125 C 
HETATM    4  N   UNL     1      41.727 -11.725   6.045  1.00  0.00    -0.364 N 
HETATM    5  C   UNL     1      41.811 -13.197   6.090  1.00  0.00     0.125 C 
HETATM    6  C   UNL     1      42.469 -13.737   4.829  1.00  0.00     0.034 C 
ENDROOT
BRANCH   1   7
HETATM    7  C   UNL     1      40.369 -14.004   3.412  1.00  0.00     0.226 C 
HETATM    8  N   UNL     1      40.161 -15.321   3.679  1.00  0.00    -0.324 N 
HETATM    9  H   UNL     1      39.164 -15.513   3.696  1.00  0.00     0.169 HD
HETATM   10  O   UNL     1      39.375 -13.359   3.056  1.00  0.00    -0.273 OA
BRANCH   8  11
HETATM   11  C   UNL     1      40.959 -16.427   4.032  1.00  0.00     0.068 A 
HETATM   12  C   UNL     1      41.771 -17.163   3.169  1.00  0.00     0.040 A 
HETATM   13  C   UNL     1      42.642 -18.176   3.636  1.00  0.00    -0.048 A 
HETATM   14  C   UNL     1      42.643 -18.447   5.016  1.00  0.00     0.011 A 
HETATM   15  C   UNL     1      41.783 -17.776   5.884  1.00  0.00     0.039 A 
HETATM   16  C   UNL     1      40.941 -16.795   5.383  1.00  0.00     0.092 A 
BRANCH  13  17
HETATM   17  C   UNL     1      43.624 -18.885   2.681  1.00  0.00    -0.024 C 
HETATM   18  C   UNL     1      44.245 -17.815   1.760  1.00  0.00     0.019 C 
HETATM   19  C   UNL     1      42.938 -19.952   1.795  1.00  0.00     0.019 C 
HETATM   20  C   UNL     1      44.764 -19.609   3.434  1.00  0.00     0.019 C 
ENDBRANCH  13  17
BRANCH  16  21
HETATM   21  O   UNL     1      40.094 -16.174   6.262  1.00  0.00    -0.358 OA
HETATM   22  H   UNL     1      40.661 -15.623   6.830  1.00  0.00     0.218 HD
ENDBRANCH  16  21
ENDBRANCH   8  11
ENDBRANCH   1   7
BRANCH   4  23
HETATM   23  C   UNL     1      41.758 -11.033   7.264  1.00  0.00     0.146 A 
HETATM   24  N   UNL     1      42.811 -11.207   8.032  1.00  0.00    -0.146 NA
HETATM   25  N   UNL     1      42.815 -10.522   9.201  1.00  0.00    -0.188 N 
HETATM   26  C   UNL     1      41.843  -9.674   9.675  1.00  0.00     0.175 A 
HETATM   27  C   UNL     1      43.789 -10.530  10.161  1.00  0.00     0.258 A 
HETATM   28  C   UNL     1      40.719  -9.469   8.858  1.00  0.00     0.058 A 
HETATM   29  N   UNL     1      42.197  -9.203  10.849  1.00  0.00    -0.128 NA
HETATM   30  C   UNL     1      40.644 -10.104   7.682  1.00  0.00     0.056 A 
HETATM   31  N   UNL     1      43.426  -9.742  11.160  1.00  0.00    -0.123 NA
BRANCH  27  32
HETATM   32  C   UNL     1      45.010 -11.328   9.994  1.00  0.00     0.454 C 
HETATM   33  F   UNL     1      45.757 -10.926   8.930  1.00  0.00    -0.163 F 
HETATM   34  F   UNL     1      45.832 -11.254  11.077  1.00  0.00    -0.163 F 
HETATM   35  F   UNL     1      44.750 -12.652   9.812  1.00  0.00    -0.163 F 
ENDBRANCH  27  32
ENDBRANCH   4  23
TORSDOF 6
ENDMDL
MODEL 4
REMARK VINA RESULT:      -9.0      5.810      9.081
REMARK  6 active torsions:
REMARK  status: ('A' for Active; 'I' for Inactive)
REMARK    1  A    between atoms: C_2  and  C_3 
REMARK    2  A    between atoms: C_5  and  N_6 
REMARK       I    between atoms: N_6  and  C_7 
REMARK    3  A    between atoms: C_7  and  C_8 
REMARK    4  A    between atoms: N_11  and  C_12 
REMARK    5  A    between atoms: C_18  and  C_19 
REMARK    6  A    between atoms: C_28  and  O_29 
ROOT
HETATM    1  C   UNL     1      41.884 -14.013   3.451  1.00  0.00     0.081 C 
HETATM    2  C   UNL     1      41.445 -12.541   3.336  1.00  0.00     0.034 C 
HETATM    3  C   UNL     1      40.833 -11.980   4.624  1.00  0.00     0.125 C 
HETATM    4  N   UNL     1      41.720 -12.203   5.775  1.00  0.00    -0.364 N 
HETATM    5  C   UNL     1      42.092 -13.621   5.945  1.00  0.00     0.125 C 
HETATM    6  C   UNL     1      42.768 -14.154   4.691  1.00  0.00     0.034 C 
ENDROOT
BRANCH   1   7
HETATM    7  C   UNL     1      40.683 -14.955   3.467  1.00  0.00     0.226 C 
HETATM    8  N   UNL     1      40.790 -16.310   3.442  1.00  0.00    -0.324 N 
HETATM    9  H   UNL     1      39.888 -16.728   3.651  1.00  0.00     0.169 HD
HETATM   10  O   UNL     1      39.534 -14.502   3.532  1.00  0.00    -0.273 OA
BRANCH   8  11
HETATM   11  C   UNL     1      41.833 -17.247   3.308  1.00  0.00     0.068 A 
HETATM   12  C   UNL     1      42.685 -17.678   4.326  1.00  0.00     0.040 A 
HETATM   13  C   UNL     1      43.620 -18.722   4.132  1.00  0.00    -0.048 A 
HETATM   14  C   UNL     1      43.690 -19.303   2.853  1.00  0.00     0.011 A 
HETATM   15  C   UNL     1      42.902 -18.835   1.803  1.00  0.00     0.039 A 
HETATM   16  C   UNL     1      42.004 -17.805   2.035  1.00  0.00     0.092 A 
BRANCH  13  17
HETATM   17  C   UNL     1      44.458 -19.270   5.307  1.00  0.00    -0.024 C 
HETATM   18  C   UNL     1      45.450 -20.304   4.739  1.00  0.00     0.019 C 
HETATM   19  C   UNL     1      43.596 -19.963   6.388  1.00  0.00     0.019 C 
HETATM   20  C   UNL     1      45.258 -18.162   6.029  1.00  0.00     0.019 C 
ENDBRANCH  13  17
BRANCH  16  21
HETATM   21  O   UNL     1      41.263 -17.354   0.975  1.00  0.00    -0.358 OA
HETATM   22  H   UNL     1      40.427 -17.033   1.355  1.00  0.00     0.218 HD
ENDBRANCH  16  21
ENDBRANCH   8  11
ENDBRANCH   1   7
BRANCH   4  23
HETATM   23  C   UNL     1      41.685 -11.397   6.921  1.00  0.00     0.146 A 
HETATM   24  N   UNL     1      42.657 -11.545   7.794  1.00  0.00    -0.146 NA
HETATM   25  N   UNL     1      42.599 -10.750   8.890  1.00  0.00    -0.188 N 
HETATM   26  C   UNL     1      41.640  -9.812   9.191  1.00  0.00     0.175 A 
HETATM   27  C   UNL     1      43.485 -10.709   9.931  1.00  0.00     0.258 A 
HETATM   28  C   UNL     1      40.604  -9.635   8.260  1.00  0.00     0.058 A 
HETATM   29  N   UNL     1      41.918  -9.245  10.344  1.00  0.00    -0.128 NA
HETATM   30  C   UNL     1      40.594 -10.379   7.146  1.00  0.00     0.056 A 
HETATM   31  N   UNL     1      43.083  -9.810  10.814  1.00  0.00    -0.123 NA
BRANCH  27  32
HETATM   32  C   UNL     1      44.669 -11.578   9.951  1.00  0.00     0.454 C 
HETATM   33  F   UNL     1      45.467 -11.402   8.864  1.00  0.00    -0.163 F 
HETATM   34  F   UNL     1      45.459 -11.353  11.036  1.00  0.00    -0.163 F 
HETATM   35  F   UNL     1      44.347 -12.901   9.991  1.00  0.00    -0.163 F 
ENDBRANCH  27  32
ENDBRANCH   4  23
TORSDOF 6
ENDMDL
MODEL 5
REMARK VINA RESULT:      -8.9      2.097      3.016
REMARK  6 active torsions:
REMARK  status: ('A' for Active; 'I' for Inactive)
REMARK    1  A    between atoms: C_2  and  C_3 
REMARK    2  A    between atoms: C_5  and  N_6 
REMARK       I    between atoms: N_6  and  C_7 
REMARK    3  A    between atoms: C_7  and  C_8 
REMARK    4  A    between atoms: N_11  and  C_12 
REMARK    5  A    between atoms: C_18  and  C_19 
REMARK    6  A    between atoms: C_28  and  O_29 
ROOT
HETATM    1  C   UNL     1      40.153 -14.465   3.666  1.00  0.00     0.081 C 
HETATM    2  C   UNL     1      40.220 -15.696   2.743  1.00  0.00     0.034 C 
HETATM    3  C   UNL     1      41.562 -16.433   2.797  1.00  0.00     0.125 C 
HETATM    4  N   UNL     1      41.933 -16.760   4.182  1.00  0.00    -0.364 N 
HETATM    5  C   UNL     1      41.947 -15.579   5.065  1.00  0.00     0.125 C 
HETATM    6  C   UNL     1      40.589 -14.893   5.068  1.00  0.00     0.034 C 
ENDROOT
BRANCH   1   7
HETATM    7  C   UNL     1      40.981 -13.306   3.114  1.00  0.00     0.226 C 
HETATM    8  N   UNL     1      40.774 -12.749   1.892  1.00  0.00    -0.324 N 
HETATM    9  H   UNL     1      41.304 -11.885   1.816  1.00  0.00     0.169 HD
HETATM   10  O   UNL     1      41.883 -12.802   3.795  1.00  0.00    -0.273 OA
BRANCH   8  11
HETATM   11  C   UNL     1      39.948 -13.008   0.781  1.00  0.00     0.068 A 
HETATM   12  C   UNL     1      40.361 -13.534  -0.444  1.00  0.00     0.040 A 
HETATM   13  C   UNL     1      39.441 -13.887  -1.459  1.00  0.00    -0.048 A 
HETATM   14  C   UNL     1      38.075 -13.660  -1.207  1.00  0.00     0.011 A 
HETATM   15  C   UNL     1      37.649 -13.064  -0.021  1.00  0.00     0.039 A 
HETATM   16  C   UNL     1      38.586 -12.728   0.945  1.00  0.00     0.092 A 
BRANCH  13  17
HETATM   17  C   UNL     1      39.910 -14.587  -2.751  1.00  0.00    -0.024 C 
HETATM   18  C   UNL     1      40.658 -13.548  -3.609  1.00  0.00     0.019 C 
HETATM   19  C   UNL     1      38.738 -15.157  -3.586  1.00  0.00     0.019 C 
HETATM   20  C   UNL     1      40.862 -15.773  -2.470  1.00  0.00     0.019 C 
ENDBRANCH  13  17
BRANCH  16  21
HETATM   21  O   UNL     1      38.133 -12.123   2.087  1.00  0.00    -0.358 OA
HETATM   22  H   UNL     1      38.644 -11.298   2.168  1.00  0.00     0.218 HD
ENDBRANCH  16  21
ENDBRANCH   8  11
ENDBRANCH   1   7
BRANCH   4  23
HETATM   23  C   UNL     1      42.789 -17.823   4.501  1.00  0.00     0.146 A 
HETATM   24  N   UNL     1      42.990 -18.737   3.578  1.00  0.00    -0.146 NA
HETATM   25  N   UNL     1      43.825 -19.750   3.913  1.00  0.00    -0.188 N 
HETATM   26  C   UNL     1      44.480 -19.930   5.108  1.00  0.00     0.175 A 
HETATM   27  C   UNL     1      44.195 -20.809   3.133  1.00  0.00     0.258 A 
HETATM   28  C   UNL     1      44.285 -18.953   6.098  1.00  0.00     0.058 A 
HETATM   29  N   UNL     1      45.195 -21.032   5.061  1.00  0.00    -0.128 NA
HETATM   30  C   UNL     1      43.479 -17.916   5.841  1.00  0.00     0.056 A 
HETATM   31  N   UNL     1      45.017 -21.590   3.816  1.00  0.00    -0.123 NA
BRANCH  27  32
HETATM   32  C   UNL     1      43.694 -20.950   1.760  1.00  0.00     0.454 C 
HETATM   33  F   UNL     1      44.346 -21.918   1.060  1.00  0.00    -0.163 F 
HETATM   34  F   UNL     1      42.375 -21.286   1.720  1.00  0.00    -0.163 F 
HETATM   35  F   UNL     1      43.809 -19.801   1.040  1.00  0.00    -0.163 F 
ENDBRANCH  27  32
ENDBRANCH   4  23
TORSDOF 6
ENDMDL
MODEL 6
REMARK VINA RESULT:      -8.7      4.077      8.068
REMARK  6 active torsions:
REMARK  status: ('A' for Active; 'I' for Inactive)
REMARK    1  A    between atoms: C_2  and  C_3 
REMARK    2  A    between atoms: C_5  and  N_6 
REMARK       I    between atoms: N_6  and  C_7 
REMARK    3  A    between atoms: C_7  and  C_8 
REMARK    4  A    between atoms: N_11  and  C_12 
REMARK    5  A    between atoms: C_18  and  C_19 
REMARK    6  A    between atoms: C_28  and  O_29 
ROOT
HETATM    1  C   UNL     1      40.447 -13.898   5.462  1.00  0.00     0.081 C 
HETATM    2  C   UNL     1      39.447 -12.790   5.084  1.00  0.00     0.034 C 
HETATM    3  C   UNL     1      39.513 -12.379   3.609  1.00  0.00     0.125 C 
HETATM    4  N   UNL     1      39.400 -13.550   2.726  1.00  0.00    -0.364 N 
HETATM    5  C   UNL     1      40.400 -14.592   3.026  1.00  0.00     0.125 C 
HETATM    6  C   UNL     1      40.281 -15.052   4.470  1.00  0.00     0.034 C 
ENDROOT
BRANCH   1   7
HETATM    7  C   UNL     1      41.877 -13.366   5.520  1.00  0.00     0.226 C 
HETATM    8  N   UNL     1      42.977 -14.143   5.336  1.00  0.00    -0.324 N 
HETATM    9  H   UNL     1      43.797 -13.554   5.228  1.00  0.00     0.169 HD
HETATM   10  O   UNL     1      42.089 -12.163   5.717  1.00  0.00    -0.273 OA
BRANCH   8  11
HETATM   11  C   UNL     1      43.235 -15.516   5.156  1.00  0.00     0.068 A 
HETATM   12  C   UNL     1      43.171 -16.212   3.948  1.00  0.00     0.040 A 
HETATM   13  C   UNL     1      43.576 -17.563   3.836  1.00  0.00    -0.048 A 
HETATM   14  C   UNL     1      44.026 -18.206   5.004  1.00  0.00     0.011 A 
HETATM   15  C   UNL     1      44.025 -17.551   6.234  1.00  0.00     0.039 A 
HETATM   16  C   UNL     1      43.613 -16.229   6.301  1.00  0.00     0.092 A 
BRANCH  13  17
HETATM   17  C   UNL     1      43.620 -18.271   2.466  1.00  0.00    -0.024 C 
HETATM   18  C   UNL     1      42.167 -18.507   2.009  1.00  0.00     0.019 C 
HETATM   19  C   UNL     1      44.344 -19.637   2.518  1.00  0.00     0.019 C 
HETATM   20  C   UNL     1      44.346 -17.432   1.389  1.00  0.00     0.019 C 
ENDBRANCH  13  17
BRANCH  16  21
HETATM   21  O   UNL     1      43.603 -15.626   7.530  1.00  0.00    -0.358 OA
HETATM   22  H   UNL     1      43.697 -16.347   8.178  1.00  0.00     0.218 HD
ENDBRANCH  16  21
ENDBRANCH   8  11
ENDBRANCH   1   7
BRANCH   4  23
HETATM   23  C   UNL     1      38.930 -13.457   1.409  1.00  0.00     0.146 A 
HETATM   24  N   UNL     1      39.661 -14.010   0.466  1.00  0.00    -0.146 NA
HETATM   25  N   UNL     1      39.180 -13.909  -0.797  1.00  0.00    -0.188 N 
HETATM   26  C   UNL     1      38.021 -13.292  -1.201  1.00  0.00     0.175 A 
HETATM   27  C   UNL     1      39.747 -14.401  -1.940  1.00  0.00     0.258 A 
HETATM   28  C   UNL     1      37.224 -12.709  -0.203  1.00  0.00     0.058 A 
HETATM   29  N   UNL     1      37.894 -13.393  -2.506  1.00  0.00    -0.128 NA
HETATM   30  C   UNL     1      37.627 -12.774   1.073  1.00  0.00     0.056 A 
HETATM   31  N   UNL     1      38.983 -14.093  -2.976  1.00  0.00    -0.123 NA
BRANCH  27  32
HETATM   32  C   UNL     1      41.012 -15.146  -1.898  1.00  0.00     0.454 C 
HETATM   33  F   UNL     1      40.970 -16.202  -1.042  1.00  0.00    -0.163 F 
HETATM   34  F   UNL     1      41.352 -15.661  -3.111  1.00  0.00    -0.163 F 
HETATM   35  F   UNL     1      42.063 -14.371  -1.513  1.00  0.00    -0.163 F 
ENDBRANCH  27  32
ENDBRANCH   4  23
TORSDOF 6
ENDMDL
MODEL 7
REMARK VINA RESULT:      -8.7      3.455      8.300
REMARK  6 active torsions:
REMARK  status: ('A' for Active; 'I' for Inactive)
REMARK    1  A    between atoms: C_2  and  C_3 
REMARK    2  A    between atoms: C_5  and  N_6 
REMARK       I    between atoms: N_6  and  C_7 
REMARK    3  A    between atoms: C_7  and  C_8 
REMARK    4  A    between atoms: N_11  and  C_12 
REMARK    5  A    between atoms: C_18  and  C_19 
REMARK    6  A    between atoms: C_28  and  O_29 
ROOT
HETATM    1  C   UNL     1      41.934 -13.875   4.507  1.00  0.00     0.081 C 
HETATM    2  C   UNL     1      42.894 -14.513   3.485  1.00  0.00     0.034 C 
HETATM    3  C   UNL     1      42.397 -14.424   2.038  1.00  0.00     0.125 C 
HETATM    4  N   UNL     1      42.049 -13.041   1.680  1.00  0.00    -0.364 N 
HETATM    5  C   UNL     1      41.072 -12.438   2.607  1.00  0.00     0.125 C 
HETATM    6  C   UNL     1      41.601 -12.459   4.033  1.00  0.00     0.034 C 
ENDROOT
BRANCH   1   7
HETATM    7  C   UNL     1      40.693 -14.737   4.723  1.00  0.00     0.226 C 
HETATM    8  N   UNL     1      40.735 -16.080   4.922  1.00  0.00    -0.324 N 
HETATM    9  H   UNL     1      39.825 -16.410   5.229  1.00  0.00     0.169 HD
HETATM   10  O   UNL     1      39.569 -14.219   4.750  1.00  0.00    -0.273 OA
BRANCH   8  11
HETATM   11  C   UNL     1      41.727 -17.081   4.912  1.00  0.00     0.068 A 
HETATM   12  C   UNL     1      42.167 -17.790   3.794  1.00  0.00     0.040 A 
HETATM   13  C   UNL     1      43.262 -18.684   3.853  1.00  0.00    -0.048 A 
HETATM   14  C   UNL     1      43.888 -18.864   5.100  1.00  0.00     0.011 A 
HETATM   15  C   UNL     1      43.415 -18.224   6.244  1.00  0.00     0.039 A 
HETATM   16  C   UNL     1      42.334 -17.362   6.143  1.00  0.00     0.092 A 
BRANCH  13  17
HETATM   17  C   UNL     1      43.813 -19.355   2.577  1.00  0.00    -0.024 C 
HETATM   18  C   UNL     1      44.245 -18.241   1.604  1.00  0.00     0.019 C 
HETATM   19  C   UNL     1      42.765 -20.245   1.867  1.00  0.00     0.019 C 
HETATM   20  C   UNL     1      45.032 -20.261   2.864  1.00  0.00     0.019 C 
ENDBRANCH  13  17
BRANCH  16  21
HETATM   21  O   UNL     1      41.882 -16.769   7.291  1.00  0.00    -0.358 OA
HETATM   22  H   UNL     1      42.506 -16.045   7.477  1.00  0.00     0.218 HD
ENDBRANCH  16  21
ENDBRANCH   8  11
ENDBRANCH   1   7
BRANCH   4  23
HETATM   23  C   UNL     1      42.061 -12.579   0.357  1.00  0.00     0.146 A 
HETATM   24  N   UNL     1      41.535 -13.359  -0.561  1.00  0.00    -0.146 NA
HETATM   25  N   UNL     1      41.557 -12.886  -1.830  1.00  0.00    -0.188 N 
HETATM   26  C   UNL     1      42.070 -11.686  -2.264  1.00  0.00     0.175 A 
HETATM   27  C   UNL     1      41.073 -13.500  -2.952  1.00  0.00     0.258 A 
HETATM   28  C   UNL     1      42.622 -10.837  -1.292  1.00  0.00     0.058 A 
HETATM   29  N   UNL     1      41.916 -11.581  -3.565  1.00  0.00    -0.128 NA
HETATM   30  C   UNL     1      42.631 -11.231  -0.012  1.00  0.00     0.056 A 
HETATM   31  N   UNL     1      41.287 -12.725  -4.003  1.00  0.00    -0.123 NA
BRANCH  27  32
HETATM   32  C   UNL     1      40.430 -14.818  -2.875  1.00  0.00     0.454 C 
HETATM   33  F   UNL     1      41.276 -15.789  -2.437  1.00  0.00    -0.163 F 
HETATM   34  F   UNL     1      39.372 -14.830  -2.018  1.00  0.00    -0.163 F 
HETATM   35  F   UNL     1      39.943 -15.234  -4.076  1.00  0.00    -0.163 F 
ENDBRANCH  27  32
ENDBRANCH   4  23
TORSDOF 6
ENDMDL
MODEL 8
REMARK VINA RESULT:      -8.5      2.119      3.114
REMARK  6 active torsions:
REMARK  status: ('A' for Active; 'I' for Inactive)
REMARK    1  A    between atoms: C_2  and  C_3 
REMARK    2  A    between atoms: C_5  and  N_6 
REMARK       I    between atoms: N_6  and  C_7 
REMARK    3  A    between atoms: C_7  and  C_8 
REMARK    4  A    between atoms: N_11  and  C_12 
REMARK    5  A    between atoms: C_18  and  C_19 
REMARK    6  A    between atoms: C_28  and  O_29 
ROOT
HETATM    1  C   UNL     1      42.145 -12.830   4.192  1.00  0.00     0.081 C 
HETATM    2  C   UNL     1      42.585 -13.262   5.603  1.00  0.00     0.034 C 
HETATM    3  C   UNL     1      42.475 -14.771   5.846  1.00  0.00     0.125 C 
HETATM    4  N   UNL     1      43.167 -15.530   4.795  1.00  0.00    -0.364 N 
HETATM    5  C   UNL     1      42.704 -15.183   3.438  1.00  0.00     0.125 C 
HETATM    6  C   UNL     1      42.886 -13.697   3.172  1.00  0.00     0.034 C 
ENDROOT
BRANCH   1   7
HETATM    7  C   UNL     1      40.628 -12.895   4.035  1.00  0.00     0.226 C 
HETATM    8  N   UNL     1      39.990 -12.802   2.838  1.00  0.00    -0.324 N 
HETATM    9  H   UNL     1      39.014 -13.059   2.949  1.00  0.00     0.169 HD
HETATM   10  O   UNL     1      39.903 -13.067   5.023  1.00  0.00    -0.273 OA
BRANCH   8  11
HETATM   11  C   UNL     1      40.363 -12.548   1.503  1.00  0.00     0.068 A 
HETATM   12  C   UNL     1      40.455 -13.495   0.483  1.00  0.00     0.040 A 
HETATM   13  C   UNL     1      40.707 -13.131  -0.861  1.00  0.00    -0.048 A 
HETATM   14  C   UNL     1      40.897 -11.765  -1.140  1.00  0.00     0.011 A 
HETATM   15  C   UNL     1      40.885 -10.812  -0.123  1.00  0.00     0.039 A 
HETATM   16  C   UNL     1      40.641 -11.214   1.181  1.00  0.00     0.092 A 
BRANCH  13  17
HETATM   17  C   UNL     1      40.675 -14.181  -1.991  1.00  0.00    -0.024 C 
HETATM   18  C   UNL     1      41.076 -15.541  -1.386  1.00  0.00     0.019 C 
HETATM   19  C   UNL     1      41.651 -13.853  -3.145  1.00  0.00     0.019 C 
HETATM   20  C   UNL     1      39.274 -14.320  -2.630  1.00  0.00     0.019 C 
ENDBRANCH  13  17
BRANCH  16  21
HETATM   21  O   UNL     1      40.660 -10.253   2.158  1.00  0.00    -0.358 OA
HETATM   22  H   UNL     1      40.582 -10.734   3.001  1.00  0.00     0.218 HD
ENDBRANCH  16  21
ENDBRANCH   8  11
ENDBRANCH   1   7
BRANCH   4  23
HETATM   23  C   UNL     1      43.662 -16.826   5.002  1.00  0.00     0.146 A 
HETATM   24  N   UNL     1      43.591 -17.669   3.996  1.00  0.00    -0.146 NA
HETATM   25  N   UNL     1      44.080 -18.911   4.224  1.00  0.00    -0.188 N 
HETATM   26  C   UNL     1      44.636 -19.389   5.387  1.00  0.00     0.175 A 
HETATM   27  C   UNL     1      44.125 -19.957   3.345  1.00  0.00     0.258 A 
HETATM   28  C   UNL     1      44.731 -18.494   6.465  1.00  0.00     0.058 A 
HETATM   29  N   UNL     1      44.989 -20.645   5.229  1.00  0.00    -0.128 NA
HETATM   30  C   UNL     1      44.276 -17.243   6.317  1.00  0.00     0.056 A 
HETATM   31  N   UNL     1      44.667 -21.007   3.940  1.00  0.00    -0.123 NA
BRANCH  27  32
HETATM   32  C   UNL     1      43.622 -19.815   1.972  1.00  0.00     0.454 C 
HETATM   33  F   UNL     1      42.280 -19.595   1.927  1.00  0.00    -0.163 F 
HETATM   34  F   UNL     1      44.194 -18.768   1.316  1.00  0.00    -0.163 F 
HETATM   35  F   UNL     1      43.865 -20.914   1.208  1.00  0.00    -0.163 F 
ENDBRANCH  27  32
ENDBRANCH   4  23
TORSDOF 6
ENDMDL
MODEL 9
REMARK VINA RESULT:      -8.5      2.739      3.820
REMARK  6 active torsions:
REMARK  status: ('A' for Active; 'I' for Inactive)
REMARK    1  A    between atoms: C_2  and  C_3 
REMARK    2  A    between atoms: C_5  and  N_6 
REMARK       I    between atoms: N_6  and  C_7 
REMARK    3  A    between atoms: C_7  and  C_8 
REMARK    4  A    between atoms: N_11  and  C_12 
REMARK    5  A    between atoms: C_18  and  C_19 
REMARK    6  A    between atoms: C_28  and  O_29 
ROOT
HETATM    1  C   UNL     1      41.449 -14.717   1.919  1.00  0.00     0.081 C 
HETATM    2  C   UNL     1      42.143 -15.594   0.860  1.00  0.00     0.034 C 
HETATM    3  C   UNL     1      43.222 -16.516   1.437  1.00  0.00     0.125 C 
HETATM    4  N   UNL     1      42.698 -17.312   2.556  1.00  0.00    -0.364 N 
HETATM    5  C   UNL     1      42.096 -16.482   3.616  1.00  0.00     0.125 C 
HETATM    6  C   UNL     1      40.973 -15.624   3.055  1.00  0.00     0.034 C 
ENDROOT
BRANCH   1   7
HETATM    7  C   UNL     1      42.363 -13.593   2.400  1.00  0.00     0.226 C 
HETATM    8  N   UNL     1      42.445 -12.378   1.795  1.00  0.00    -0.324 N 
HETATM    9  H   UNL     1      42.961 -11.735   2.388  1.00  0.00     0.169 HD
HETATM   10  O   UNL     1      43.066 -13.745   3.407  1.00  0.00    -0.273 OA
BRANCH   8  11
HETATM   11  C   UNL     1      41.914 -11.781   0.635  1.00  0.00     0.068 A 
HETATM   12  C   UNL     1      41.997 -12.289  -0.662  1.00  0.00     0.040 A 
HETATM   13  C   UNL     1      41.319 -11.690  -1.750  1.00  0.00    -0.048 A 
HETATM   14  C   UNL     1      40.571 -10.528  -1.489  1.00  0.00     0.011 A 
HETATM   15  C   UNL     1      40.538  -9.961  -0.216  1.00  0.00     0.039 A 
HETATM   16  C   UNL     1      41.222 -10.578   0.820  1.00  0.00     0.092 A 
BRANCH  13  17
HETATM   17  C   UNL     1      41.320 -12.344  -3.147  1.00  0.00    -0.024 C 
HETATM   18  C   UNL     1      39.878 -12.299  -3.692  1.00  0.00     0.019 C 
HETATM   19  C   UNL     1      41.786 -13.819  -3.120  1.00  0.00     0.019 C 
HETATM   20  C   UNL     1      42.247 -11.611  -4.144  1.00  0.00     0.019 C 
ENDBRANCH  13  17
BRANCH  16  21
HETATM   21  O   UNL     1      41.187  -9.979   2.052  1.00  0.00    -0.358 OA
HETATM   22  H   UNL     1      41.569  -9.093   1.925  1.00  0.00     0.218 HD
ENDBRANCH  16  21
ENDBRANCH   8  11
ENDBRANCH   1   7
BRANCH   4  23
HETATM   23  C   UNL     1      43.253 -18.544   2.929  1.00  0.00     0.146 A 
HETATM   24  N   UNL     1      43.429 -18.765   4.213  1.00  0.00    -0.146 NA
HETATM   25  N   UNL     1      43.962 -19.965   4.544  1.00  0.00    -0.188 N 
HETATM   26  C   UNL     1      44.343 -20.973   3.691  1.00  0.00     0.175 A 
HETATM   27  C   UNL     1      44.236 -20.431   5.800  1.00  0.00     0.258 A 
HETATM   28  C   UNL     1      44.148 -20.756   2.317  1.00  0.00     0.058 A 
HETATM   29  N   UNL     1      44.825 -21.982   4.381  1.00  0.00    -0.128 NA
HETATM   30  C   UNL     1      43.617 -19.596   1.909  1.00  0.00     0.056 A 
HETATM   31  N   UNL     1      44.760 -21.643   5.714  1.00  0.00    -0.123 NA
BRANCH  27  32
HETATM   32  C   UNL     1      43.946 -19.619   6.989  1.00  0.00     0.454 C 
HETATM   33  F   UNL     1      44.941 -18.737   7.277  1.00  0.00    -0.163 F 
HETATM   34  F   UNL     1      42.816 -18.872   6.844  1.00  0.00    -0.163 F 
HETATM   35  F   UNL     1      43.755 -20.374   8.105  1.00  0.00    -0.163 F 
ENDBRANCH  27  32
ENDBRANCH   4  23
TORSDOF 6
ENDMDL
MODEL 10
REMARK VINA RESULT:      -8.4      2.046      2.838
REMARK  6 active torsions:
REMARK  status: ('A' for Active; 'I' for Inactive)
REMARK    1  A    between atoms: C_2  and  C_3 
REMARK    2  A    between atoms: C_5  and  N_6 
REMARK       I    between atoms: N_6  and  C_7 
REMARK    3  A    between atoms: C_7  and  C_8 
REMARK    4  A    between atoms: N_11  and  C_12 
REMARK    5  A    between atoms: C_18  and  C_19 
REMARK    6  A    between atoms: C_28  and  O_29 
ROOT
HETATM    1  C   UNL     1      41.223 -14.148   2.803  1.00  0.00     0.081 C 
HETATM    2  C   UNL     1      41.810 -15.157   1.799  1.00  0.00     0.034 C 
HETATM    3  C   UNL     1      42.995 -15.956   2.351  1.00  0.00     0.125 C 
HETATM    4  N   UNL     1      42.656 -16.588   3.635  1.00  0.00    -0.364 N 
HETATM    5  C   UNL     1      42.163 -15.623   4.636  1.00  0.00     0.125 C 
HETATM    6  C   UNL     1      40.939 -14.885   4.113  1.00  0.00     0.034 C 
ENDROOT
BRANCH   1   7
HETATM    7  C   UNL     1      42.142 -12.943   2.987  1.00  0.00     0.226 C 
HETATM    8  N   UNL     1      42.160 -11.875   2.147  1.00  0.00    -0.324 N 
HETATM    9  H   UNL     1      42.699 -11.121   2.563  1.00  0.00     0.169 HD
HETATM   10  O   UNL     1      42.911 -12.884   3.956  1.00  0.00    -0.273 OA
BRANCH   8  11
HETATM   11  C   UNL     1      41.544 -11.527   0.929  1.00  0.00     0.068 A 
HETATM   12  C   UNL     1      42.014 -11.840  -0.347  1.00  0.00     0.040 A 
HETATM   13  C   UNL     1      41.262 -11.566  -1.514  1.00  0.00    -0.048 A 
HETATM   14  C   UNL     1      40.018 -10.930  -1.351  1.00  0.00     0.011 A 
HETATM   15  C   UNL     1      39.566 -10.540  -0.092  1.00  0.00     0.039 A 
HETATM   16  C   UNL     1      40.338 -10.822   1.025  1.00  0.00     0.092 A 
BRANCH  13  17
HETATM   17  C   UNL     1      41.743 -12.039  -2.902  1.00  0.00    -0.024 C 
HETATM   18  C   UNL     1      42.861 -13.078  -2.687  1.00  0.00     0.019 C 
HETATM   19  C   UNL     1      42.306 -10.887  -3.767  1.00  0.00     0.019 C 
HETATM   20  C   UNL     1      40.613 -12.694  -3.728  1.00  0.00     0.019 C 
ENDBRANCH  13  17
BRANCH  16  21
HETATM   21  O   UNL     1      39.873 -10.403   2.243  1.00  0.00    -0.358 OA
HETATM   22  H   UNL     1      40.590  -9.869   2.629  1.00  0.00     0.218 HD
ENDBRANCH  16  21
ENDBRANCH   8  11
ENDBRANCH   1   7
BRANCH   4  23
HETATM   23  C   UNL     1      43.308 -17.737   4.104  1.00  0.00     0.146 A 
HETATM   24  N   UNL     1      43.377 -18.768   3.291  1.00  0.00    -0.146 NA
HETATM   25  N   UNL     1      44.016 -19.862   3.770  1.00  0.00    -0.188 N 
HETATM   26  C   UNL     1      44.595 -20.016   5.007  1.00  0.00     0.175 A 
HETATM   27  C   UNL     1      44.223 -21.049   3.123  1.00  0.00     0.258 A 
HETATM   28  C   UNL     1      44.541 -18.918   5.880  1.00  0.00     0.058 A 
HETATM   29  N   UNL     1      45.112 -21.220   5.110  1.00  0.00    -0.128 NA
HETATM   30  C   UNL     1      43.932 -17.795   5.478  1.00  0.00     0.056 A 
HETATM   31  N   UNL     1      44.878 -21.876   3.922  1.00  0.00    -0.123 NA
BRANCH  27  32
HETATM   32  C   UNL     1      43.746 -21.255   1.749  1.00  0.00     0.454 C 
HETATM   33  F   UNL     1      43.959 -20.173   0.953  1.00  0.00    -0.163 F 
HETATM   34  F   UNL     1      44.368 -22.299   1.135  1.00  0.00    -0.163 F 
HETATM   35  F   UNL     1      42.414 -21.527   1.693  1.00  0.00    -0.163 F 
ENDBRANCH  27  32
ENDBRANCH   4  23
TORSDOF 6
ENDMDL
