MODEL 1
REMARK VINA RESULT:      -8.4      0.000      0.000
REMARK  6 active torsions:
REMARK  status: ('A' for Active; 'I' for Inactive)
REMARK    1  A    between atoms: O_2  and  C_3 
REMARK    2  A    between atoms: C_4  and  C_5 
REMARK    3  A    between atoms: C_5  and  N_6 
REMARK    4  A    between atoms: N_6  and  C_7 
REMARK    5  A    between atoms: C_9  and  N_10 
REMARK    6  A    between atoms: N_10  and  C_11 
ROOT
HETATM    1  C   UNL     1      44.288 -18.423   4.248  1.00  0.00     0.135 A 
HETATM    2  N   UNL     1      43.989 -17.574   3.249  1.00  0.00    -0.052 NA
HETATM    3  C   UNL     1      43.804 -18.078   2.017  1.00  0.00     0.702 A 
HETATM    4  N   UNL     1      43.926 -19.378   1.761  1.00  0.00    -0.189 N 
HETATM    5  H   UNL     1      43.744 -19.688   0.817  1.00  0.00     0.184 HD
HETATM    6  C   UNL     1      44.220 -20.262   2.722  1.00  0.00     0.062 A 
HETATM    7  C   UNL     1      44.401 -19.812   4.042  1.00  0.00     0.032 A 
HETATM    8  C   UNL     1      44.315 -21.627   2.402  1.00  0.00     0.031 A 
HETATM    9  C   UNL     1      44.576 -22.565   3.398  1.00  0.00     0.002 A 
HETATM   10  C   UNL     1      44.727 -22.149   4.717  1.00  0.00     0.001 A 
HETATM   11  C   UNL     1      44.630 -20.793   5.039  1.00  0.00     0.017 A 
ENDROOT
BRANCH   1  12
HETATM   12  N   UNL     1      44.370 -17.812   5.490  1.00  0.00    -0.272 NA
HETATM   13  H   UNL     1      45.064 -18.329   6.030  1.00  0.00     0.129 HD
BRANCH  12  14
HETATM   14  C   UNL     1      43.147 -17.679   6.292  1.00  0.00     0.135 C 
BRANCH  14  15
HETATM   15  C   UNL     1      42.422 -16.378   5.999  1.00  0.00    -0.012 A 
HETATM   16  C   UNL     1      43.105 -15.154   6.164  1.00  0.00     0.075 A 
HETATM   17  C   UNL     1      42.444 -13.948   5.903  1.00  0.00     0.037 A 
HETATM   18  C   UNL     1      41.119 -13.944   5.467  1.00  0.00     0.003 A 
HETATM   19  C   UNL     1      40.442 -15.145   5.285  1.00  0.00     0.001 A 
HETATM   20  C   UNL     1      41.090 -16.351   5.546  1.00  0.00     0.011 A 
BRANCH  16  21
HETATM   21  O   UNL     1      44.405 -15.252   6.592  1.00  0.00    -0.355 OA
HETATM   22  C   UNL     1      45.061 -14.038   6.949  1.00  0.00     0.210 C 
ENDBRANCH  16  21
ENDBRANCH  14  15
ENDBRANCH  12  14
ENDBRANCH   1  12
BRANCH   3  23
HETATM   23  N   UNL     1      43.429 -17.268   0.967  1.00  0.00    -0.220 N 
HETATM   24  H   UNL     1      44.054 -16.560   0.611  1.00  0.00     0.178 HD
BRANCH  23  25
HETATM   25  C   UNL     1      42.012 -16.999   0.743  1.00  0.00     0.099 C 
HETATM   26  C   UNL     1      41.190 -17.389   1.973  1.00  0.00     0.026 C 
HETATM   27  C   UNL     1      39.998 -16.451   1.912  1.00  0.00     0.002 C 
HETATM   28  C   UNL     1      40.620 -15.125   1.504  1.00  0.00     0.002 C 
HETATM   29  C   UNL     1      41.772 -15.491   0.569  1.00  0.00     0.026 C 
ENDBRANCH  23  25
ENDBRANCH   3  23
TORSDOF 6
ENDMDL
MODEL 2
REMARK VINA RESULT:      -8.1      2.166      5.615
REMARK  6 active torsions:
REMARK  status: ('A' for Active; 'I' for Inactive)
REMARK    1  A    between atoms: O_2  and  C_3 
REMARK    2  A    between atoms: C_4  and  C_5 
REMARK    3  A    between atoms: C_5  and  N_6 
REMARK    4  A    between atoms: N_6  and  C_7 
REMARK    5  A    between atoms: C_9  and  N_10 
REMARK    6  A    between atoms: N_10  and  C_11 
ROOT
HETATM    1  C   UNL     1      42.014 -17.575   2.041  1.00  0.00     0.135 A 
HETATM    2  N   UNL     1      42.104 -16.909   0.877  1.00  0.00    -0.052 NA
HETATM    3  C   UNL     1      41.735 -15.617   0.849  1.00  0.00     0.702 A 
HETATM    4  N   UNL     1      41.271 -14.993   1.930  1.00  0.00    -0.189 N 
HETATM    5  H   UNL     1      41.040 -14.014   1.842  1.00  0.00     0.184 HD
HETATM    6  C   UNL     1      41.165 -15.612   3.112  1.00  0.00     0.062 A 
HETATM    7  C   UNL     1      41.558 -16.958   3.223  1.00  0.00     0.032 A 
HETATM    8  C   UNL     1      40.690 -14.902   4.227  1.00  0.00     0.031 A 
HETATM    9  C   UNL     1      40.615 -15.519   5.474  1.00  0.00     0.002 A 
HETATM   10  C   UNL     1      41.028 -16.839   5.616  1.00  0.00     0.001 A 
HETATM   11  C   UNL     1      41.504 -17.548   4.511  1.00  0.00     0.017 A 
ENDROOT
BRANCH   1  12
HETATM   12  N   UNL     1      42.502 -18.871   1.979  1.00  0.00    -0.272 NA
HETATM   13  H   UNL     1      42.025 -19.403   2.708  1.00  0.00     0.129 HD
BRANCH  12  14
HETATM   14  C   UNL     1      43.950 -19.086   2.103  1.00  0.00     0.135 C 
BRANCH  14  15
HETATM   15  C   UNL     1      44.268 -20.264   3.006  1.00  0.00    -0.012 A 
HETATM   16  C   UNL     1      44.496 -20.040   4.380  1.00  0.00     0.075 A 
HETATM   17  C   UNL     1      44.797 -21.118   5.220  1.00  0.00     0.037 A 
HETATM   18  C   UNL     1      44.859 -22.417   4.714  1.00  0.00     0.003 A 
HETATM   19  C   UNL     1      44.618 -22.651   3.365  1.00  0.00     0.001 A 
HETATM   20  C   UNL     1      44.322 -21.584   2.519  1.00  0.00     0.011 A 
BRANCH  16  21
HETATM   21  O   UNL     1      44.412 -18.733   4.791  1.00  0.00    -0.355 OA
HETATM   22  C   UNL     1      45.070 -18.396   6.009  1.00  0.00     0.210 C 
ENDBRANCH  16  21
ENDBRANCH  14  15
ENDBRANCH  12  14
ENDBRANCH   1  12
BRANCH   3  23
HETATM   23  N   UNL     1      41.869 -14.863  -0.296  1.00  0.00    -0.220 N 
HETATM   24  H   UNL     1      42.550 -14.121  -0.350  1.00  0.00     0.178 HD
BRANCH  23  25
HETATM   25  C   UNL     1      40.723 -14.705  -1.186  1.00  0.00     0.099 C 
HETATM   26  C   UNL     1      40.664 -13.280  -1.737  1.00  0.00     0.026 C 
HETATM   27  C   UNL     1      39.977 -13.449  -3.080  1.00  0.00     0.002 C 
HETATM   28  C   UNL     1      40.614 -14.712  -3.638  1.00  0.00     0.002 C 
HETATM   29  C   UNL     1      40.875 -15.602  -2.424  1.00  0.00     0.026 C 
ENDBRANCH  23  25
ENDBRANCH   3  23
TORSDOF 6
ENDMDL
MODEL 3
REMARK VINA RESULT:      -8.1      2.211      3.408
REMARK  6 active torsions:
REMARK  status: ('A' for Active; 'I' for Inactive)
REMARK    1  A    between atoms: O_2  and  C_3 
REMARK    2  A    between atoms: C_4  and  C_5 
REMARK    3  A    between atoms: C_5  and  N_6 
REMARK    4  A    between atoms: N_6  and  C_7 
REMARK    5  A    between atoms: C_9  and  N_10 
REMARK    6  A    between atoms: N_10  and  C_11 
ROOT
HETATM    1  C   UNL     1      41.157 -16.890   3.419  1.00  0.00     0.135 A 
HETATM    2  N   UNL     1      40.591 -16.225   2.397  1.00  0.00    -0.052 NA
HETATM    3  C   UNL     1      41.093 -16.403   1.163  1.00  0.00     0.702 A 
HETATM    4  N   UNL     1      42.135 -17.199   0.934  1.00  0.00    -0.189 N 
HETATM    5  H   UNL     1      42.439 -17.307  -0.023  1.00  0.00     0.184 HD
HETATM    6  C   UNL     1      42.731 -17.883   1.918  1.00  0.00     0.062 A 
HETATM    7  C   UNL     1      42.243 -17.768   3.232  1.00  0.00     0.032 A 
HETATM    8  C   UNL     1      43.813 -18.727   1.618  1.00  0.00     0.031 A 
HETATM    9  C   UNL     1      44.416 -19.480   2.623  1.00  0.00     0.002 A 
HETATM   10  C   UNL     1      43.931 -19.408   3.925  1.00  0.00     0.001 A 
HETATM   11  C   UNL     1      42.853 -18.573   4.226  1.00  0.00     0.017 A 
ENDROOT
BRANCH   1  12
HETATM   12  N   UNL     1      40.508 -16.703   4.630  1.00  0.00    -0.272 NA
HETATM   13  H   UNL     1      39.514 -16.860   4.462  1.00  0.00     0.129 HD
BRANCH  12  14
HETATM   14  C   UNL     1      40.677 -15.423   5.330  1.00  0.00     0.135 C 
BRANCH  14  15
HETATM   15  C   UNL     1      42.089 -15.253   5.859  1.00  0.00    -0.012 A 
HETATM   16  C   UNL     1      42.893 -14.206   5.361  1.00  0.00     0.075 A 
HETATM   17  C   UNL     1      44.199 -14.044   5.837  1.00  0.00     0.037 A 
HETATM   18  C   UNL     1      44.711 -14.901   6.813  1.00  0.00     0.003 A 
HETATM   19  C   UNL     1      43.921 -15.926   7.323  1.00  0.00     0.001 A 
HETATM   20  C   UNL     1      42.621 -16.097   6.853  1.00  0.00     0.011 A 
BRANCH  16  21
HETATM   21  O   UNL     1      42.309 -13.410   4.407  1.00  0.00    -0.355 OA
HETATM   22  C   UNL     1      42.875 -13.446   3.100  1.00  0.00     0.210 C 
ENDBRANCH  16  21
ENDBRANCH  14  15
ENDBRANCH  12  14
ENDBRANCH   1  12
BRANCH   3  23
HETATM   23  N   UNL     1      40.513 -15.803   0.066  1.00  0.00    -0.220 N 
HETATM   24  H   UNL     1      39.583 -16.058  -0.231  1.00  0.00     0.178 HD
BRANCH  23  25
HETATM   25  C   UNL     1      41.366 -15.269  -0.991  1.00  0.00     0.099 C 
HETATM   26  C   UNL     1      40.784 -15.595  -2.367  1.00  0.00     0.026 C 
HETATM   27  C   UNL     1      41.284 -14.457  -3.239  1.00  0.00     0.002 C 
HETATM   28  C   UNL     1      41.119 -13.237  -2.346  1.00  0.00     0.002 C 
HETATM   29  C   UNL     1      41.403 -13.734  -0.929  1.00  0.00     0.026 C 
ENDBRANCH  23  25
ENDBRANCH   3  23
TORSDOF 6
ENDMDL
MODEL 4
REMARK VINA RESULT:      -8.1      2.340      3.707
REMARK  6 active torsions:
REMARK  status: ('A' for Active; 'I' for Inactive)
REMARK    1  A    between atoms: O_2  and  C_3 
REMARK    2  A    between atoms: C_4  and  C_5 
REMARK    3  A    between atoms: C_5  and  N_6 
REMARK    4  A    between atoms: N_6  and  C_7 
REMARK    5  A    between atoms: C_9  and  N_10 
REMARK    6  A    between atoms: N_10  and  C_11 
ROOT
HETATM    1  C   UNL     1      41.035 -16.999   3.782  1.00  0.00     0.135 A 
HETATM    2  N   UNL     1      40.237 -16.177   3.077  1.00  0.00    -0.052 NA
HETATM    3  C   UNL     1      40.513 -15.978   1.777  1.00  0.00     0.702 A 
HETATM    4  N   UNL     1      41.556 -16.553   1.182  1.00  0.00    -0.189 N 
HETATM    5  H   UNL     1      41.685 -16.380   0.196  1.00  0.00     0.184 HD
HETATM    6  C   UNL     1      42.378 -17.379   1.840  1.00  0.00     0.062 A 
HETATM    7  C   UNL     1      42.135 -17.657   3.197  1.00  0.00     0.032 A 
HETATM    8  C   UNL     1      43.451 -17.978   1.159  1.00  0.00     0.031 A 
HETATM    9  C   UNL     1      44.289 -18.875   1.818  1.00  0.00     0.002 A 
HETATM   10  C   UNL     1      44.050 -19.190   3.151  1.00  0.00     0.001 A 
HETATM   11  C   UNL     1      42.982 -18.600   3.831  1.00  0.00     0.017 A 
ENDROOT
BRANCH   1  12
HETATM   12  N   UNL     1      40.610 -17.203   5.085  1.00  0.00    -0.272 NA
HETATM   13  H   UNL     1      39.660 -17.571   5.033  1.00  0.00     0.129 HD
BRANCH  12  14
HETATM   14  C   UNL     1      40.630 -16.069   6.019  1.00  0.00     0.135 C 
BRANCH  14  15
HETATM   15  C   UNL     1      42.035 -15.532   6.221  1.00  0.00    -0.012 A 
HETATM   16  C   UNL     1      42.978 -16.310   6.924  1.00  0.00     0.075 A 
HETATM   17  C   UNL     1      44.275 -15.822   7.123  1.00  0.00     0.037 A 
HETATM   18  C   UNL     1      44.649 -14.577   6.617  1.00  0.00     0.003 A 
HETATM   19  C   UNL     1      43.733 -13.809   5.907  1.00  0.00     0.001 A 
HETATM   20  C   UNL     1      42.438 -14.285   5.707  1.00  0.00     0.011 A 
BRANCH  16  21
HETATM   21  O   UNL     1      42.525 -17.522   7.383  1.00  0.00    -0.355 OA
HETATM   22  C   UNL     1      43.490 -18.559   7.532  1.00  0.00     0.210 C 
ENDBRANCH  16  21
ENDBRANCH  14  15
ENDBRANCH  12  14
ENDBRANCH   1  12
BRANCH   3  23
HETATM   23  N   UNL     1      39.693 -15.203   0.986  1.00  0.00    -0.220 N 
HETATM   24  H   UNL     1      39.982 -14.922   0.061  1.00  0.00     0.178 HD
BRANCH  23  25
HETATM   25  C   UNL     1      38.723 -14.314   1.618  1.00  0.00     0.099 C 
HETATM   26  C   UNL     1      39.290 -12.899   1.739  1.00  0.00     0.026 C 
HETATM   27  C   UNL     1      38.053 -12.020   1.698  1.00  0.00     0.002 C 
HETATM   28  C   UNL     1      37.202 -12.668   0.617  1.00  0.00     0.002 C 
HETATM   29  C   UNL     1      37.474 -14.167   0.736  1.00  0.00     0.026 C 
ENDBRANCH  23  25
ENDBRANCH   3  23
TORSDOF 6
ENDMDL
MODEL 5
REMARK VINA RESULT:      -8.0      1.957      4.653
REMARK  6 active torsions:
REMARK  status: ('A' for Active; 'I' for Inactive)
REMARK    1  A    between atoms: O_2  and  C_3 
REMARK    2  A    between atoms: C_4  and  C_5 
REMARK    3  A    between atoms: C_5  and  N_6 
REMARK    4  A    between atoms: N_6  and  C_7 
REMARK    5  A    between atoms: C_9  and  N_10 
REMARK    6  A    between atoms: N_10  and  C_11 
ROOT
HETATM    1  C   UNL     1      43.286 -18.277   2.664  1.00  0.00     0.135 A 
HETATM    2  N   UNL     1      43.411 -17.365   3.644  1.00  0.00    -0.052 NA
HETATM    3  C   UNL     1      43.964 -17.749   4.808  1.00  0.00     0.702 A 
HETATM    4  N   UNL     1      44.368 -19.000   5.017  1.00  0.00    -0.189 N 
HETATM    5  H   UNL     1      44.800 -19.208   5.905  1.00  0.00     0.184 HD
HETATM    6  C   UNL     1      44.267 -19.942   4.073  1.00  0.00     0.062 A 
HETATM    7  C   UNL     1      43.723 -19.607   2.819  1.00  0.00     0.032 A 
HETATM    8  C   UNL     1      44.730 -21.242   4.337  1.00  0.00     0.031 A 
HETATM    9  C   UNL     1      44.671 -22.223   3.350  1.00  0.00     0.002 A 
HETATM   10  C   UNL     1      44.168 -21.908   2.092  1.00  0.00     0.001 A 
HETATM   11  C   UNL     1      43.710 -20.616   1.824  1.00  0.00     0.017 A 
ENDROOT
BRANCH   1  12
HETATM   12  N   UNL     1      42.787 -17.755   1.481  1.00  0.00    -0.272 NA
HETATM   13  H   UNL     1      43.156 -16.808   1.395  1.00  0.00     0.129 HD
BRANCH  12  14
HETATM   14  C   UNL     1      41.332 -17.719   1.285  1.00  0.00     0.135 C 
BRANCH  14  15
HETATM   15  C   UNL     1      40.785 -16.307   1.399  1.00  0.00    -0.012 A 
HETATM   16  C   UNL     1      40.804 -15.464   0.268  1.00  0.00     0.075 A 
HETATM   17  C   UNL     1      40.309 -14.159   0.364  1.00  0.00     0.037 A 
HETATM   18  C   UNL     1      39.781 -13.686   1.566  1.00  0.00     0.003 A 
HETATM   19  C   UNL     1      39.741 -14.514   2.682  1.00  0.00     0.001 A 
HETATM   20  C   UNL     1      40.235 -15.815   2.598  1.00  0.00     0.011 A 
BRANCH  16  21
HETATM   21  O   UNL     1      41.338 -16.012  -0.872  1.00  0.00    -0.355 OA
HETATM   22  C   UNL     1      40.948 -15.429  -2.113  1.00  0.00     0.210 C 
ENDBRANCH  16  21
ENDBRANCH  14  15
ENDBRANCH  12  14
ENDBRANCH   1  12
BRANCH   3  23
HETATM   23  N   UNL     1      44.182 -16.844   5.824  1.00  0.00    -0.220 N 
HETATM   24  H   UNL     1      45.043 -16.856   6.351  1.00  0.00     0.178 HD
BRANCH  23  25
HETATM   25  C   UNL     1      43.040 -16.279   6.535  1.00  0.00     0.099 C 
HETATM   26  C   UNL     1      42.399 -15.157   5.717  1.00  0.00     0.026 C 
HETATM   27  C   UNL     1      40.946 -15.186   6.156  1.00  0.00     0.002 C 
HETATM   28  C   UNL     1      40.636 -16.673   6.229  1.00  0.00     0.002 C 
HETATM   29  C   UNL     1      41.932 -17.332   6.697  1.00  0.00     0.026 C 
ENDBRANCH  23  25
ENDBRANCH   3  23
TORSDOF 6
ENDMDL
MODEL 6
REMARK VINA RESULT:      -7.9      2.415      7.326
REMARK  6 active torsions:
REMARK  status: ('A' for Active; 'I' for Inactive)
REMARK    1  A    between atoms: O_2  and  C_3 
REMARK    2  A    between atoms: C_4  and  C_5 
REMARK    3  A    between atoms: C_5  and  N_6 
REMARK    4  A    between atoms: N_6  and  C_7 
REMARK    5  A    between atoms: C_9  and  N_10 
REMARK    6  A    between atoms: N_10  and  C_11 
ROOT
HETATM    1  C   UNL     1      43.092 -16.216   5.735  1.00  0.00     0.135 A 
HETATM    2  N   UNL     1      43.916 -15.754   6.691  1.00  0.00    -0.052 NA
HETATM    3  C   UNL     1      43.853 -14.450   7.014  1.00  0.00     0.702 A 
HETATM    4  N   UNL     1      43.017 -13.613   6.405  1.00  0.00    -0.189 N 
HETATM    5  H   UNL     1      43.005 -12.654   6.719  1.00  0.00     0.184 HD
HETATM    6  C   UNL     1      42.176 -14.025   5.449  1.00  0.00     0.062 A 
HETATM    7  C   UNL     1      42.166 -15.382   5.077  1.00  0.00     0.032 A 
HETATM    8  C   UNL     1      41.298 -13.105   4.853  1.00  0.00     0.031 A 
HETATM    9  C   UNL     1      40.385 -13.526   3.889  1.00  0.00     0.002 A 
HETATM   10  C   UNL     1      40.334 -14.868   3.528  1.00  0.00     0.001 A 
HETATM   11  C   UNL     1      41.203 -15.788   4.119  1.00  0.00     0.017 A 
ENDROOT
BRANCH   1  12
HETATM   12  N   UNL     1      43.176 -17.586   5.543  1.00  0.00    -0.272 NA
HETATM   13  H   UNL     1      42.743 -18.027   6.355  1.00  0.00     0.129 HD
BRANCH  12  14
HETATM   14  C   UNL     1      44.499 -18.187   5.325  1.00  0.00     0.135 C 
BRANCH  14  15
HETATM   15  C   UNL     1      44.426 -19.380   4.388  1.00  0.00    -0.012 A 
HETATM   16  C   UNL     1      44.007 -19.186   3.055  1.00  0.00     0.075 A 
HETATM   17  C   UNL     1      43.930 -20.279   2.184  1.00  0.00     0.037 A 
HETATM   18  C   UNL     1      44.279 -21.559   2.618  1.00  0.00     0.003 A 
HETATM   19  C   UNL     1      44.709 -21.758   3.925  1.00  0.00     0.001 A 
HETATM   20  C   UNL     1      44.786 -20.676   4.801  1.00  0.00     0.011 A 
BRANCH  16  21
HETATM   21  O   UNL     1      43.687 -17.896   2.713  1.00  0.00    -0.355 OA
HETATM   22  C   UNL     1      44.198 -17.410   1.475  1.00  0.00     0.210 C 
ENDBRANCH  16  21
ENDBRANCH  14  15
ENDBRANCH  12  14
ENDBRANCH   1  12
BRANCH   3  23
HETATM   23  N   UNL     1      44.624 -13.932   8.032  1.00  0.00    -0.220 N 
HETATM   24  H   UNL     1      44.862 -14.493   8.836  1.00  0.00     0.178 HD
BRANCH  23  25
HETATM   25  C   UNL     1      44.615 -12.493   8.273  1.00  0.00     0.099 C 
HETATM   26  C   UNL     1      43.916 -12.174   9.595  1.00  0.00     0.026 C 
HETATM   27  C   UNL     1      44.584 -10.887  10.045  1.00  0.00     0.002 C 
HETATM   28  C   UNL     1      46.050 -11.126   9.722  1.00  0.00     0.002 C 
HETATM   29  C   UNL     1      46.049 -11.969   8.447  1.00  0.00     0.026 C 
ENDBRANCH  23  25
ENDBRANCH   3  23
TORSDOF 6
ENDMDL
MODEL 7
REMARK VINA RESULT:      -7.8      2.425      5.950
REMARK  6 active torsions:
REMARK  status: ('A' for Active; 'I' for Inactive)
REMARK    1  A    between atoms: O_2  and  C_3 
REMARK    2  A    between atoms: C_4  and  C_5 
REMARK    3  A    between atoms: C_5  and  N_6 
REMARK    4  A    between atoms: N_6  and  C_7 
REMARK    5  A    between atoms: C_9  and  N_10 
REMARK    6  A    between atoms: N_10  and  C_11 
ROOT
HETATM    1  C   UNL     1      41.668 -16.550   2.787  1.00  0.00     0.135 A 
HETATM    2  N   UNL     1      40.890 -16.434   1.698  1.00  0.00    -0.052 NA
HETATM    3  C   UNL     1      40.430 -15.214   1.367  1.00  0.00     0.702 A 
HETATM    4  N   UNL     1      40.710 -14.135   2.094  1.00  0.00    -0.189 N 
HETATM    5  H   UNL     1      40.354 -13.248   1.769  1.00  0.00     0.184 HD
HETATM    6  C   UNL     1      41.482 -14.199   3.186  1.00  0.00     0.062 A 
HETATM    7  C   UNL     1      42.021 -15.438   3.578  1.00  0.00     0.032 A 
HETATM    8  C   UNL     1      41.764 -13.026   3.905  1.00  0.00     0.031 A 
HETATM    9  C   UNL     1      42.602 -13.068   5.018  1.00  0.00     0.002 A 
HETATM   10  C   UNL     1      43.173 -14.275   5.406  1.00  0.00     0.001 A 
HETATM   11  C   UNL     1      42.897 -15.443   4.692  1.00  0.00     0.017 A 
ENDROOT
BRANCH   1  12
HETATM   12  N   UNL     1      42.158 -17.831   2.986  1.00  0.00    -0.272 NA
HETATM   13  H   UNL     1      42.373 -17.916   3.980  1.00  0.00     0.129 HD
BRANCH  12  14
HETATM   14  C   UNL     1      43.325 -18.268   2.208  1.00  0.00     0.135 C 
BRANCH  14  15
HETATM   15  C   UNL     1      43.798 -19.647   2.631  1.00  0.00    -0.012 A 
HETATM   16  C   UNL     1      44.395 -19.815   3.899  1.00  0.00     0.075 A 
HETATM   17  C   UNL     1      44.841 -21.080   4.297  1.00  0.00     0.037 A 
HETATM   18  C   UNL     1      44.687 -22.184   3.456  1.00  0.00     0.003 A 
HETATM   19  C   UNL     1      44.085 -22.033   2.212  1.00  0.00     0.001 A 
HETATM   20  C   UNL     1      43.641 -20.776   1.805  1.00  0.00     0.011 A 
BRANCH  16  21
HETATM   21  O   UNL     1      44.503 -18.678   4.660  1.00  0.00    -0.355 OA
HETATM   22  C   UNL     1      44.481 -18.842   6.075  1.00  0.00     0.210 C 
ENDBRANCH  16  21
ENDBRANCH  14  15
ENDBRANCH  12  14
ENDBRANCH   1  12
BRANCH   3  23
HETATM   23  N   UNL     1      39.686 -15.021   0.224  1.00  0.00    -0.220 N 
HETATM   24  H   UNL     1      38.862 -15.575   0.044  1.00  0.00     0.178 HD
BRANCH  23  25
HETATM   25  C   UNL     1      40.334 -14.487  -0.969  1.00  0.00     0.099 C 
HETATM   26  C   UNL     1      41.052 -15.599  -1.734  1.00  0.00     0.026 C 
HETATM   27  C   UNL     1      41.021 -15.115  -3.173  1.00  0.00     0.002 C 
HETATM   28  C   UNL     1      39.618 -14.547  -3.317  1.00  0.00     0.002 C 
HETATM   29  C   UNL     1      39.285 -13.943  -1.953  1.00  0.00     0.026 C 
ENDBRANCH  23  25
ENDBRANCH   3  23
TORSDOF 6
ENDMDL
MODEL 8
REMARK VINA RESULT:      -7.5      2.927      6.088
REMARK  6 active torsions:
REMARK  status: ('A' for Active; 'I' for Inactive)
REMARK    1  A    between atoms: O_2  and  C_3 
REMARK    2  A    between atoms: C_4  and  C_5 
REMARK    3  A    between atoms: C_5  and  N_6 
REMARK    4  A    between atoms: N_6  and  C_7 
REMARK    5  A    between atoms: C_9  and  N_10 
REMARK    6  A    between atoms: N_10  and  C_11 
ROOT
HETATM    1  C   UNL     1      41.271 -17.003   2.062  1.00  0.00     0.135 A 
HETATM    2  N   UNL     1      40.594 -16.183   2.884  1.00  0.00    -0.052 NA
HETATM    3  C   UNL     1      40.877 -16.218   4.198  1.00  0.00     0.702 A 
HETATM    4  N   UNL     1      41.788 -17.049   4.700  1.00  0.00    -0.189 N 
HETATM    5  H   UNL     1      41.969 -17.000   5.692  1.00  0.00     0.184 HD
HETATM    6  C   UNL     1      42.489 -17.883   3.922  1.00  0.00     0.062 A 
HETATM    7  C   UNL     1      42.267 -17.882   2.534  1.00  0.00     0.032 A 
HETATM    8  C   UNL     1      43.455 -18.723   4.501  1.00  0.00     0.031 A 
HETATM    9  C   UNL     1      44.224 -19.565   3.700  1.00  0.00     0.002 A 
HETATM   10  C   UNL     1      44.045 -19.559   2.321  1.00  0.00     0.001 A 
HETATM   11  C   UNL     1      43.088 -18.722   1.742  1.00  0.00     0.017 A 
ENDROOT
BRANCH   1  12
HETATM   12  N   UNL     1      40.965 -16.823   0.722  1.00  0.00    -0.272 NA
HETATM   13  H   UNL     1      41.178 -17.701   0.248  1.00  0.00     0.129 HD
BRANCH  12  14
HETATM   14  C   UNL     1      41.608 -15.721  -0.006  1.00  0.00     0.135 C 
BRANCH  14  15
HETATM   15  C   UNL     1      40.727 -15.198  -1.126  1.00  0.00    -0.012 A 
HETATM   16  C   UNL     1      39.649 -14.343  -0.816  1.00  0.00     0.075 A 
HETATM   17  C   UNL     1      38.826 -13.860  -1.840  1.00  0.00     0.037 A 
HETATM   18  C   UNL     1      39.071 -14.205  -3.170  1.00  0.00     0.003 A 
HETATM   19  C   UNL     1      40.142 -15.033  -3.489  1.00  0.00     0.001 A 
HETATM   20  C   UNL     1      40.965 -15.521  -2.475  1.00  0.00     0.011 A 
BRANCH  16  21
HETATM   21  O   UNL     1      39.483 -14.054   0.516  1.00  0.00    -0.355 OA
HETATM   22  C   UNL     1      38.155 -14.110   1.030  1.00  0.00     0.210 C 
ENDBRANCH  16  21
ENDBRANCH  14  15
ENDBRANCH  12  14
ENDBRANCH   1  12
BRANCH   3  23
HETATM   23  N   UNL     1      40.267 -15.354   5.080  1.00  0.00    -0.220 N 
HETATM   24  H   UNL     1      39.469 -15.649   5.623  1.00  0.00     0.178 HD
BRANCH  23  25
HETATM   25  C   UNL     1      40.347 -13.917   4.844  1.00  0.00     0.099 C 
HETATM   26  C   UNL     1      39.504 -13.156   5.868  1.00  0.00     0.026 C 
HETATM   27  C   UNL     1      40.210 -11.817   5.981  1.00  0.00     0.002 C 
HETATM   28  C   UNL     1      41.682 -12.200   5.983  1.00  0.00     0.002 C 
HETATM   29  C   UNL     1      41.783 -13.415   5.062  1.00  0.00     0.026 C 
ENDBRANCH  23  25
ENDBRANCH   3  23
TORSDOF 6
ENDMDL
MODEL 9
REMARK VINA RESULT:      -7.4      2.629      5.397
REMARK  6 active torsions:
REMARK  status: ('A' for Active; 'I' for Inactive)
REMARK    1  A    between atoms: O_2  and  C_3 
REMARK    2  A    between atoms: C_4  and  C_5 
REMARK    3  A    between atoms: C_5  and  N_6 
REMARK    4  A    between atoms: N_6  and  C_7 
REMARK    5  A    between atoms: C_9  and  N_10 
REMARK    6  A    between atoms: N_10  and  C_11 
ROOT
HETATM    1  C   UNL     1      41.669 -17.475   2.589  1.00  0.00     0.135 A 
HETATM    2  N   UNL     1      40.929 -16.859   3.527  1.00  0.00    -0.052 NA
HETATM    3  C   UNL     1      41.183 -17.128   4.820  1.00  0.00     0.702 A 
HETATM    4  N   UNL     1      42.126 -17.992   5.188  1.00  0.00    -0.189 N 
HETATM    5  H   UNL     1      42.280 -18.122   6.177  1.00  0.00     0.184 HD
HETATM    6  C   UNL     1      42.890 -18.628   4.291  1.00  0.00     0.062 A 
HETATM    7  C   UNL     1      42.700 -18.377   2.920  1.00  0.00     0.032 A 
HETATM    8  C   UNL     1      43.886 -19.514   4.734  1.00  0.00     0.031 A 
HETATM    9  C   UNL     1      44.719 -20.151   3.815  1.00  0.00     0.002 A 
HETATM   10  C   UNL     1      44.572 -19.893   2.457  1.00  0.00     0.001 A 
HETATM   11  C   UNL     1      43.584 -19.011   2.013  1.00  0.00     0.017 A 
ENDROOT
BRANCH   1  12
HETATM   12  N   UNL     1      41.385 -17.060   1.297  1.00  0.00    -0.272 NA
HETATM   13  H   UNL     1      41.938 -17.644   0.669  1.00  0.00     0.129 HD
BRANCH  12  14
HETATM   14  C   UNL     1      41.598 -15.650   0.946  1.00  0.00     0.135 C 
BRANCH  14  15
HETATM   15  C   UNL     1      40.303 -14.970   0.538  1.00  0.00    -0.012 A 
HETATM   16  C   UNL     1      40.153 -14.509  -0.787  1.00  0.00     0.075 A 
HETATM   17  C   UNL     1      38.966 -13.875  -1.173  1.00  0.00     0.037 A 
HETATM   18  C   UNL     1      37.922 -13.708  -0.262  1.00  0.00     0.003 A 
HETATM   19  C   UNL     1      38.053 -14.174   1.041  1.00  0.00     0.001 A 
HETATM   20  C   UNL     1      39.232 -14.803   1.436  1.00  0.00     0.011 A 
BRANCH  16  21
HETATM   21  O   UNL     1      41.228 -14.718  -1.615  1.00  0.00    -0.355 OA
HETATM   22  C   UNL     1      41.018 -15.558  -2.747  1.00  0.00     0.210 C 
ENDBRANCH  16  21
ENDBRANCH  14  15
ENDBRANCH  12  14
ENDBRANCH   1  12
BRANCH   3  23
HETATM   23  N   UNL     1      40.506 -16.477   5.827  1.00  0.00    -0.220 N 
HETATM   24  H   UNL     1      39.604 -16.805   6.140  1.00  0.00     0.178 HD
BRANCH  23  25
HETATM   25  C   UNL     1      40.748 -15.055   6.049  1.00  0.00     0.099 C 
HETATM   26  C   UNL     1      42.163 -14.676   5.608  1.00  0.00     0.026 C 
HETATM   27  C   UNL     1      42.029 -13.216   5.212  1.00  0.00     0.002 C 
HETATM   28  C   UNL     1      40.705 -13.179   4.465  1.00  0.00     0.002 C 
HETATM   29  C   UNL     1      39.818 -14.207   5.167  1.00  0.00     0.026 C 
ENDBRANCH  23  25
ENDBRANCH   3  23
TORSDOF 6
ENDMDL
MODEL 10
REMARK VINA RESULT:      -7.2      1.757      4.850
REMARK  6 active torsions:
REMARK  status: ('A' for Active; 'I' for Inactive)
REMARK    1  A    between atoms: O_2  and  C_3 
REMARK    2  A    between atoms: C_4  and  C_5 
REMARK    3  A    between atoms: C_5  and  N_6 
REMARK    4  A    between atoms: N_6  and  C_7 
REMARK    5  A    between atoms: C_9  and  N_10 
REMARK    6  A    between atoms: N_10  and  C_11 
ROOT
HETATM    1  C   UNL     1      42.992 -18.255   2.768  1.00  0.00     0.135 A 
HETATM    2  N   UNL     1      43.059 -17.372   3.779  1.00  0.00    -0.052 NA
HETATM    3  C   UNL     1      43.667 -17.747   4.917  1.00  0.00     0.702 A 
HETATM    4  N   UNL     1      44.182 -18.965   5.072  1.00  0.00    -0.189 N 
HETATM    5  H   UNL     1      44.649 -19.167   5.943  1.00  0.00     0.184 HD
HETATM    6  C   UNL     1      44.142 -19.878   4.094  1.00  0.00     0.062 A 
HETATM    7  C   UNL     1      43.546 -19.547   2.865  1.00  0.00     0.032 A 
HETATM    8  C   UNL     1      44.721 -21.141   4.302  1.00  0.00     0.031 A 
HETATM    9  C   UNL     1      44.727 -22.088   3.280  1.00  0.00     0.002 A 
HETATM   10  C   UNL     1      44.172 -21.773   2.044  1.00  0.00     0.001 A 
HETATM   11  C   UNL     1      43.598 -20.517   1.832  1.00  0.00     0.017 A 
ENDROOT
BRANCH   1  12
HETATM   12  N   UNL     1      42.425 -17.737   1.614  1.00  0.00    -0.272 NA
HETATM   13  H   UNL     1      43.007 -16.950   1.324  1.00  0.00     0.129 HD
BRANCH  12  14
HETATM   14  C   UNL     1      41.022 -17.302   1.651  1.00  0.00     0.135 C 
BRANCH  14  15
HETATM   15  C   UNL     1      40.786 -16.089   0.770  1.00  0.00    -0.012 A 
HETATM   16  C   UNL     1      40.003 -15.022   1.259  1.00  0.00     0.075 A 
HETATM   17  C   UNL     1      39.773 -13.901   0.452  1.00  0.00     0.037 A 
HETATM   18  C   UNL     1      40.324 -13.822  -0.827  1.00  0.00     0.003 A 
HETATM   19  C   UNL     1      41.111 -14.860  -1.312  1.00  0.00     0.001 A 
HETATM   20  C   UNL     1      41.343 -15.982  -0.518  1.00  0.00     0.011 A 
BRANCH  16  21
HETATM   21  O   UNL     1      39.504 -15.183   2.527  1.00  0.00    -0.355 OA
HETATM   22  C   UNL     1      39.846 -14.187   3.487  1.00  0.00     0.210 C 
ENDBRANCH  16  21
ENDBRANCH  14  15
ENDBRANCH  12  14
ENDBRANCH   1  12
BRANCH   3  23
HETATM   23  N   UNL     1      43.827 -16.864   5.962  1.00  0.00    -0.220 N 
HETATM   24  H   UNL     1      43.497 -17.093   6.888  1.00  0.00     0.178 HD
BRANCH  23  25
HETATM   25  C   UNL     1      43.917 -15.435   5.683  1.00  0.00     0.099 C 
HETATM   26  C   UNL     1      42.564 -14.758   5.910  1.00  0.00     0.026 C 
HETATM   27  C   UNL     1      42.941 -13.339   6.295  1.00  0.00     0.002 C 
HETATM   28  C   UNL     1      44.129 -13.534   7.223  1.00  0.00     0.002 C 
HETATM   29  C   UNL     1      44.872 -14.751   6.674  1.00  0.00     0.026 C 
ENDBRANCH  23  25
ENDBRANCH   3  23
TORSDOF 6
ENDMDL
