MODEL 1
REMARK VINA RESULT:      -8.2      0.000      0.000
REMARK  6 active torsions:
REMARK  status: ('A' for Active; 'I' for Inactive)
REMARK    1  A    between atoms: C_3  and  C_4 
REMARK       I    between atoms: C_4  and  N_5 
REMARK    2  A    between atoms: N_5  and  C_6 
REMARK    3  A    between atoms: C_6  and  C_7 
REMARK    4  A    between atoms: C_7  and  N_8 
REMARK    5  A    between atoms: C_7  and  C_14 
REMARK    6  A    between atoms: C_21  and  C_22 
ROOT
HETATM    1  C   UNL     1      42.874 -14.823   2.573  1.00  0.00     0.272 C 
HETATM    2  N   UNL     1      41.814 -14.724   1.690  1.00  0.00    -0.354 N 
HETATM    3  O   UNL     1      43.566 -13.862   2.888  1.00  0.00    -0.266 OA
HETATM    4  H   UNL     1      41.438 -15.634   1.422  1.00  0.00     0.162 HD
ENDROOT
BRANCH   1   5
HETATM    5  C   UNL     1      43.035 -16.183   3.116  1.00  0.00     0.152 A 
HETATM    6  C   UNL     1      43.539 -17.345   2.460  1.00  0.00     0.003 A 
HETATM    7  C   UNL     1      43.974 -17.448   1.041  1.00  0.00     0.053 C 
HETATM    8  C   UNL     1      43.513 -18.343   3.424  1.00  0.00     0.069 A 
HETATM    9  N   UNL     1      42.987 -17.750   4.541  1.00  0.00    -0.276 N 
HETATM   10  N   UNL     1      42.682 -16.449   4.392  1.00  0.00    -0.168 NA
HETATM   11  H   UNL     1      42.828 -18.189   5.444  1.00  0.00     0.189 HD
BRANCH   8  12
HETATM   12  C   UNL     1      43.930 -19.743   3.406  1.00  0.00    -0.007 A 
HETATM   13  C   UNL     1      43.739 -20.533   2.264  1.00  0.00     0.014 A 
HETATM   14  C   UNL     1      44.125 -21.876   2.259  1.00  0.00     0.001 A 
HETATM   15  C   UNL     1      44.705 -22.441   3.392  1.00  0.00     0.000 A 
HETATM   16  C   UNL     1      44.902 -21.665   4.531  1.00  0.00     0.001 A 
HETATM   17  C   UNL     1      44.514 -20.323   4.539  1.00  0.00     0.014 A 
ENDBRANCH   8  12
ENDBRANCH   1   5
BRANCH   2  18
HETATM   18  C   UNL     1      41.584 -13.553   0.877  1.00  0.00     0.156 C 
BRANCH  18  19
HETATM   19  C   UNL     1      41.723 -13.774  -0.660  1.00  0.00     0.209 C 
BRANCH  19  20
HETATM   20  N   UNL     1      40.544 -14.549  -1.273  1.00  0.00    -0.065 N 
HETATM   21  H   UNL     1      40.119 -15.078  -0.506  1.00  0.00     0.280 HD
HETATM   22  C   UNL     1      40.861 -15.593  -2.332  1.00  0.00     0.235 C 
HETATM   23  C   UNL     1      39.941 -15.267  -3.494  1.00  0.00     0.029 C 
HETATM   24  C   UNL     1      38.752 -14.585  -2.850  1.00  0.00     0.029 C 
HETATM   25  C   UNL     1      39.385 -13.713  -1.784  1.00  0.00     0.235 C 
ENDBRANCH  19  20
BRANCH  19  26
HETATM   26  C   UNL     1      41.911 -12.427  -1.428  1.00  0.00     0.010 C 
HETATM   27  C   UNL     1      42.469 -11.321  -0.519  1.00  0.00     0.011 C 
HETATM   28  C   UNL     1      42.842 -12.557  -2.642  1.00  0.00     0.011 C 
ENDBRANCH  19  26
ENDBRANCH  18  19
ENDBRANCH   2  18
TORSDOF 6
ENDMDL
MODEL 2
REMARK VINA RESULT:      -8.0      1.129      2.131
REMARK  6 active torsions:
REMARK  status: ('A' for Active; 'I' for Inactive)
REMARK    1  A    between atoms: C_3  and  C_4 
REMARK       I    between atoms: C_4  and  N_5 
REMARK    2  A    between atoms: N_5  and  C_6 
REMARK    3  A    between atoms: C_6  and  C_7 
REMARK    4  A    between atoms: C_7  and  N_8 
REMARK    5  A    between atoms: C_7  and  C_14 
REMARK    6  A    between atoms: C_21  and  C_22 
ROOT
HETATM    1  C   UNL     1      42.880 -14.853   2.490  1.00  0.00     0.272 C 
HETATM    2  N   UNL     1      41.820 -14.824   1.604  1.00  0.00    -0.354 N 
HETATM    3  O   UNL     1      43.533 -13.856   2.775  1.00  0.00    -0.266 OA
HETATM    4  H   UNL     1      41.479 -15.756   1.364  1.00  0.00     0.162 HD
ENDROOT
BRANCH   1   5
HETATM    5  C   UNL     1      43.092 -16.188   3.076  1.00  0.00     0.152 A 
HETATM    6  C   UNL     1      43.485 -17.392   2.419  1.00  0.00     0.003 A 
HETATM    7  C   UNL     1      43.723 -17.574   0.962  1.00  0.00     0.053 C 
HETATM    8  C   UNL     1      43.575 -18.340   3.429  1.00  0.00     0.069 A 
HETATM    9  N   UNL     1      43.214 -17.681   4.575  1.00  0.00    -0.276 N 
HETATM   10  N   UNL     1      42.912 -16.382   4.401  1.00  0.00    -0.168 NA
HETATM   11  H   UNL     1      43.173 -18.072   5.512  1.00  0.00     0.189 HD
BRANCH   8  12
HETATM   12  C   UNL     1      43.965 -19.748   3.428  1.00  0.00    -0.007 A 
HETATM   13  C   UNL     1      44.541 -20.332   4.565  1.00  0.00     0.014 A 
HETATM   14  C   UNL     1      44.927 -21.675   4.553  1.00  0.00     0.001 A 
HETATM   15  C   UNL     1      44.741 -22.446   3.408  1.00  0.00     0.000 A 
HETATM   16  C   UNL     1      44.168 -21.876   2.273  1.00  0.00     0.001 A 
HETATM   17  C   UNL     1      43.784 -20.534   2.283  1.00  0.00     0.014 A 
ENDBRANCH   8  12
ENDBRANCH   1   5
BRANCH   2  18
HETATM   18  C   UNL     1      41.546 -13.689   0.753  1.00  0.00     0.156 C 
BRANCH  18  19
HETATM   19  C   UNL     1      40.089 -13.606   0.205  1.00  0.00     0.209 C 
BRANCH  19  20
HETATM   20  N   UNL     1      39.831 -14.547  -0.985  1.00  0.00    -0.065 N 
HETATM   21  H   UNL     1      39.066 -15.166  -0.700  1.00  0.00     0.280 HD
HETATM   22  C   UNL     1      40.952 -15.486  -1.398  1.00  0.00     0.235 C 
HETATM   23  C   UNL     1      41.108 -15.280  -2.894  1.00  0.00     0.029 C 
HETATM   24  C   UNL     1      39.738 -14.830  -3.353  1.00  0.00     0.029 C 
HETATM   25  C   UNL     1      39.285 -13.900  -2.245  1.00  0.00     0.235 C 
ENDBRANCH  19  20
BRANCH  19  26
HETATM   26  C   UNL     1      39.030 -13.879   1.319  1.00  0.00     0.010 C 
HETATM   27  C   UNL     1      38.926 -12.711   2.311  1.00  0.00     0.011 C 
HETATM   28  C   UNL     1      37.627 -14.148   0.756  1.00  0.00     0.011 C 
ENDBRANCH  19  26
ENDBRANCH  18  19
ENDBRANCH   2  18
TORSDOF 6
ENDMDL
MODEL 3
REMARK VINA RESULT:      -7.8      1.191      1.918
REMARK  6 active torsions:
REMARK  status: ('A' for Active; 'I' for Inactive)
REMARK    1  A    between atoms: C_3  and  C_4 
REMARK       I    between atoms: C_4  and  N_5 
REMARK    2  A    between atoms: N_5  and  C_6 
REMARK    3  A    between atoms: C_6  and  C_7 
REMARK    4  A    between atoms: C_7  and  N_8 
REMARK    5  A    between atoms: C_7  and  C_14 
REMARK    6  A    between atoms: C_21  and  C_22 
ROOT
HETATM    1  C   UNL     1      41.478 -15.134   1.619  1.00  0.00     0.272 C 
HETATM    2  N   UNL     1      40.470 -15.352   0.700  1.00  0.00    -0.354 N 
HETATM    3  O   UNL     1      41.981 -14.031   1.803  1.00  0.00    -0.266 OA
HETATM    4  H   UNL     1      40.267 -16.343   0.564  1.00  0.00     0.162 HD
ENDROOT
BRANCH   1   5
HETATM    5  C   UNL     1      41.833 -16.351   2.371  1.00  0.00     0.152 A 
HETATM    6  C   UNL     1      42.768 -17.369   2.017  1.00  0.00     0.003 A 
HETATM    7  C   UNL     1      43.567 -17.448   0.764  1.00  0.00     0.053 C 
HETATM    8  C   UNL     1      42.749 -18.260   3.080  1.00  0.00     0.069 A 
HETATM    9  N   UNL     1      41.819 -17.760   3.953  1.00  0.00    -0.276 N 
HETATM   10  N   UNL     1      41.242 -16.611   3.557  1.00  0.00    -0.168 NA
HETATM   11  H   UNL     1      41.550 -18.159   4.848  1.00  0.00     0.189 HD
BRANCH   8  12
HETATM   12  C   UNL     1      43.498 -19.484   3.356  1.00  0.00    -0.007 A 
HETATM   13  C   UNL     1      44.118 -19.680   4.598  1.00  0.00     0.014 A 
HETATM   14  C   UNL     1      44.848 -20.844   4.850  1.00  0.00     0.001 A 
HETATM   15  C   UNL     1      44.964 -21.824   3.867  1.00  0.00     0.000 A 
HETATM   16  C   UNL     1      44.350 -21.641   2.630  1.00  0.00     0.001 A 
HETATM   17  C   UNL     1      43.623 -20.476   2.375  1.00  0.00     0.014 A 
ENDBRANCH   8  12
ENDBRANCH   1   5
BRANCH   2  18
HETATM   18  C   UNL     1      40.093 -14.371  -0.292  1.00  0.00     0.156 C 
BRANCH  18  19
HETATM   19  C   UNL     1      40.926 -14.405  -1.609  1.00  0.00     0.209 C 
BRANCH  19  20
HETATM   20  N   UNL     1      40.058 -14.514  -2.876  1.00  0.00    -0.065 N 
HETATM   21  H   UNL     1      40.541 -13.974  -3.601  1.00  0.00     0.280 HD
HETATM   22  C   UNL     1      38.658 -13.924  -2.824  1.00  0.00     0.235 C 
HETATM   23  C   UNL     1      37.747 -15.030  -3.325  1.00  0.00     0.029 C 
HETATM   24  C   UNL     1      38.629 -15.858  -4.236  1.00  0.00     0.029 C 
HETATM   25  C   UNL     1      39.954 -15.893  -3.501  1.00  0.00     0.235 C 
ENDBRANCH  19  20
BRANCH  19  26
HETATM   26  C   UNL     1      41.870 -13.168  -1.735  1.00  0.00     0.010 C 
HETATM   27  C   UNL     1      42.143 -12.802  -3.202  1.00  0.00     0.011 C 
HETATM   28  C   UNL     1      41.318 -11.921  -1.030  1.00  0.00     0.011 C 
ENDBRANCH  19  26
ENDBRANCH  18  19
ENDBRANCH   2  18
TORSDOF 6
ENDMDL
MODEL 4
REMARK VINA RESULT:      -7.7      1.381      2.222
REMARK  6 active torsions:
REMARK  status: ('A' for Active; 'I' for Inactive)
REMARK    1  A    between atoms: C_3  and  C_4 
REMARK       I    between atoms: C_4  and  N_5 
REMARK    2  A    between atoms: N_5  and  C_6 
REMARK    3  A    between atoms: C_6  and  C_7 
REMARK    4  A    between atoms: C_7  and  N_8 
REMARK    5  A    between atoms: C_7  and  C_14 
REMARK    6  A    between atoms: C_21  and  C_22 
ROOT
HETATM    1  C   UNL     1      43.134 -14.465   3.335  1.00  0.00     0.272 C 
HETATM    2  N   UNL     1      41.840 -14.115   2.998  1.00  0.00    -0.354 N 
HETATM    3  O   UNL     1      44.047 -13.650   3.395  1.00  0.00    -0.266 OA
HETATM    4  H   UNL     1      41.238 -14.925   2.849  1.00  0.00     0.162 HD
ENDROOT
BRANCH   1   5
HETATM    5  C   UNL     1      43.269 -15.897   3.655  1.00  0.00     0.152 A 
HETATM    6  C   UNL     1      43.542 -16.981   2.769  1.00  0.00     0.003 A 
HETATM    7  C   UNL     1      43.705 -16.904   1.292  1.00  0.00     0.053 C 
HETATM    8  C   UNL     1      43.601 -18.104   3.581  1.00  0.00     0.069 A 
HETATM    9  N   UNL     1      43.338 -17.648   4.846  1.00  0.00    -0.276 N 
HETATM   10  N   UNL     1      43.128 -16.322   4.929  1.00  0.00    -0.168 NA
HETATM   11  H   UNL     1      43.306 -18.202   5.697  1.00  0.00     0.189 HD
BRANCH   8  12
HETATM   12  C   UNL     1      43.883 -19.510   3.302  1.00  0.00    -0.007 A 
HETATM   13  C   UNL     1      44.561 -20.305   4.238  1.00  0.00     0.014 A 
HETATM   14  C   UNL     1      44.843 -21.644   3.958  1.00  0.00     0.001 A 
HETATM   15  C   UNL     1      44.450 -22.203   2.744  1.00  0.00     0.000 A 
HETATM   16  C   UNL     1      43.774 -21.424   1.808  1.00  0.00     0.001 A 
HETATM   17  C   UNL     1      43.494 -20.084   2.085  1.00  0.00     0.014 A 
ENDBRANCH   8  12
ENDBRANCH   1   5
BRANCH   2  18
HETATM   18  C   UNL     1      41.501 -12.822   2.450  1.00  0.00     0.156 C 
BRANCH  18  19
HETATM   19  C   UNL     1      41.386 -12.769   0.896  1.00  0.00     0.209 C 
BRANCH  19  20
HETATM   20  N   UNL     1      39.933 -12.719   0.393  1.00  0.00    -0.065 N 
HETATM   21  H   UNL     1      39.821 -11.812  -0.070  1.00  0.00     0.280 HD
HETATM   22  C   UNL     1      38.825 -12.760   1.433  1.00  0.00     0.235 C 
HETATM   23  C   UNL     1      37.886 -13.857   0.965  1.00  0.00     0.029 C 
HETATM   24  C   UNL     1      38.076 -13.896  -0.537  1.00  0.00     0.029 C 
HETATM   25  C   UNL     1      39.569 -13.702  -0.706  1.00  0.00     0.235 C 
ENDBRANCH  19  20
BRANCH  19  26
HETATM   26  C   UNL     1      42.183 -11.569   0.293  1.00  0.00     0.010 C 
HETATM   27  C   UNL     1      42.618 -11.839  -1.156  1.00  0.00     0.011 C 
HETATM   28  C   UNL     1      41.389 -10.255   0.311  1.00  0.00     0.011 C 
ENDBRANCH  19  26
ENDBRANCH  18  19
ENDBRANCH   2  18
TORSDOF 6
ENDMDL
MODEL 5
REMARK VINA RESULT:      -7.4      1.895      2.608
REMARK  6 active torsions:
REMARK  status: ('A' for Active; 'I' for Inactive)
REMARK    1  A    between atoms: C_3  and  C_4 
REMARK       I    between atoms: C_4  and  N_5 
REMARK    2  A    between atoms: N_5  and  C_6 
REMARK    3  A    between atoms: C_6  and  C_7 
REMARK    4  A    between atoms: C_7  and  N_8 
REMARK    5  A    between atoms: C_7  and  C_14 
REMARK    6  A    between atoms: C_21  and  C_22 
ROOT
HETATM    1  C   UNL     1      41.387 -15.461   1.764  1.00  0.00     0.272 C 
HETATM    2  N   UNL     1      42.084 -14.281   1.588  1.00  0.00    -0.354 N 
HETATM    3  O   UNL     1      40.165 -15.503   1.853  1.00  0.00    -0.266 OA
HETATM    4  H   UNL     1      43.093 -14.400   1.681  1.00  0.00     0.162 HD
ENDROOT
BRANCH   1   5
HETATM    5  C   UNL     1      42.267 -16.643   1.781  1.00  0.00     0.152 A 
HETATM    6  C   UNL     1      42.373 -17.654   2.782  1.00  0.00     0.003 A 
HETATM    7  C   UNL     1      41.638 -17.708   4.075  1.00  0.00     0.053 C 
HETATM    8  C   UNL     1      43.315 -18.547   2.292  1.00  0.00     0.069 A 
HETATM    9  N   UNL     1      43.721 -18.022   1.094  1.00  0.00    -0.276 N 
HETATM   10  N   UNL     1      43.114 -16.871   0.754  1.00  0.00    -0.168 NA
HETATM   11  H   UNL     1      44.404 -18.421   0.456  1.00  0.00     0.189 HD
BRANCH   8  12
HETATM   12  C   UNL     1      43.843 -19.807   2.811  1.00  0.00    -0.007 A 
HETATM   13  C   UNL     1      43.804 -20.974   2.034  1.00  0.00     0.014 A 
HETATM   14  C   UNL     1      44.295 -22.180   2.542  1.00  0.00     0.001 A 
HETATM   15  C   UNL     1      44.830 -22.232   3.827  1.00  0.00     0.000 A 
HETATM   16  C   UNL     1      44.876 -21.078   4.606  1.00  0.00     0.001 A 
HETATM   17  C   UNL     1      44.383 -19.873   4.101  1.00  0.00     0.014 A 
ENDBRANCH   8  12
ENDBRANCH   1   5
BRANCH   2  18
HETATM   18  C   UNL     1      41.469 -12.983   1.741  1.00  0.00     0.156 C 
BRANCH  18  19
HETATM   19  C   UNL     1      41.264 -12.184   0.418  1.00  0.00     0.209 C 
BRANCH  19  20
HETATM   20  N   UNL     1      41.979 -12.813  -0.791  1.00  0.00    -0.065 N 
HETATM   21  H   UNL     1      42.624 -13.512  -0.410  1.00  0.00     0.280 HD
HETATM   22  C   UNL     1      42.852 -11.907  -1.643  1.00  0.00     0.235 C 
HETATM   23  C   UNL     1      42.392 -12.145  -3.070  1.00  0.00     0.029 C 
HETATM   24  C   UNL     1      41.844 -13.557  -3.055  1.00  0.00     0.029 C 
HETATM   25  C   UNL     1      41.113 -13.634  -1.729  1.00  0.00     0.235 C 
ENDBRANCH  19  20
BRANCH  19  26
HETATM   26  C   UNL     1      39.751 -11.993   0.081  1.00  0.00     0.010 C 
HETATM   27  C   UNL     1      38.851 -12.303   1.287  1.00  0.00     0.011 C 
HETATM   28  C   UNL     1      39.422 -10.573  -0.403  1.00  0.00     0.011 C 
ENDBRANCH  19  26
ENDBRANCH  18  19
ENDBRANCH   2  18
TORSDOF 6
ENDMDL
MODEL 6
REMARK VINA RESULT:      -7.3      2.383      3.582
REMARK  6 active torsions:
REMARK  status: ('A' for Active; 'I' for Inactive)
REMARK    1  A    between atoms: C_3  and  C_4 
REMARK       I    between atoms: C_4  and  N_5 
REMARK    2  A    between atoms: N_5  and  C_6 
REMARK    3  A    between atoms: C_6  and  C_7 
REMARK    4  A    between atoms: C_7  and  N_8 
REMARK    5  A    between atoms: C_7  and  C_14 
REMARK    6  A    between atoms: C_21  and  C_22 
ROOT
HETATM    1  C   UNL     1      43.288 -14.439   4.634  1.00  0.00     0.272 C 
HETATM    2  N   UNL     1      42.066 -14.019   5.125  1.00  0.00    -0.354 N 
HETATM    3  O   UNL     1      44.157 -13.659   4.262  1.00  0.00    -0.266 OA
HETATM    4  H   UNL     1      41.406 -14.787   5.250  1.00  0.00     0.162 HD
ENDROOT
BRANCH   1   5
HETATM    5  C   UNL     1      43.436 -15.905   4.660  1.00  0.00     0.152 A 
HETATM    6  C   UNL     1      43.551 -16.802   3.557  1.00  0.00     0.003 A 
HETATM    7  C   UNL     1      43.495 -16.451   2.112  1.00  0.00     0.053 C 
HETATM    8  C   UNL     1      43.704 -18.057   4.129  1.00  0.00     0.069 A 
HETATM    9  N   UNL     1      43.642 -17.847   5.481  1.00  0.00    -0.276 N 
HETATM   10  N   UNL     1      43.476 -16.561   5.839  1.00  0.00    -0.168 NA
HETATM   11  H   UNL     1      43.723 -18.551   6.209  1.00  0.00     0.189 HD
BRANCH   8  12
HETATM   12  C   UNL     1      43.909 -19.385   3.555  1.00  0.00    -0.007 A 
HETATM   13  C   UNL     1      43.380 -19.712   2.298  1.00  0.00     0.014 A 
HETATM   14  C   UNL     1      43.565 -20.989   1.761  1.00  0.00     0.001 A 
HETATM   15  C   UNL     1      44.280 -21.949   2.472  1.00  0.00     0.000 A 
HETATM   16  C   UNL     1      44.812 -21.635   3.721  1.00  0.00     0.001 A 
HETATM   17  C   UNL     1      44.625 -20.360   4.260  1.00  0.00     0.014 A 
ENDBRANCH   8  12
ENDBRANCH   1   5
BRANCH   2  18
HETATM   18  C   UNL     1      41.609 -12.653   5.012  1.00  0.00     0.156 C 
BRANCH  18  19
HETATM   19  C   UNL     1      40.652 -12.370   3.814  1.00  0.00     0.209 C 
BRANCH  19  20
HETATM   20  N   UNL     1      40.700 -13.456   2.725  1.00  0.00    -0.065 N 
HETATM   21  H   UNL     1      41.147 -14.273   3.153  1.00  0.00     0.280 HD
HETATM   22  C   UNL     1      41.529 -13.172   1.483  1.00  0.00     0.235 C 
HETATM   23  C   UNL     1      40.604 -13.467   0.316  1.00  0.00     0.029 C 
HETATM   24  C   UNL     1      39.633 -14.495   0.859  1.00  0.00     0.029 C 
HETATM   25  C   UNL     1      39.362 -14.009   2.268  1.00  0.00     0.235 C 
ENDBRANCH  19  20
BRANCH  19  26
HETATM   26  C   UNL     1      39.175 -12.174   4.281  1.00  0.00     0.010 C 
HETATM   27  C   UNL     1      39.014 -12.416   5.790  1.00  0.00     0.011 C 
HETATM   28  C   UNL     1      38.630 -10.773   3.965  1.00  0.00     0.011 C 
ENDBRANCH  19  26
ENDBRANCH  18  19
ENDBRANCH   2  18
TORSDOF 6
ENDMDL
MODEL 7
REMARK VINA RESULT:      -7.3      2.139      3.021
REMARK  6 active torsions:
REMARK  status: ('A' for Active; 'I' for Inactive)
REMARK    1  A    between atoms: C_3  and  C_4 
REMARK       I    between atoms: C_4  and  N_5 
REMARK    2  A    between atoms: N_5  and  C_6 
REMARK    3  A    between atoms: C_6  and  C_7 
REMARK    4  A    between atoms: C_7  and  N_8 
REMARK    5  A    between atoms: C_7  and  C_14 
REMARK    6  A    between atoms: C_21  and  C_22 
ROOT
HETATM    1  C   UNL     1      41.875 -14.985   3.751  1.00  0.00     0.272 C 
HETATM    2  N   UNL     1      41.331 -14.302   2.680  1.00  0.00    -0.354 N 
HETATM    3  O   UNL     1      41.685 -14.652   4.915  1.00  0.00    -0.266 OA
HETATM    4  H   UNL     1      41.703 -14.614   1.782  1.00  0.00     0.162 HD
ENDROOT
BRANCH   1   5
HETATM    5  C   UNL     1      42.654 -16.164   3.336  1.00  0.00     0.152 A 
HETATM    6  C   UNL     1      42.552 -17.506   3.811  1.00  0.00     0.003 A 
HETATM    7  C   UNL     1      41.652 -18.003   4.886  1.00  0.00     0.053 C 
HETATM    8  C   UNL     1      43.480 -18.222   3.069  1.00  0.00     0.069 A 
HETATM    9  N   UNL     1      44.078 -17.299   2.252  1.00  0.00    -0.276 N 
HETATM   10  N   UNL     1      43.609 -16.046   2.388  1.00  0.00    -0.168 NA
HETATM   11  H   UNL     1      44.807 -17.477   1.567  1.00  0.00     0.189 HD
BRANCH   8  12
HETATM   12  C   UNL     1      43.839 -19.638   3.040  1.00  0.00    -0.007 A 
HETATM   13  C   UNL     1      44.469 -20.240   4.138  1.00  0.00     0.014 A 
HETATM   14  C   UNL     1      44.826 -21.590   4.099  1.00  0.00     0.001 A 
HETATM   15  C   UNL     1      44.555 -22.352   2.964  1.00  0.00     0.000 A 
HETATM   16  C   UNL     1      43.927 -21.765   1.868  1.00  0.00     0.001 A 
HETATM   17  C   UNL     1      43.573 -20.415   1.905  1.00  0.00     0.014 A 
ENDBRANCH   8  12
ENDBRANCH   1   5
BRANCH   2  18
HETATM   18  C   UNL     1      40.704 -13.008   2.818  1.00  0.00     0.156 C 
BRANCH  18  19
HETATM   19  C   UNL     1      40.653 -12.152   1.515  1.00  0.00     0.209 C 
BRANCH  19  20
HETATM   20  N   UNL     1      39.362 -12.355   0.703  1.00  0.00    -0.065 N 
HETATM   21  H   UNL     1      39.142 -11.447   0.283  1.00  0.00     0.280 HD
HETATM   22  C   UNL     1      38.104 -12.743   1.462  1.00  0.00     0.235 C 
HETATM   23  C   UNL     1      37.560 -13.956   0.729  1.00  0.00     0.029 C 
HETATM   24  C   UNL     1      38.058 -13.788  -0.691  1.00  0.00     0.029 C 
HETATM   25  C   UNL     1      39.468 -13.266  -0.507  1.00  0.00     0.235 C 
ENDBRANCH  19  20
BRANCH  19  26
HETATM   26  C   UNL     1      40.844 -10.631   1.809  1.00  0.00     0.010 C 
HETATM   27  C   UNL     1      40.186  -9.752   0.735  1.00  0.00     0.011 C 
HETATM   28  C   UNL     1      40.281 -10.211   3.175  1.00  0.00     0.011 C 
ENDBRANCH  19  26
ENDBRANCH  18  19
ENDBRANCH   2  18
TORSDOF 6
ENDMDL
MODEL 8
REMARK VINA RESULT:      -7.3      1.778      2.517
REMARK  6 active torsions:
REMARK  status: ('A' for Active; 'I' for Inactive)
REMARK    1  A    between atoms: C_3  and  C_4 
REMARK       I    between atoms: C_4  and  N_5 
REMARK    2  A    between atoms: N_5  and  C_6 
REMARK    3  A    between atoms: C_6  and  C_7 
REMARK    4  A    between atoms: C_7  and  N_8 
REMARK    5  A    between atoms: C_7  and  C_14 
REMARK    6  A    between atoms: C_21  and  C_22 
ROOT
HETATM    1  C   UNL     1      40.601 -14.749   1.918  1.00  0.00     0.272 C 
HETATM    2  N   UNL     1      39.625 -15.017   0.976  1.00  0.00    -0.354 N 
HETATM    3  O   UNL     1      40.919 -13.610   2.238  1.00  0.00    -0.266 OA
HETATM    4  H   UNL     1      39.584 -16.003   0.718  1.00  0.00     0.162 HD
ENDROOT
BRANCH   1   5
HETATM    5  C   UNL     1      41.164 -15.973   2.513  1.00  0.00     0.152 A 
HETATM    6  C   UNL     1      42.062 -16.913   1.924  1.00  0.00     0.003 A 
HETATM    7  C   UNL     1      42.595 -16.886   0.535  1.00  0.00     0.053 C 
HETATM    8  C   UNL     1      42.304 -17.851   2.917  1.00  0.00     0.069 A 
HETATM    9  N   UNL     1      41.544 -17.450   3.985  1.00  0.00    -0.276 N 
HETATM   10  N   UNL     1      40.839 -16.324   3.776  1.00  0.00    -0.168 NA
HETATM   11  H   UNL     1      41.482 -17.905   4.891  1.00  0.00     0.189 HD
BRANCH   8  12
HETATM   12  C   UNL     1      43.158 -19.036   2.969  1.00  0.00    -0.007 A 
HETATM   13  C   UNL     1      43.106 -20.000   1.953  1.00  0.00     0.014 A 
HETATM   14  C   UNL     1      43.913 -21.140   2.016  1.00  0.00     0.001 A 
HETATM   15  C   UNL     1      44.778 -21.326   3.092  1.00  0.00     0.000 A 
HETATM   16  C   UNL     1      44.838 -20.373   4.106  1.00  0.00     0.001 A 
HETATM   17  C   UNL     1      44.031 -19.235   4.046  1.00  0.00     0.014 A 
ENDBRANCH   8  12
ENDBRANCH   1   5
BRANCH   2  18
HETATM   18  C   UNL     1      39.074 -13.997   0.114  1.00  0.00     0.156 C 
BRANCH  18  19
HETATM   19  C   UNL     1      39.332 -14.206  -1.410  1.00  0.00     0.209 C 
BRANCH  19  20
HETATM   20  N   UNL     1      39.013 -12.962  -2.258  1.00  0.00    -0.065 N 
HETATM   21  H   UNL     1      39.896 -12.679  -2.696  1.00  0.00     0.280 HD
HETATM   22  C   UNL     1      38.528 -11.718  -1.532  1.00  0.00     0.235 C 
HETATM   23  C   UNL     1      37.267 -11.301  -2.266  1.00  0.00     0.029 C 
HETATM   24  C   UNL     1      37.462 -11.826  -3.673  1.00  0.00     0.029 C 
HETATM   25  C   UNL     1      38.103 -13.181  -3.454  1.00  0.00     0.235 C 
ENDBRANCH  19  20
BRANCH  19  26
HETATM   26  C   UNL     1      40.797 -14.664  -1.696  1.00  0.00     0.010 C 
HETATM   27  C   UNL     1      40.873 -15.634  -2.884  1.00  0.00     0.011 C 
HETATM   28  C   UNL     1      41.745 -13.490  -1.982  1.00  0.00     0.011 C 
ENDBRANCH  19  26
ENDBRANCH  18  19
ENDBRANCH   2  18
TORSDOF 6
ENDMDL
MODEL 9
REMARK VINA RESULT:      -7.3      1.746      2.478
REMARK  6 active torsions:
REMARK  status: ('A' for Active; 'I' for Inactive)
REMARK    1  A    between atoms: C_3  and  C_4 
REMARK       I    between atoms: C_4  and  N_5 
REMARK    2  A    between atoms: N_5  and  C_6 
REMARK    3  A    between atoms: C_6  and  C_7 
REMARK    4  A    between atoms: C_7  and  N_8 
REMARK    5  A    between atoms: C_7  and  C_14 
REMARK    6  A    between atoms: C_21  and  C_22 
ROOT
HETATM    1  C   UNL     1      41.273 -14.505   0.616  1.00  0.00     0.272 C 
HETATM    2  N   UNL     1      41.904 -14.097  -0.544  1.00  0.00    -0.354 N 
HETATM    3  O   UNL     1      40.392 -13.848   1.159  1.00  0.00    -0.266 OA
HETATM    4  H   UNL     1      42.708 -14.678  -0.781  1.00  0.00     0.162 HD
ENDROOT
BRANCH   1   5
HETATM    5  C   UNL     1      41.742 -15.821   1.084  1.00  0.00     0.152 A 
HETATM    6  C   UNL     1      42.685 -16.111   2.115  1.00  0.00     0.003 A 
HETATM    7  C   UNL     1      43.450 -15.125   2.924  1.00  0.00     0.053 C 
HETATM    8  C   UNL     1      42.737 -17.496   2.176  1.00  0.00     0.069 A 
HETATM    9  N   UNL     1      41.883 -17.933   1.197  1.00  0.00    -0.276 N 
HETATM   10  N   UNL     1      41.268 -16.951   0.514  1.00  0.00    -0.168 NA
HETATM   11  H   UNL     1      41.671 -18.898   0.963  1.00  0.00     0.189 HD
BRANCH   8  12
HETATM   12  C   UNL     1      43.471 -18.419   3.038  1.00  0.00    -0.007 A 
HETATM   13  C   UNL     1      44.143 -19.525   2.498  1.00  0.00     0.014 A 
HETATM   14  C   UNL     1      44.830 -20.413   3.330  1.00  0.00     0.001 A 
HETATM   15  C   UNL     1      44.853 -20.206   4.707  1.00  0.00     0.000 A 
HETATM   16  C   UNL     1      44.191 -19.109   5.255  1.00  0.00     0.001 A 
HETATM   17  C   UNL     1      43.502 -18.222   4.425  1.00  0.00     0.014 A 
ENDBRANCH   8  12
ENDBRANCH   1   5
BRANCH   2  18
HETATM   18  C   UNL     1      41.764 -12.762  -1.078  1.00  0.00     0.156 C 
BRANCH  18  19
HETATM   19  C   UNL     1      41.658 -12.676  -2.631  1.00  0.00     0.209 C 
BRANCH  19  20
HETATM   20  N   UNL     1      40.299 -13.147  -3.177  1.00  0.00    -0.065 N 
HETATM   21  H   UNL     1      40.176 -12.682  -4.081  1.00  0.00     0.280 HD
HETATM   22  C   UNL     1      39.055 -12.781  -2.383  1.00  0.00     0.235 C 
HETATM   23  C   UNL     1      38.301 -14.087  -2.208  1.00  0.00     0.029 C 
HETATM   24  C   UNL     1      38.718 -14.921  -3.401  1.00  0.00     0.029 C 
HETATM   25  C   UNL     1      40.195 -14.617  -3.541  1.00  0.00     0.235 C 
ENDBRANCH  19  20
BRANCH  19  26
HETATM   26  C   UNL     1      41.955 -11.236  -3.157  1.00  0.00     0.010 C 
HETATM   27  C   UNL     1      43.021 -10.524  -2.310  1.00  0.00     0.011 C 
HETATM   28  C   UNL     1      42.422 -11.219  -4.620  1.00  0.00     0.011 C 
ENDBRANCH  19  26
ENDBRANCH  18  19
ENDBRANCH   2  18
TORSDOF 6
ENDMDL
MODEL 10
REMARK VINA RESULT:      -7.3      1.591      2.753
REMARK  6 active torsions:
REMARK  status: ('A' for Active; 'I' for Inactive)
REMARK    1  A    between atoms: C_3  and  C_4 
REMARK       I    between atoms: C_4  and  N_5 
REMARK    2  A    between atoms: N_5  and  C_6 
REMARK    3  A    between atoms: C_6  and  C_7 
REMARK    4  A    between atoms: C_7  and  N_8 
REMARK    5  A    between atoms: C_7  and  C_14 
REMARK    6  A    between atoms: C_21  and  C_22 
ROOT
HETATM    1  C   UNL     1      41.112 -14.589   1.893  1.00  0.00     0.272 C 
HETATM    2  N   UNL     1      41.414 -14.160   0.615  1.00  0.00    -0.354 N 
HETATM    3  O   UNL     1      40.177 -14.135   2.542  1.00  0.00    -0.266 OA
HETATM    4  H   UNL     1      42.304 -14.528   0.274  1.00  0.00     0.162 HD
ENDROOT
BRANCH   1   5
HETATM    5  C   UNL     1      42.001 -15.671   2.353  1.00  0.00     0.152 A 
HETATM    6  C   UNL     1      41.911 -17.068   2.079  1.00  0.00     0.003 A 
HETATM    7  C   UNL     1      40.851 -17.755   1.293  1.00  0.00     0.053 C 
HETATM    8  C   UNL     1      43.007 -17.631   2.717  1.00  0.00     0.069 A 
HETATM    9  N   UNL     1      43.641 -16.586   3.334  1.00  0.00    -0.276 N 
HETATM   10  N   UNL     1      43.061 -15.388   3.141  1.00  0.00    -0.168 NA
HETATM   11  H   UNL     1      44.490 -16.633   3.891  1.00  0.00     0.189 HD
BRANCH   8  12
HETATM   12  C   UNL     1      43.510 -19.001   2.790  1.00  0.00    -0.007 A 
HETATM   13  C   UNL     1      43.284 -19.904   1.742  1.00  0.00     0.014 A 
HETATM   14  C   UNL     1      43.752 -21.218   1.825  1.00  0.00     0.001 A 
HETATM   15  C   UNL     1      44.450 -21.642   2.954  1.00  0.00     0.000 A 
HETATM   16  C   UNL     1      44.682 -20.752   4.000  1.00  0.00     0.001 A 
HETATM   17  C   UNL     1      44.212 -19.440   3.920  1.00  0.00     0.014 A 
ENDBRANCH   8  12
ENDBRANCH   1   5
BRANCH   2  18
HETATM   18  C   UNL     1      40.822 -12.980   0.028  1.00  0.00     0.156 C 
BRANCH  18  19
HETATM   19  C   UNL     1      40.443 -13.106  -1.479  1.00  0.00     0.209 C 
BRANCH  19  20
HETATM   20  N   UNL     1      41.543 -12.598  -2.428  1.00  0.00    -0.065 N 
HETATM   21  H   UNL     1      41.910 -13.425  -2.910  1.00  0.00     0.280 HD
HETATM   22  C   UNL     1      42.764 -11.941  -1.805  1.00  0.00     0.235 C 
HETATM   23  C   UNL     1      42.923 -10.625  -2.544  1.00  0.00     0.029 C 
HETATM   24  C   UNL     1      42.303 -10.882  -3.902  1.00  0.00     0.029 C 
HETATM   25  C   UNL     1      41.083 -11.719  -3.577  1.00  0.00     0.235 C 
ENDBRANCH  19  20
BRANCH  19  26
HETATM   26  C   UNL     1      40.064 -14.571  -1.865  1.00  0.00     0.010 C 
HETATM   27  C   UNL     1      38.696 -14.646  -2.560  1.00  0.00     0.011 C 
HETATM   28  C   UNL     1      41.100 -15.234  -2.785  1.00  0.00     0.011 C 
ENDBRANCH  19  26
ENDBRANCH  18  19
ENDBRANCH   2  18
TORSDOF 6
ENDMDL
