MODEL 1
REMARK VINA RESULT:      -7.0      0.000      0.000
REMARK  2 active torsions:
REMARK  status: ('A' for Active; 'I' for Inactive)
REMARK    1  A    between atoms: C_8  and  N_9 
REMARK       I    between atoms: N_9  and  C_10 
REMARK       I    between atoms: C_10  and  N_11 
REMARK    2  A    between atoms: N_11  and  C_12 
ROOT
HETATM    1  N   UNL     1      45.355 -13.746   7.399  1.00  0.00    -0.309 N 
HETATM    2  C   UNL     1      45.339 -12.639   8.181  1.00  0.00     0.321 C 
HETATM    3  N   UNL     1      44.148 -12.254   8.713  1.00  0.00    -0.337 N 
HETATM    4  O   UNL     1      46.386 -12.048   8.444  1.00  0.00    -0.247 OA
HETATM    5  H   UNL     1      46.297 -14.099   7.254  1.00  0.00     0.170 HD
HETATM    6  H   UNL     1      43.463 -12.999   8.781  1.00  0.00     0.164 HD
ENDROOT
BRANCH   1   7
HETATM    7  C   UNL     1      44.348 -14.406   6.664  1.00  0.00     0.037 A 
HETATM    8  C   UNL     1      43.889 -13.981   5.410  1.00  0.00     0.051 A 
HETATM    9  C   UNL     1      42.913 -14.755   4.751  1.00  0.00     0.037 A 
HETATM   10  S   UNL     1      42.174 -14.490   3.216  1.00  0.00    -0.073 SA
HETATM   11  C   UNL     1      42.400 -15.929   5.299  1.00  0.00     0.075 A 
HETATM   12  C   UNL     1      41.255 -15.927   3.408  1.00  0.00     0.072 A 
HETATM   13  C   UNL     1      40.307 -16.373   2.349  1.00  0.00     0.079 C 
HETATM   14  N   UNL     1      41.455 -16.580   4.531  1.00  0.00    -0.245 NA
HETATM   15  C   UNL     1      42.883 -16.353   6.550  1.00  0.00     0.035 A 
HETATM   16  C   UNL     1      43.855 -15.593   7.213  1.00  0.00     0.032 A 
ENDBRANCH   1   7
BRANCH   3  17
HETATM   17  C   UNL     1      43.900 -11.050   9.516  1.00  0.00     0.113 C 
HETATM   18  C   UNL     1      42.427 -10.719   9.794  1.00  0.00     0.257 C 
HETATM   19  N   UNL     1      42.111 -11.556  10.994  1.00  0.00    -0.073 N 
HETATM   20  H   UNL     1      41.283 -11.256  11.522  1.00  0.00     0.277 HD
HETATM   21  H   UNL     1      41.903 -12.509  10.621  1.00  0.00     0.277 HD
HETATM   22  C   UNL     1      43.355 -11.692  11.807  1.00  0.00     0.234 C 
HETATM   23  C   UNL     1      44.479 -11.164  10.924  1.00  0.00     0.054 C 
ENDBRANCH   3  17
TORSDOF 2
ENDMDL
MODEL 2
REMARK VINA RESULT:      -6.6      6.394      8.897
REMARK  2 active torsions:
REMARK  status: ('A' for Active; 'I' for Inactive)
REMARK    1  A    between atoms: C_8  and  N_9 
REMARK       I    between atoms: N_9  and  C_10 
REMARK       I    between atoms: C_10  and  N_11 
REMARK    2  A    between atoms: N_11  and  C_12 
ROOT
HETATM    1  N   UNL     1      39.243 -15.768   1.899  1.00  0.00    -0.309 N 
HETATM    2  C   UNL     1      39.051 -14.826   0.943  1.00  0.00     0.321 C 
HETATM    3  N   UNL     1      39.993 -14.707  -0.030  1.00  0.00    -0.337 N 
HETATM    4  O   UNL     1      38.022 -14.150   0.934  1.00  0.00    -0.247 OA
HETATM    5  H   UNL     1      38.395 -15.957   2.426  1.00  0.00     0.170 HD
HETATM    6  H   UNL     1      40.555 -15.540  -0.169  1.00  0.00     0.164 HD
ENDROOT
BRANCH   1   7
HETATM    7  C   UNL     1      40.400 -16.425   2.369  1.00  0.00     0.037 A 
HETATM    8  C   UNL     1      40.967 -16.202   3.630  1.00  0.00     0.051 A 
HETATM    9  C   UNL     1      42.097 -16.958   4.005  1.00  0.00     0.037 A 
HETATM   10  S   UNL     1      42.993 -16.911   5.477  1.00  0.00    -0.073 SA
HETATM   11  C   UNL     1      42.658 -17.921   3.169  1.00  0.00     0.075 A 
HETATM   12  C   UNL     1      44.028 -18.147   4.890  1.00  0.00     0.072 A 
HETATM   13  C   UNL     1      45.145 -18.668   5.725  1.00  0.00     0.079 C 
HETATM   14  N   UNL     1      43.756 -18.583   3.679  1.00  0.00    -0.245 NA
HETATM   15  C   UNL     1      42.067 -18.146   1.913  1.00  0.00     0.035 A 
HETATM   16  C   UNL     1      40.943 -17.403   1.530  1.00  0.00     0.032 A 
ENDBRANCH   1   7
BRANCH   3  17
HETATM   17  C   UNL     1      40.015 -13.705  -1.104  1.00  0.00     0.113 C 
HETATM   18  C   UNL     1      41.345 -12.967  -1.306  1.00  0.00     0.257 C 
HETATM   19  N   UNL     1      42.119 -13.895  -2.188  1.00  0.00    -0.073 N 
HETATM   20  H   UNL     1      42.903 -13.460  -2.689  1.00  0.00     0.277 HD
HETATM   21  H   UNL     1      42.529 -14.610  -1.548  1.00  0.00     0.277 HD
HETATM   22  C   UNL     1      41.150 -14.625  -3.058  1.00  0.00     0.234 C 
HETATM   23  C   UNL     1      39.774 -14.324  -2.478  1.00  0.00     0.054 C 
ENDBRANCH   3  17
TORSDOF 2
ENDMDL
MODEL 3
REMARK VINA RESULT:      -6.6      4.356      5.993
REMARK  2 active torsions:
REMARK  status: ('A' for Active; 'I' for Inactive)
REMARK    1  A    between atoms: C_8  and  N_9 
REMARK       I    between atoms: N_9  and  C_10 
REMARK       I    between atoms: C_10  and  N_11 
REMARK    2  A    between atoms: N_11  and  C_12 
ROOT
HETATM    1  N   UNL     1      43.391 -19.221   3.466  1.00  0.00    -0.309 N 
HETATM    2  C   UNL     1      44.130 -19.089   4.595  1.00  0.00     0.321 C 
HETATM    3  N   UNL     1      44.030 -17.924   5.288  1.00  0.00    -0.337 N 
HETATM    4  O   UNL     1      44.817 -20.026   5.001  1.00  0.00    -0.247 OA
HETATM    5  H   UNL     1      43.332 -20.188   3.158  1.00  0.00     0.170 HD
HETATM    6  H   UNL     1      43.171 -17.411   5.117  1.00  0.00     0.164 HD
ENDROOT
BRANCH   1   7
HETATM    7  C   UNL     1      42.810 -18.277   2.593  1.00  0.00     0.037 A 
HETATM    8  C   UNL     1      41.636 -17.568   2.878  1.00  0.00     0.051 A 
HETATM    9  C   UNL     1      41.182 -16.613   1.946  1.00  0.00     0.037 A 
HETATM   10  S   UNL     1      39.793 -15.595   2.025  1.00  0.00    -0.073 SA
HETATM   11  C   UNL     1      41.867 -16.346   0.762  1.00  0.00     0.075 A 
HETATM   12  C   UNL     1      40.211 -14.902   0.512  1.00  0.00     0.072 A 
HETATM   13  C   UNL     1      39.371 -13.831  -0.095  1.00  0.00     0.079 C 
HETATM   14  N   UNL     1      41.302 -15.379  -0.046  1.00  0.00    -0.245 NA
HETATM   15  C   UNL     1      43.053 -17.052   0.498  1.00  0.00     0.035 A 
HETATM   16  C   UNL     1      43.515 -18.002   1.418  1.00  0.00     0.032 A 
ENDBRANCH   1   7
BRANCH   3  17
HETATM   17  C   UNL     1      44.798 -17.550   6.483  1.00  0.00     0.113 C 
HETATM   18  C   UNL     1      44.742 -16.069   6.881  1.00  0.00     0.257 C 
HETATM   19  N   UNL     1      43.486 -15.981   7.690  1.00  0.00    -0.073 N 
HETATM   20  H   UNL     1      43.425 -15.159   8.302  1.00  0.00     0.277 HD
HETATM   21  H   UNL     1      42.712 -15.898   6.994  1.00  0.00     0.277 HD
HETATM   22  C   UNL     1      43.285 -17.289   8.380  1.00  0.00     0.234 C 
HETATM   23  C   UNL     1      44.285 -18.245   7.741  1.00  0.00     0.054 C 
ENDBRANCH   3  17
TORSDOF 2
ENDMDL
MODEL 4
REMARK VINA RESULT:      -6.5      5.993      7.402
REMARK  2 active torsions:
REMARK  status: ('A' for Active; 'I' for Inactive)
REMARK    1  A    between atoms: C_8  and  N_9 
REMARK       I    between atoms: N_9  and  C_10 
REMARK       I    between atoms: C_10  and  N_11 
REMARK    2  A    between atoms: N_11  and  C_12 
ROOT
HETATM    1  N   UNL     1      42.989 -16.884   0.649  1.00  0.00    -0.309 N 
HETATM    2  C   UNL     1      42.076 -15.883   0.578  1.00  0.00     0.321 C 
HETATM    3  N   UNL     1      41.688 -15.293   1.740  1.00  0.00    -0.337 N 
HETATM    4  O   UNL     1      41.667 -15.491  -0.515  1.00  0.00    -0.247 OA
HETATM    5  H   UNL     1      43.400 -17.091  -0.257  1.00  0.00     0.170 HD
HETATM    6  H   UNL     1      42.354 -15.392   2.499  1.00  0.00     0.164 HD
ENDROOT
BRANCH   1   7
HETATM    7  C   UNL     1      43.369 -17.752   1.693  1.00  0.00     0.037 A 
HETATM    8  C   UNL     1      43.603 -19.123   1.524  1.00  0.00     0.051 A 
HETATM    9  C   UNL     1      44.028 -19.877   2.637  1.00  0.00     0.037 A 
HETATM   10  S   UNL     1      44.398 -21.558   2.730  1.00  0.00    -0.073 SA
HETATM   11  C   UNL     1      44.232 -19.303   3.890  1.00  0.00     0.075 A 
HETATM   12  C   UNL     1      44.788 -21.383   4.392  1.00  0.00     0.072 A 
HETATM   13  C   UNL     1      45.245 -22.551   5.195  1.00  0.00     0.079 C 
HETATM   14  N   UNL     1      44.656 -20.169   4.878  1.00  0.00    -0.245 NA
HETATM   15  C   UNL     1      44.011 -17.922   4.041  1.00  0.00     0.035 A 
HETATM   16  C   UNL     1      43.590 -17.162   2.942  1.00  0.00     0.032 A 
ENDBRANCH   1   7
BRANCH   3  17
HETATM   17  C   UNL     1      40.661 -14.254   1.890  1.00  0.00     0.113 C 
HETATM   18  C   UNL     1      39.326 -14.712   2.491  1.00  0.00     0.257 C 
HETATM   19  N   UNL     1      39.574 -14.646   3.965  1.00  0.00    -0.073 N 
HETATM   20  H   UNL     1      38.727 -14.613   4.544  1.00  0.00     0.277 HD
HETATM   21  H   UNL     1      40.070 -15.533   4.204  1.00  0.00     0.277 HD
HETATM   22  C   UNL     1      40.550 -13.545   4.222  1.00  0.00     0.234 C 
HETATM   23  C   UNL     1      41.091 -13.151   2.853  1.00  0.00     0.054 C 
ENDBRANCH   3  17
TORSDOF 2
ENDMDL
MODEL 5
REMARK VINA RESULT:      -6.5      4.124      6.121
REMARK  2 active torsions:
REMARK  status: ('A' for Active; 'I' for Inactive)
REMARK    1  A    between atoms: C_8  and  N_9 
REMARK       I    between atoms: N_9  and  C_10 
REMARK       I    between atoms: C_10  and  N_11 
REMARK    2  A    between atoms: N_11  and  C_12 
ROOT
HETATM    1  N   UNL     1      43.364 -15.645   5.960  1.00  0.00    -0.309 N 
HETATM    2  C   UNL     1      42.762 -14.550   5.433  1.00  0.00     0.321 C 
HETATM    3  N   UNL     1      41.946 -14.728   4.361  1.00  0.00    -0.337 N 
HETATM    4  O   UNL     1      42.911 -13.446   5.958  1.00  0.00    -0.247 OA
HETATM    5  H   UNL     1      43.744 -15.465   6.885  1.00  0.00     0.170 HD
HETATM    6  H   UNL     1      41.576 -15.668   4.271  1.00  0.00     0.164 HD
ENDROOT
BRANCH   1   7
HETATM    7  C   UNL     1      43.665 -16.915   5.424  1.00  0.00     0.037 A 
HETATM    8  C   UNL     1      43.270 -17.339   4.149  1.00  0.00     0.051 A 
HETATM    9  C   UNL     1      43.676 -18.615   3.707  1.00  0.00     0.037 A 
HETATM   10  S   UNL     1      43.355 -19.394   2.203  1.00  0.00    -0.073 SA
HETATM   11  C   UNL     1      44.462 -19.458   4.490  1.00  0.00     0.075 A 
HETATM   12  C   UNL     1      44.267 -20.756   2.710  1.00  0.00     0.072 A 
HETATM   13  C   UNL     1      44.442 -21.933   1.815  1.00  0.00     0.079 C 
HETATM   14  N   UNL     1      44.784 -20.672   3.916  1.00  0.00    -0.245 NA
HETATM   15  C   UNL     1      44.866 -19.012   5.761  1.00  0.00     0.035 A 
HETATM   16  C   UNL     1      44.471 -17.745   6.210  1.00  0.00     0.032 A 
ENDBRANCH   1   7
BRANCH   3  17
HETATM   17  C   UNL     1      41.265 -13.673   3.598  1.00  0.00     0.113 C 
HETATM   18  C   UNL     1      42.061 -13.068   2.434  1.00  0.00     0.257 C 
HETATM   19  N   UNL     1      41.796 -14.018   1.309  1.00  0.00    -0.073 N 
HETATM   20  H   UNL     1      41.977 -13.639   0.373  1.00  0.00     0.277 HD
HETATM   21  H   UNL     1      42.463 -14.809   1.450  1.00  0.00     0.277 HD
HETATM   22  C   UNL     1      40.430 -14.591   1.497  1.00  0.00     0.234 C 
HETATM   23  C   UNL     1      40.006 -14.182   2.903  1.00  0.00     0.054 C 
ENDBRANCH   3  17
TORSDOF 2
ENDMDL
MODEL 6
REMARK VINA RESULT:      -6.3      5.018      6.190
REMARK  2 active torsions:
REMARK  status: ('A' for Active; 'I' for Inactive)
REMARK    1  A    between atoms: C_8  and  N_9 
REMARK       I    between atoms: N_9  and  C_10 
REMARK       I    between atoms: C_10  and  N_11 
REMARK    2  A    between atoms: N_11  and  C_12 
ROOT
HETATM    1  N   UNL     1      40.108 -15.461   5.875  1.00  0.00    -0.309 N 
HETATM    2  C   UNL     1      39.818 -14.275   5.287  1.00  0.00     0.321 C 
HETATM    3  N   UNL     1      40.168 -14.109   3.984  1.00  0.00    -0.337 N 
HETATM    4  O   UNL     1      39.201 -13.408   5.907  1.00  0.00    -0.247 OA
HETATM    5  H   UNL     1      39.601 -15.591   6.746  1.00  0.00     0.170 HD
HETATM    6  H   UNL     1      40.282 -14.976   3.470  1.00  0.00     0.164 HD
ENDROOT
BRANCH   1   7
HETATM    7  C   UNL     1      41.053 -16.465   5.577  1.00  0.00     0.037 A 
HETATM    8  C   UNL     1      41.275 -16.971   4.289  1.00  0.00     0.051 A 
HETATM    9  C   UNL     1      42.285 -17.939   4.110  1.00  0.00     0.037 A 
HETATM   10  S   UNL     1      42.786 -18.727   2.661  1.00  0.00    -0.073 SA
HETATM   11  C   UNL     1      43.071 -18.398   5.165  1.00  0.00     0.075 A 
HETATM   12  C   UNL     1      43.978 -19.593   3.541  1.00  0.00     0.072 A 
HETATM   13  C   UNL     1      44.886 -20.554   2.855  1.00  0.00     0.079 C 
HETATM   14  N   UNL     1      44.022 -19.341   4.831  1.00  0.00    -0.245 NA
HETATM   15  C   UNL     1      42.848 -17.868   6.449  1.00  0.00     0.035 A 
HETATM   16  C   UNL     1      41.850 -16.904   6.639  1.00  0.00     0.032 A 
ENDBRANCH   1   7
BRANCH   3  17
HETATM   17  C   UNL     1      40.018 -12.883   3.189  1.00  0.00     0.113 C 
HETATM   18  C   UNL     1      41.108 -11.820   3.380  1.00  0.00     0.257 C 
HETATM   19  N   UNL     1      42.186 -12.266   2.443  1.00  0.00    -0.073 N 
HETATM   20  H   UNL     1      42.864 -11.539   2.190  1.00  0.00     0.277 HD
HETATM   21  H   UNL     1      42.714 -13.006   2.958  1.00  0.00     0.277 HD
HETATM   22  C   UNL     1      41.541 -12.950   1.284  1.00  0.00     0.234 C 
HETATM   23  C   UNL     1      40.086 -13.154   1.689  1.00  0.00     0.054 C 
ENDBRANCH   3  17
TORSDOF 2
ENDMDL
MODEL 7
REMARK VINA RESULT:      -6.3      6.383      8.048
REMARK  2 active torsions:
REMARK  status: ('A' for Active; 'I' for Inactive)
REMARK    1  A    between atoms: C_8  and  N_9 
REMARK       I    between atoms: N_9  and  C_10 
REMARK       I    between atoms: C_10  and  N_11 
REMARK    2  A    between atoms: N_11  and  C_12 
ROOT
HETATM    1  N   UNL     1      41.681 -16.399  -0.372  1.00  0.00    -0.309 N 
HETATM    2  C   UNL     1      41.095 -15.228  -0.725  1.00  0.00     0.321 C 
HETATM    3  N   UNL     1      41.385 -14.124   0.013  1.00  0.00    -0.337 N 
HETATM    4  O   UNL     1      40.376 -15.169  -1.723  1.00  0.00    -0.247 OA
HETATM    5  H   UNL     1      41.612 -17.098  -1.107  1.00  0.00     0.170 HD
HETATM    6  H   UNL     1      42.262 -14.182   0.521  1.00  0.00     0.164 HD
ENDROOT
BRANCH   1   7
HETATM    7  C   UNL     1      42.241 -16.855   0.839  1.00  0.00     0.037 A 
HETATM    8  C   UNL     1      41.539 -16.914   2.051  1.00  0.00     0.051 A 
HETATM    9  C   UNL     1      42.194 -17.438   3.184  1.00  0.00     0.037 A 
HETATM   10  S   UNL     1      41.592 -17.641   4.787  1.00  0.00    -0.073 SA
HETATM   11  C   UNL     1      43.506 -17.905   3.136  1.00  0.00     0.075 A 
HETATM   12  C   UNL     1      43.093 -18.317   5.269  1.00  0.00     0.072 A 
HETATM   13  C   UNL     1      43.309 -18.778   6.668  1.00  0.00     0.079 C 
HETATM   14  N   UNL     1      44.007 -18.394   4.326  1.00  0.00    -0.245 NA
HETATM   15  C   UNL     1      44.192 -17.856   1.909  1.00  0.00     0.035 A 
HETATM   16  C   UNL     1      43.550 -17.341   0.775  1.00  0.00     0.032 A 
ENDBRANCH   1   7
BRANCH   3  17
HETATM   17  C   UNL     1      40.801 -12.787  -0.151  1.00  0.00     0.113 C 
HETATM   18  C   UNL     1      40.734 -11.923   1.116  1.00  0.00     0.257 C 
HETATM   19  N   UNL     1      42.091 -11.297   1.175  1.00  0.00    -0.073 N 
HETATM   20  H   UNL     1      42.153 -10.458   1.762  1.00  0.00     0.277 HD
HETATM   21  H   UNL     1      42.711 -12.017   1.610  1.00  0.00     0.277 HD
HETATM   22  C   UNL     1      42.582 -11.119  -0.224  1.00  0.00     0.234 C 
HETATM   23  C   UNL     1      41.618 -11.911  -1.098  1.00  0.00     0.054 C 
ENDBRANCH   3  17
TORSDOF 2
ENDMDL
MODEL 8
REMARK VINA RESULT:      -6.2      6.035      7.640
REMARK  2 active torsions:
REMARK  status: ('A' for Active; 'I' for Inactive)
REMARK    1  A    between atoms: C_8  and  N_9 
REMARK       I    between atoms: N_9  and  C_10 
REMARK       I    between atoms: C_10  and  N_11 
REMARK    2  A    between atoms: N_11  and  C_12 
ROOT
HETATM    1  N   UNL     1      42.748 -16.939   0.450  1.00  0.00    -0.309 N 
HETATM    2  C   UNL     1      41.683 -16.188   0.078  1.00  0.00     0.321 C 
HETATM    3  N   UNL     1      41.046 -15.468   1.039  1.00  0.00    -0.337 N 
HETATM    4  O   UNL     1      41.352 -16.121  -1.106  1.00  0.00    -0.247 OA
HETATM    5  H   UNL     1      43.304 -17.236  -0.348  1.00  0.00     0.170 HD
HETATM    6  H   UNL     1      41.616 -15.268   1.855  1.00  0.00     0.164 HD
ENDROOT
BRANCH   1   7
HETATM    7  C   UNL     1      43.146 -17.477   1.692  1.00  0.00     0.037 A 
HETATM    8  C   UNL     1      43.138 -16.757   2.894  1.00  0.00     0.051 A 
HETATM    9  C   UNL     1      43.510 -17.421   4.080  1.00  0.00     0.037 A 
HETATM   10  S   UNL     1      43.587 -16.806   5.689  1.00  0.00    -0.073 SA
HETATM   11  C   UNL     1      43.876 -18.766   4.096  1.00  0.00     0.075 A 
HETATM   12  C   UNL     1      44.088 -18.346   6.257  1.00  0.00     0.072 A 
HETATM   13  C   UNL     1      44.357 -18.575   7.704  1.00  0.00     0.079 C 
HETATM   14  N   UNL     1      44.208 -19.276   5.336  1.00  0.00    -0.245 NA
HETATM   15  C   UNL     1      43.863 -19.480   2.885  1.00  0.00     0.035 A 
HETATM   16  C   UNL     1      43.491 -18.832   1.701  1.00  0.00     0.032 A 
ENDBRANCH   1   7
BRANCH   3  17
HETATM   17  C   UNL     1      39.833 -14.658   0.864  1.00  0.00     0.113 C 
HETATM   18  C   UNL     1      38.884 -14.601   2.068  1.00  0.00     0.257 C 
HETATM   19  N   UNL     1      39.463 -13.507   2.908  1.00  0.00    -0.073 N 
HETATM   20  H   UNL     1      38.817 -13.103   3.594  1.00  0.00     0.277 HD
HETATM   21  H   UNL     1      40.239 -13.952   3.447  1.00  0.00     0.277 HD
HETATM   22  C   UNL     1      40.108 -12.515   1.997  1.00  0.00     0.234 C 
HETATM   23  C   UNL     1      40.151 -13.184   0.629  1.00  0.00     0.054 C 
ENDBRANCH   3  17
TORSDOF 2
ENDMDL
MODEL 9
REMARK VINA RESULT:      -6.0      5.822      7.120
REMARK  2 active torsions:
REMARK  status: ('A' for Active; 'I' for Inactive)
REMARK    1  A    between atoms: C_8  and  N_9 
REMARK       I    between atoms: N_9  and  C_10 
REMARK       I    between atoms: C_10  and  N_11 
REMARK    2  A    between atoms: N_11  and  C_12 
ROOT
HETATM    1  N   UNL     1      43.105 -18.920   2.000  1.00  0.00    -0.309 N 
HETATM    2  C   UNL     1      43.969 -19.513   2.860  1.00  0.00     0.321 C 
HETATM    3  N   UNL     1      43.983 -19.078   4.148  1.00  0.00    -0.337 N 
HETATM    4  O   UNL     1      44.668 -20.456   2.488  1.00  0.00    -0.247 OA
HETATM    5  H   UNL     1      42.983 -19.460   1.147  1.00  0.00     0.170 HD
HETATM    6  H   UNL     1      43.127 -18.618   4.441  1.00  0.00     0.164 HD
ENDROOT
BRANCH   1   7
HETATM    7  C   UNL     1      42.461 -17.665   2.013  1.00  0.00     0.037 A 
HETATM    8  C   UNL     1      43.060 -16.484   2.472  1.00  0.00     0.051 A 
HETATM    9  C   UNL     1      42.329 -15.281   2.386  1.00  0.00     0.037 A 
HETATM   10  S   UNL     1      42.801 -13.691   2.857  1.00  0.00    -0.073 SA
HETATM   11  C   UNL     1      41.043 -15.228   1.854  1.00  0.00     0.075 A 
HETATM   12  C   UNL     1      41.288 -13.081   2.325  1.00  0.00     0.072 A 
HETATM   13  C   UNL     1      40.971 -11.630   2.429  1.00  0.00     0.079 C 
HETATM   14  N   UNL     1      40.460 -13.976   1.831  1.00  0.00    -0.245 NA
HETATM   15  C   UNL     1      40.462 -16.418   1.381  1.00  0.00     0.035 A 
HETATM   16  C   UNL     1      41.179 -17.619   1.458  1.00  0.00     0.032 A 
ENDBRANCH   1   7
BRANCH   3  17
HETATM   17  C   UNL     1      44.891 -19.528   5.211  1.00  0.00     0.113 C 
HETATM   18  C   UNL     1      45.145 -18.527   6.346  1.00  0.00     0.257 C 
HETATM   19  N   UNL     1      43.989 -18.756   7.268  1.00  0.00    -0.073 N 
HETATM   20  H   UNL     1      44.128 -18.415   8.226  1.00  0.00     0.277 HD
HETATM   21  H   UNL     1      43.197 -18.209   6.863  1.00  0.00     0.277 HD
HETATM   22  C   UNL     1      43.593 -20.192   7.169  1.00  0.00     0.234 C 
HETATM   23  C   UNL     1      44.346 -20.740   5.962  1.00  0.00     0.054 C 
ENDBRANCH   3  17
TORSDOF 2
ENDMDL
MODEL 10
REMARK VINA RESULT:      -6.0      3.928      7.929
REMARK  2 active torsions:
REMARK  status: ('A' for Active; 'I' for Inactive)
REMARK    1  A    between atoms: C_8  and  N_9 
REMARK       I    between atoms: N_9  and  C_10 
REMARK       I    between atoms: C_10  and  N_11 
REMARK    2  A    between atoms: N_11  and  C_12 
ROOT
HETATM    1  N   UNL     1      39.256 -11.220   7.571  1.00  0.00    -0.309 N 
HETATM    2  C   UNL     1      39.547 -11.980   6.487  1.00  0.00     0.321 C 
HETATM    3  N   UNL     1      40.564 -12.876   6.593  1.00  0.00    -0.337 N 
HETATM    4  O   UNL     1      38.864 -11.895   5.465  1.00  0.00    -0.247 OA
HETATM    5  H   UNL     1      38.347 -10.771   7.490  1.00  0.00     0.170 HD
HETATM    6  H   UNL     1      40.775 -13.154   7.546  1.00  0.00     0.164 HD
ENDROOT
BRANCH   1   7
HETATM    7  C   UNL     1      40.012 -10.845   8.701  1.00  0.00     0.037 A 
HETATM    8  C   UNL     1      39.754 -11.300  10.000  1.00  0.00     0.051 A 
HETATM    9  C   UNL     1      40.614 -10.892  11.041  1.00  0.00     0.037 A 
HETATM   10  S   UNL     1      40.554 -11.292  12.716  1.00  0.00    -0.073 SA
HETATM   11  C   UNL     1      41.712 -10.064  10.816  1.00  0.00     0.075 A 
HETATM   12  C   UNL     1      41.961 -10.350  12.995  1.00  0.00     0.072 A 
HETATM   13  C   UNL     1      42.546 -10.238  14.360  1.00  0.00     0.079 C 
HETATM   14  N   UNL     1      42.463  -9.758  11.934  1.00  0.00    -0.245 NA
HETATM   15  C   UNL     1      41.969  -9.629   9.504  1.00  0.00     0.035 A 
HETATM   16  C   UNL     1      41.123 -10.030   8.462  1.00  0.00     0.032 A 
ENDBRANCH   1   7
BRANCH   3  17
HETATM   17  C   UNL     1      41.088 -13.733   5.522  1.00  0.00     0.113 C 
HETATM   18  C   UNL     1      42.519 -14.252   5.716  1.00  0.00     0.257 C 
HETATM   19  N   UNL     1      42.329 -15.470   6.564  1.00  0.00    -0.073 N 
HETATM   20  H   UNL     1      43.114 -16.130   6.552  1.00  0.00     0.277 HD
HETATM   21  H   UNL     1      42.245 -15.117   7.543  1.00  0.00     0.277 HD
HETATM   22  C   UNL     1      41.003 -16.069   6.226  1.00  0.00     0.234 C 
HETATM   23  C   UNL     1      40.291 -15.026   5.373  1.00  0.00     0.054 C 
ENDBRANCH   3  17
TORSDOF 2
ENDMDL
