MODEL 1
REMARK VINA RESULT:      -7.8      0.000      0.000
REMARK  5 active torsions:
REMARK  status: ('A' for Active; 'I' for Inactive)
REMARK    1  A    between atoms: C_2  and  C_3 
REMARK    2  A    between atoms: C_2  and  C_20 
REMARK       I    between atoms: C_3  and  N_4 
REMARK    3  A    between atoms: N_4  and  C_5 
REMARK    4  A    between atoms: C_8  and  O_9 
REMARK    5  A    between atoms: O_9  and  C_10 
ROOT
HETATM    1  C   UNL     1      41.971 -16.876   0.637  1.00  0.00     0.052 A 
HETATM    2  C   UNL     1      41.347 -17.235   1.830  1.00  0.00     0.149 A 
HETATM    3  N   UNL     1      41.987 -17.802   2.886  1.00  0.00    -0.235 NA
HETATM    4  C   UNL     1      43.313 -18.016   2.753  1.00  0.00     0.169 A 
HETATM    5  C   UNL     1      44.028 -17.688   1.613  1.00  0.00     0.060 A 
HETATM    6  C   UNL     1      43.343 -17.121   0.539  1.00  0.00     0.035 A 
ENDROOT
BRANCH   1   7
HETATM    7  N   UNL     1      41.330 -16.296  -0.479  1.00  0.00    -0.325 N 
HETATM    8  C   UNL     1      41.297 -14.949  -0.807  1.00  0.00     0.231 C 
HETATM    9  O   UNL     1      41.889 -14.075  -0.183  1.00  0.00    -0.272 OA
HETATM   10  H   UNL     1      40.898 -16.946  -1.122  1.00  0.00     0.169 HD
BRANCH   8  11
HETATM   11  C   UNL     1      40.509 -14.630  -2.097  1.00  0.00     0.046 C 
HETATM   12  C   UNL     1      41.216 -13.462  -2.815  1.00  0.00     0.026 C 
HETATM   13  C   UNL     1      40.466 -15.846  -3.040  1.00  0.00     0.026 C 
BRANCH  11  14
HETATM   14  C   UNL     1      39.081 -14.157  -1.735  1.00  0.00     0.133 C 
HETATM   15 CL   UNL     1      37.826 -14.657  -2.905  1.00  0.00    -0.129 Cl
ENDBRANCH  11  14
ENDBRANCH   8  11
ENDBRANCH   1   7
BRANCH   4  16
HETATM   16  O   UNL     1      44.048 -18.574   3.796  1.00  0.00    -0.289 OA
BRANCH  16  17
HETATM   17  C   UNL     1      44.224 -19.934   3.763  1.00  0.00     0.116 A 
HETATM   18  C   UNL     1      44.611 -20.592   4.927  1.00  0.00     0.150 A 
HETATM   19  F   UNL     1      44.759 -19.911   6.074  1.00  0.00    -0.203 F 
HETATM   20  C   UNL     1      44.860 -21.962   4.917  1.00  0.00     0.045 A 
HETATM   21  C   UNL     1      44.735 -22.677   3.724  1.00  0.00     0.003 A 
HETATM   22  C   UNL     1      44.367 -22.018   2.549  1.00  0.00     0.003 A 
HETATM   23  C   UNL     1      44.119 -20.643   2.564  1.00  0.00     0.040 A 
ENDBRANCH  16  17
ENDBRANCH   4  16
TORSDOF 5
ENDMDL
MODEL 2
REMARK VINA RESULT:      -7.5      1.602      2.185
REMARK  5 active torsions:
REMARK  status: ('A' for Active; 'I' for Inactive)
REMARK    1  A    between atoms: C_2  and  C_3 
REMARK    2  A    between atoms: C_2  and  C_20 
REMARK       I    between atoms: C_3  and  N_4 
REMARK    3  A    between atoms: N_4  and  C_5 
REMARK    4  A    between atoms: C_8  and  O_9 
REMARK    5  A    between atoms: O_9  and  C_10 
ROOT
HETATM    1  C   UNL     1      41.082 -16.135   1.471  1.00  0.00     0.052 A 
HETATM    2  C   UNL     1      40.973 -16.773   2.704  1.00  0.00     0.149 A 
HETATM    3  N   UNL     1      41.977 -17.474   3.293  1.00  0.00    -0.235 NA
HETATM    4  C   UNL     1      43.149 -17.539   2.627  1.00  0.00     0.169 A 
HETATM    5  C   UNL     1      43.362 -16.934   1.399  1.00  0.00     0.060 A 
HETATM    6  C   UNL     1      42.310 -16.232   0.812  1.00  0.00     0.035 A 
ENDROOT
BRANCH   1   7
HETATM    7  N   UNL     1      40.054 -15.409   0.831  1.00  0.00    -0.325 N 
HETATM    8  C   UNL     1      39.775 -14.060   0.984  1.00  0.00     0.231 C 
HETATM    9  O   UNL     1      40.445 -13.292   1.667  1.00  0.00    -0.272 OA
HETATM   10  H   UNL     1      39.504 -15.928   0.159  1.00  0.00     0.169 HD
BRANCH   8  11
HETATM   11  C   UNL     1      38.579 -13.560   0.144  1.00  0.00     0.046 C 
HETATM   12  C   UNL     1      37.294 -14.198   0.710  1.00  0.00     0.026 C 
HETATM   13  C   UNL     1      38.450 -12.027   0.211  1.00  0.00     0.026 C 
BRANCH  11  14
HETATM   14  C   UNL     1      38.731 -14.040  -1.319  1.00  0.00     0.133 C 
HETATM   15 CL   UNL     1      40.141 -13.351  -2.173  1.00  0.00    -0.129 Cl
ENDBRANCH  11  14
ENDBRANCH   8  11
ENDBRANCH   1   7
BRANCH   4  16
HETATM   16  O   UNL     1      44.235 -18.220   3.169  1.00  0.00    -0.289 OA
BRANCH  16  17
HETATM   17  C   UNL     1      44.210 -19.588   3.074  1.00  0.00     0.116 A 
HETATM   18  C   UNL     1      44.738 -20.346   4.115  1.00  0.00     0.150 A 
HETATM   19  F   UNL     1      45.215 -19.746   5.217  1.00  0.00    -0.203 F 
HETATM   20  C   UNL     1      44.787 -21.735   4.027  1.00  0.00     0.045 A 
HETATM   21  C   UNL     1      44.317 -22.370   2.876  1.00  0.00     0.003 A 
HETATM   22  C   UNL     1      43.806 -21.613   1.819  1.00  0.00     0.003 A 
HETATM   23  C   UNL     1      43.759 -20.220   1.912  1.00  0.00     0.040 A 
ENDBRANCH  16  17
ENDBRANCH   4  16
TORSDOF 5
ENDMDL
MODEL 3
REMARK VINA RESULT:      -7.3      2.021      2.864
REMARK  5 active torsions:
REMARK  status: ('A' for Active; 'I' for Inactive)
REMARK    1  A    between atoms: C_2  and  C_3 
REMARK    2  A    between atoms: C_2  and  C_20 
REMARK       I    between atoms: C_3  and  N_4 
REMARK    3  A    between atoms: N_4  and  C_5 
REMARK    4  A    between atoms: C_8  and  O_9 
REMARK    5  A    between atoms: O_9  and  C_10 
ROOT
HETATM    1  C   UNL     1      42.309 -17.062   0.980  1.00  0.00     0.052 A 
HETATM    2  C   UNL     1      41.590 -17.435   2.114  1.00  0.00     0.149 A 
HETATM    3  N   UNL     1      42.108 -18.157   3.144  1.00  0.00    -0.235 NA
HETATM    4  C   UNL     1      43.403 -18.520   3.044  1.00  0.00     0.169 A 
HETATM    5  C   UNL     1      44.206 -18.194   1.964  1.00  0.00     0.060 A 
HETATM    6  C   UNL     1      43.646 -17.464   0.915  1.00  0.00     0.035 A 
ENDROOT
BRANCH   1   7
HETATM    7  N   UNL     1      41.796 -16.322  -0.107  1.00  0.00    -0.325 N 
HETATM    8  C   UNL     1      41.574 -14.954  -0.146  1.00  0.00     0.231 C 
HETATM    9  O   UNL     1      41.862 -14.184   0.765  1.00  0.00    -0.272 OA
HETATM   10  H   UNL     1      41.624 -16.849  -0.952  1.00  0.00     0.169 HD
BRANCH   8  11
HETATM   11  C   UNL     1      41.002 -14.443  -1.487  1.00  0.00     0.046 C 
HETATM   12  C   UNL     1      40.947 -15.630  -2.470  1.00  0.00     0.026 C 
HETATM   13  C   UNL     1      39.583 -13.874  -1.307  1.00  0.00     0.026 C 
BRANCH  11  14
HETATM   14  C   UNL     1      41.953 -13.382  -2.091  1.00  0.00     0.133 C 
HETATM   15 CL   UNL     1      41.483 -12.823  -3.722  1.00  0.00    -0.129 Cl
ENDBRANCH  11  14
ENDBRANCH   8  11
ENDBRANCH   1   7
BRANCH   4  16
HETATM   16  O   UNL     1      44.016 -19.243   4.063  1.00  0.00    -0.289 OA
BRANCH  16  17
HETATM   17  C   UNL     1      43.964 -18.696   5.320  1.00  0.00     0.116 A 
HETATM   18  C   UNL     1      43.841 -19.541   6.419  1.00  0.00     0.150 A 
HETATM   19  F   UNL     1      43.824 -20.872   6.253  1.00  0.00    -0.203 F 
HETATM   20  C   UNL     1      43.722 -19.019   7.704  1.00  0.00     0.045 A 
HETATM   21  C   UNL     1      43.712 -17.635   7.889  1.00  0.00     0.003 A 
HETATM   22  C   UNL     1      43.815 -16.782   6.787  1.00  0.00     0.003 A 
HETATM   23  C   UNL     1      43.933 -17.310   5.500  1.00  0.00     0.040 A 
ENDBRANCH  16  17
ENDBRANCH   4  16
TORSDOF 5
ENDMDL
MODEL 4
REMARK VINA RESULT:      -7.2      4.145      4.906
REMARK  5 active torsions:
REMARK  status: ('A' for Active; 'I' for Inactive)
REMARK    1  A    between atoms: C_2  and  C_3 
REMARK    2  A    between atoms: C_2  and  C_20 
REMARK       I    between atoms: C_3  and  N_4 
REMARK    3  A    between atoms: N_4  and  C_5 
REMARK    4  A    between atoms: C_8  and  O_9 
REMARK    5  A    between atoms: O_9  and  C_10 
ROOT
HETATM    1  C   UNL     1      42.051 -16.011   3.247  1.00  0.00     0.052 A 
HETATM    2  C   UNL     1      41.625 -17.316   3.485  1.00  0.00     0.149 A 
HETATM    3  N   UNL     1      42.304 -18.425   3.091  1.00  0.00    -0.235 NA
HETATM    4  C   UNL     1      43.466 -18.229   2.434  1.00  0.00     0.169 A 
HETATM    5  C   UNL     1      43.981 -16.974   2.154  1.00  0.00     0.060 A 
HETATM    6  C   UNL     1      43.256 -15.853   2.559  1.00  0.00     0.035 A 
ENDROOT
BRANCH   1   7
HETATM    7  N   UNL     1      41.363 -14.841   3.636  1.00  0.00    -0.325 N 
HETATM    8  C   UNL     1      41.492 -14.166   4.839  1.00  0.00     0.231 C 
HETATM    9  O   UNL     1      42.290 -14.474   5.719  1.00  0.00    -0.272 OA
HETATM   10  H   UNL     1      40.754 -14.439   2.935  1.00  0.00     0.169 HD
BRANCH   8  11
HETATM   11  C   UNL     1      40.596 -12.913   4.963  1.00  0.00     0.046 C 
HETATM   12  C   UNL     1      39.887 -12.695   3.610  1.00  0.00     0.026 C 
HETATM   13  C   UNL     1      39.535 -13.092   6.063  1.00  0.00     0.026 C 
BRANCH  11  14
HETATM   14  C   UNL     1      41.473 -11.667   5.234  1.00  0.00     0.133 C 
HETATM   15 CL   UNL     1      41.369 -11.050   6.908  1.00  0.00    -0.129 Cl
ENDBRANCH  11  14
ENDBRANCH   8  11
ENDBRANCH   1   7
BRANCH   4  16
HETATM   16  O   UNL     1      44.233 -19.311   2.014  1.00  0.00    -0.289 OA
BRANCH  16  17
HETATM   17  C   UNL     1      44.464 -20.296   2.940  1.00  0.00     0.116 A 
HETATM   18  C   UNL     1      44.407 -21.628   2.538  1.00  0.00     0.150 A 
HETATM   19  F   UNL     1      44.180 -21.938   1.252  1.00  0.00    -0.203 F 
HETATM   20  C   UNL     1      44.573 -22.655   3.462  1.00  0.00     0.045 A 
HETATM   21  C   UNL     1      44.783 -22.345   4.808  1.00  0.00     0.003 A 
HETATM   22  C   UNL     1      44.821 -21.012   5.220  1.00  0.00     0.003 A 
HETATM   23  C   UNL     1      44.652 -19.984   4.289  1.00  0.00     0.040 A 
ENDBRANCH  16  17
ENDBRANCH   4  16
TORSDOF 5
ENDMDL
MODEL 5
REMARK VINA RESULT:      -7.1      3.921      8.379
REMARK  5 active torsions:
REMARK  status: ('A' for Active; 'I' for Inactive)
REMARK    1  A    between atoms: C_2  and  C_3 
REMARK    2  A    between atoms: C_2  and  C_20 
REMARK       I    between atoms: C_3  and  N_4 
REMARK    3  A    between atoms: N_4  and  C_5 
REMARK    4  A    between atoms: C_8  and  O_9 
REMARK    5  A    between atoms: O_9  and  C_10 
ROOT
HETATM    1  C   UNL     1      42.726 -17.124   2.814  1.00  0.00     0.052 A 
HETATM    2  C   UNL     1      41.981 -16.002   3.172  1.00  0.00     0.149 A 
HETATM    3  N   UNL     1      41.210 -15.289   2.309  1.00  0.00    -0.235 NA
HETATM    4  C   UNL     1      41.172 -15.716   1.029  1.00  0.00     0.169 A 
HETATM    5  C   UNL     1      41.867 -16.823   0.574  1.00  0.00     0.060 A 
HETATM    6  C   UNL     1      42.662 -17.528   1.478  1.00  0.00     0.035 A 
ENDROOT
BRANCH   1   7
HETATM    7  N   UNL     1      43.541 -17.878   3.685  1.00  0.00    -0.325 N 
HETATM    8  C   UNL     1      43.152 -18.476   4.873  1.00  0.00     0.231 C 
HETATM    9  O   UNL     1      42.001 -18.478   5.298  1.00  0.00    -0.272 OA
HETATM   10  H   UNL     1      44.491 -18.029   3.373  1.00  0.00     0.169 HD
BRANCH   8  11
HETATM   11  C   UNL     1      44.284 -19.234   5.602  1.00  0.00     0.046 C 
HETATM   12  C   UNL     1      45.298 -18.195   6.125  1.00  0.00     0.026 C 
HETATM   13  C   UNL     1      43.737 -20.045   6.791  1.00  0.00     0.026 C 
BRANCH  11  14
HETATM   14  C   UNL     1      45.030 -20.149   4.603  1.00  0.00     0.133 C 
HETATM   15 CL   UNL     1      44.971 -21.887   5.017  1.00  0.00    -0.129 Cl
ENDBRANCH  11  14
ENDBRANCH   8  11
ENDBRANCH   1   7
BRANCH   4  16
HETATM   16  O   UNL     1      40.391 -15.055   0.086  1.00  0.00    -0.289 OA
BRANCH  16  17
HETATM   17  C   UNL     1      41.061 -14.312  -0.853  1.00  0.00     0.116 A 
HETATM   18  C   UNL     1      41.070 -14.745  -2.176  1.00  0.00     0.150 A 
HETATM   19  F   UNL     1      40.389 -15.845  -2.533  1.00  0.00    -0.203 F 
HETATM   20  C   UNL     1      41.791 -14.052  -3.144  1.00  0.00     0.045 A 
HETATM   21  C   UNL     1      42.524 -12.920  -2.779  1.00  0.00     0.003 A 
HETATM   22  C   UNL     1      42.536 -12.493  -1.450  1.00  0.00     0.003 A 
HETATM   23  C   UNL     1      41.812 -13.193  -0.481  1.00  0.00     0.040 A 
ENDBRANCH  16  17
ENDBRANCH   4  16
TORSDOF 5
ENDMDL
MODEL 6
REMARK VINA RESULT:      -7.0      2.714      3.328
REMARK  5 active torsions:
REMARK  status: ('A' for Active; 'I' for Inactive)
REMARK    1  A    between atoms: C_2  and  C_3 
REMARK    2  A    between atoms: C_2  and  C_20 
REMARK       I    between atoms: C_3  and  N_4 
REMARK    3  A    between atoms: N_4  and  C_5 
REMARK    4  A    between atoms: C_8  and  O_9 
REMARK    5  A    between atoms: O_9  and  C_10 
ROOT
HETATM    1  C   UNL     1      41.837 -15.519   0.745  1.00  0.00     0.052 A 
HETATM    2  C   UNL     1      42.249 -14.910   1.929  1.00  0.00     0.149 A 
HETATM    3  N   UNL     1      42.167 -15.491   3.155  1.00  0.00    -0.235 NA
HETATM    4  C   UNL     1      41.656 -16.739   3.207  1.00  0.00     0.169 A 
HETATM    5  C   UNL     1      41.225 -17.433   2.089  1.00  0.00     0.060 A 
HETATM    6  C   UNL     1      41.309 -16.808   0.845  1.00  0.00     0.035 A 
ENDROOT
BRANCH   1   7
HETATM    7  N   UNL     1      41.902 -14.937  -0.540  1.00  0.00    -0.325 N 
HETATM    8  C   UNL     1      41.086 -13.933  -1.036  1.00  0.00     0.231 C 
HETATM    9  O   UNL     1      40.219 -13.363  -0.381  1.00  0.00    -0.272 OA
HETATM   10  H   UNL     1      42.657 -15.262  -1.129  1.00  0.00     0.169 HD
BRANCH   8  11
HETATM   11  C   UNL     1      41.411 -13.511  -2.486  1.00  0.00     0.046 C 
HETATM   12  C   UNL     1      41.402 -14.776  -3.368  1.00  0.00     0.026 C 
HETATM   13  C   UNL     1      40.367 -12.516  -3.025  1.00  0.00     0.026 C 
BRANCH  11  14
HETATM   14  C   UNL     1      42.835 -12.909  -2.550  1.00  0.00     0.133 C 
HETATM   15 CL   UNL     1      43.113 -11.565  -1.406  1.00  0.00    -0.129 Cl
ENDBRANCH  11  14
ENDBRANCH   8  11
ENDBRANCH   1   7
BRANCH   4  16
HETATM   16  O   UNL     1      41.555 -17.412   4.420  1.00  0.00    -0.289 OA
BRANCH  16  17
HETATM   17  C   UNL     1      42.733 -17.705   5.059  1.00  0.00     0.116 A 
HETATM   18  C   UNL     1      43.135 -16.912   6.130  1.00  0.00     0.150 A 
HETATM   19  F   UNL     1      42.355 -15.908   6.561  1.00  0.00    -0.203 F 
HETATM   20  C   UNL     1      44.355 -17.140   6.762  1.00  0.00     0.045 A 
HETATM   21  C   UNL     1      45.187 -18.164   6.307  1.00  0.00     0.003 A 
HETATM   22  C   UNL     1      44.798 -18.950   5.219  1.00  0.00     0.003 A 
HETATM   23  C   UNL     1      43.574 -18.717   4.588  1.00  0.00     0.040 A 
ENDBRANCH  16  17
ENDBRANCH   4  16
TORSDOF 5
ENDMDL
MODEL 7
REMARK VINA RESULT:      -7.0      4.002      8.365
REMARK  5 active torsions:
REMARK  status: ('A' for Active; 'I' for Inactive)
REMARK    1  A    between atoms: C_2  and  C_3 
REMARK    2  A    between atoms: C_2  and  C_20 
REMARK       I    between atoms: C_3  and  N_4 
REMARK    3  A    between atoms: N_4  and  C_5 
REMARK    4  A    between atoms: C_8  and  O_9 
REMARK    5  A    between atoms: O_9  and  C_10 
ROOT
HETATM    1  C   UNL     1      42.703 -16.992   3.004  1.00  0.00     0.052 A 
HETATM    2  C   UNL     1      42.522 -15.612   3.050  1.00  0.00     0.149 A 
HETATM    3  N   UNL     1      41.743 -14.913   2.182  1.00  0.00    -0.235 NA
HETATM    4  C   UNL     1      41.108 -15.623   1.226  1.00  0.00     0.169 A 
HETATM    5  C   UNL     1      41.214 -16.998   1.099  1.00  0.00     0.060 A 
HETATM    6  C   UNL     1      42.031 -17.687   1.995  1.00  0.00     0.035 A 
ENDROOT
BRANCH   1   7
HETATM    7  N   UNL     1      43.512 -17.742   3.885  1.00  0.00    -0.325 N 
HETATM    8  C   UNL     1      43.212 -18.087   5.193  1.00  0.00     0.231 C 
HETATM    9  O   UNL     1      42.148 -17.830   5.746  1.00  0.00    -0.272 OA
HETATM   10  H   UNL     1      44.373 -18.098   3.491  1.00  0.00     0.169 HD
BRANCH   8  11
HETATM   11  C   UNL     1      44.309 -18.916   5.898  1.00  0.00     0.046 C 
HETATM   12  C   UNL     1      44.881 -19.921   4.878  1.00  0.00     0.026 C 
HETATM   13  C   UNL     1      45.449 -18.015   6.408  1.00  0.00     0.026 C 
BRANCH  11  14
HETATM   14  C   UNL     1      43.687 -19.731   7.056  1.00  0.00     0.133 C 
HETATM   15 CL   UNL     1      43.785 -21.502   6.839  1.00  0.00    -0.129 Cl
ENDBRANCH  11  14
ENDBRANCH   8  11
ENDBRANCH   1   7
BRANCH   4  16
HETATM   16  O   UNL     1      40.275 -14.988   0.310  1.00  0.00    -0.289 OA
BRANCH  16  17
HETATM   17  C   UNL     1      40.854 -14.576  -0.864  1.00  0.00     0.116 A 
HETATM   18  C   UNL     1      41.417 -13.305  -0.929  1.00  0.00     0.150 A 
HETATM   19  F   UNL     1      41.437 -12.515   0.156  1.00  0.00    -0.203 F 
HETATM   20  C   UNL     1      41.958 -12.829  -2.120  1.00  0.00     0.045 A 
HETATM   21  C   UNL     1      41.921 -13.631  -3.263  1.00  0.00     0.003 A 
HETATM   22  C   UNL     1      41.339 -14.899  -3.209  1.00  0.00     0.003 A 
HETATM   23  C   UNL     1      40.796 -15.372  -2.011  1.00  0.00     0.040 A 
ENDBRANCH  16  17
ENDBRANCH   4  16
TORSDOF 5
ENDMDL
MODEL 8
REMARK VINA RESULT:      -6.8      4.317      8.385
REMARK  5 active torsions:
REMARK  status: ('A' for Active; 'I' for Inactive)
REMARK    1  A    between atoms: C_2  and  C_3 
REMARK    2  A    between atoms: C_2  and  C_20 
REMARK       I    between atoms: C_3  and  N_4 
REMARK    3  A    between atoms: N_4  and  C_5 
REMARK    4  A    between atoms: C_8  and  O_9 
REMARK    5  A    between atoms: O_9  and  C_10 
ROOT
HETATM    1  C   UNL     1      41.332 -15.765   2.315  1.00  0.00     0.052 A 
HETATM    2  C   UNL     1      40.811 -14.485   2.144  1.00  0.00     0.149 A 
HETATM    3  N   UNL     1      40.668 -13.873   0.939  1.00  0.00    -0.235 NA
HETATM    4  C   UNL     1      41.057 -14.570  -0.150  1.00  0.00     0.169 A 
HETATM    5  C   UNL     1      41.580 -15.851  -0.088  1.00  0.00     0.060 A 
HETATM    6  C   UNL     1      41.727 -16.449   1.163  1.00  0.00     0.035 A 
ENDROOT
BRANCH   1   7
HETATM    7  N   UNL     1      41.501 -16.422   3.554  1.00  0.00    -0.325 N 
HETATM    8  C   UNL     1      42.515 -16.206   4.474  1.00  0.00     0.231 C 
HETATM    9  O   UNL     1      43.383 -15.348   4.353  1.00  0.00    -0.272 OA
HETATM   10  H   UNL     1      40.773 -17.078   3.803  1.00  0.00     0.169 HD
BRANCH   8  11
HETATM   11  C   UNL     1      42.421 -17.088   5.739  1.00  0.00     0.046 C 
HETATM   12  C   UNL     1      41.032 -16.869   6.375  1.00  0.00     0.026 C 
HETATM   13  C   UNL     1      42.586 -18.579   5.394  1.00  0.00     0.026 C 
BRANCH  11  14
HETATM   14  C   UNL     1      43.481 -16.637   6.772  1.00  0.00     0.133 C 
HETATM   15 CL   UNL     1      45.030 -17.520   6.663  1.00  0.00    -0.129 Cl
ENDBRANCH  11  14
ENDBRANCH   8  11
ENDBRANCH   1   7
BRANCH   4  16
HETATM   16  O   UNL     1      40.926 -14.024  -1.423  1.00  0.00    -0.289 OA
BRANCH  16  17
HETATM   17  C   UNL     1      39.915 -14.525  -2.204  1.00  0.00     0.116 A 
HETATM   18  C   UNL     1      40.225 -15.451  -3.196  1.00  0.00     0.150 A 
HETATM   19  F   UNL     1      41.485 -15.885  -3.350  1.00  0.00    -0.203 F 
HETATM   20  C   UNL     1      39.235 -15.934  -4.048  1.00  0.00     0.045 A 
HETATM   21  C   UNL     1      37.924 -15.472  -3.916  1.00  0.00     0.003 A 
HETATM   22  C   UNL     1      37.612 -14.526  -2.936  1.00  0.00     0.003 A 
HETATM   23  C   UNL     1      38.608 -14.045  -2.083  1.00  0.00     0.040 A 
ENDBRANCH  16  17
ENDBRANCH   4  16
TORSDOF 5
ENDMDL
MODEL 9
REMARK VINA RESULT:      -6.7      2.413      3.073
REMARK  5 active torsions:
REMARK  status: ('A' for Active; 'I' for Inactive)
REMARK    1  A    between atoms: C_2  and  C_3 
REMARK    2  A    between atoms: C_2  and  C_20 
REMARK       I    between atoms: C_3  and  N_4 
REMARK    3  A    between atoms: N_4  and  C_5 
REMARK    4  A    between atoms: C_8  and  O_9 
REMARK    5  A    between atoms: O_9  and  C_10 
ROOT
HETATM    1  C   UNL     1      41.803 -15.596   0.712  1.00  0.00     0.052 A 
HETATM    2  C   UNL     1      41.557 -16.967   0.727  1.00  0.00     0.149 A 
HETATM    3  N   UNL     1      41.517 -17.723   1.856  1.00  0.00    -0.235 NA
HETATM    4  C   UNL     1      41.725 -17.085   3.027  1.00  0.00     0.169 A 
HETATM    5  C   UNL     1      41.969 -15.725   3.121  1.00  0.00     0.060 A 
HETATM    6  C   UNL     1      42.019 -14.975   1.945  1.00  0.00     0.035 A 
ENDROOT
BRANCH   1   7
HETATM    7  N   UNL     1      41.860 -14.787  -0.444  1.00  0.00    -0.325 N 
HETATM    8  C   UNL     1      40.803 -14.112  -1.034  1.00  0.00     0.231 C 
HETATM    9  O   UNL     1      39.665 -14.081  -0.578  1.00  0.00    -0.272 OA
HETATM   10  H   UNL     1      42.781 -14.657  -0.842  1.00  0.00     0.169 HD
BRANCH   8  11
HETATM   11  C   UNL     1      41.190 -13.309  -2.296  1.00  0.00     0.046 C 
HETATM   12  C   UNL     1      42.642 -12.817  -2.126  1.00  0.00     0.026 C 
HETATM   13  C   UNL     1      41.100 -14.180  -3.562  1.00  0.00     0.026 C 
BRANCH  11  14
HETATM   14  C   UNL     1      40.287 -12.058  -2.418  1.00  0.00     0.133 C 
HETATM   15 CL   UNL     1      40.656 -10.771  -1.235  1.00  0.00    -0.129 Cl
ENDBRANCH  11  14
ENDBRANCH   8  11
ENDBRANCH   1   7
BRANCH   4  16
HETATM   16  O   UNL     1      41.681 -17.782   4.230  1.00  0.00    -0.289 OA
BRANCH  16  17
HETATM   17  C   UNL     1      42.849 -17.844   4.946  1.00  0.00     0.116 A 
HETATM   18  C   UNL     1      43.798 -18.804   4.607  1.00  0.00     0.150 A 
HETATM   19  F   UNL     1      43.592 -19.621   3.562  1.00  0.00    -0.203 F 
HETATM   20  C   UNL     1      44.968 -18.939   5.350  1.00  0.00     0.045 A 
HETATM   21  C   UNL     1      45.182 -18.112   6.455  1.00  0.00     0.003 A 
HETATM   22  C   UNL     1      44.224 -17.161   6.812  1.00  0.00     0.003 A 
HETATM   23  C   UNL     1      43.051 -17.030   6.064  1.00  0.00     0.040 A 
ENDBRANCH  16  17
ENDBRANCH   4  16
TORSDOF 5
ENDMDL
MODEL 10
REMARK VINA RESULT:      -6.6      4.440      8.371
REMARK  5 active torsions:
REMARK  status: ('A' for Active; 'I' for Inactive)
REMARK    1  A    between atoms: C_2  and  C_3 
REMARK    2  A    between atoms: C_2  and  C_20 
REMARK       I    between atoms: C_3  and  N_4 
REMARK    3  A    between atoms: N_4  and  C_5 
REMARK    4  A    between atoms: C_8  and  O_9 
REMARK    5  A    between atoms: O_9  and  C_10 
ROOT
HETATM    1  C   UNL     1      41.358 -15.786   2.144  1.00  0.00     0.052 A 
HETATM    2  C   UNL     1      41.018 -14.455   1.913  1.00  0.00     0.149 A 
HETATM    3  N   UNL     1      40.943 -13.889   0.679  1.00  0.00    -0.235 NA
HETATM    4  C   UNL     1      41.212 -14.686  -0.376  1.00  0.00     0.169 A 
HETATM    5  C   UNL     1      41.551 -16.023  -0.255  1.00  0.00     0.060 A 
HETATM    6  C   UNL     1      41.634 -16.575   1.024  1.00  0.00     0.035 A 
ENDROOT
BRANCH   1   7
HETATM    7  N   UNL     1      41.453 -16.398   3.412  1.00  0.00    -0.325 N 
HETATM    8  C   UNL     1      42.450 -16.199   4.355  1.00  0.00     0.231 C 
HETATM    9  O   UNL     1      43.368 -15.396   4.226  1.00  0.00    -0.272 OA
HETATM   10  H   UNL     1      40.683 -17.003   3.664  1.00  0.00     0.169 HD
BRANCH   8  11
HETATM   11  C   UNL     1      42.270 -17.021   5.651  1.00  0.00     0.046 C 
HETATM   12  C   UNL     1      40.838 -16.784   6.175  1.00  0.00     0.026 C 
HETATM   13  C   UNL     1      42.467 -18.525   5.390  1.00  0.00     0.026 C 
BRANCH  11  14
HETATM   14  C   UNL     1      43.251 -16.513   6.733  1.00  0.00     0.133 C 
HETATM   15 CL   UNL     1      44.844 -17.322   6.715  1.00  0.00    -0.129 Cl
ENDBRANCH  11  14
ENDBRANCH   8  11
ENDBRANCH   1   7
BRANCH   4  16
HETATM   16  O   UNL     1      41.138 -14.190  -1.674  1.00  0.00    -0.289 OA
BRANCH  16  17
HETATM   17  C   UNL     1      40.081 -14.621  -2.436  1.00  0.00     0.116 A 
HETATM   18  C   UNL     1      38.833 -14.033  -2.251  1.00  0.00     0.150 A 
HETATM   19  F   UNL     1      38.680 -13.026  -1.377  1.00  0.00    -0.203 F 
HETATM   20  C   UNL     1      37.724 -14.487  -2.960  1.00  0.00     0.045 A 
HETATM   21  C   UNL     1      37.864 -15.551  -3.853  1.00  0.00     0.003 A 
HETATM   22  C   UNL     1      39.110 -16.158  -4.028  1.00  0.00     0.003 A 
HETATM   23  C   UNL     1      40.220 -15.700  -3.313  1.00  0.00     0.040 A 
ENDBRANCH  16  17
ENDBRANCH   4  16
TORSDOF 5
ENDMDL
