MODEL 1
REMARK VINA RESULT:      -8.8      0.000      0.000
REMARK  5 active torsions:
REMARK  status: ('A' for Active; 'I' for Inactive)
REMARK    1  A    between atoms: N_1  and  C_2 
REMARK    2  A    between atoms: C_2  and  C_3 
REMARK    3  A    between atoms: C_2  and  C_12 
REMARK    4  A    between atoms: C_3  and  C_4 
REMARK    5  A    between atoms: C_17  and  C_23 
ROOT
HETATM    1  C   UNL     1      42.611 -16.311   4.561  1.00  0.00     0.141 A 
HETATM    2  N   UNL     1      42.000 -17.061   3.699  1.00  0.00    -0.232 NA
HETATM    3  C   UNL     1      41.795 -16.542   2.409  1.00  0.00     0.074 A 
HETATM    4  C   UNL     1      41.182 -17.349   1.451  1.00  0.00     0.033 A 
HETATM    5  C   UNL     1      40.985 -16.880   0.146  1.00  0.00     0.014 A 
HETATM    6  C   UNL     1      41.395 -15.590  -0.226  1.00  0.00    -0.022 A 
HETATM    7  C   UNL     1      42.005 -14.777   0.736  1.00  0.00     0.031 A 
HETATM    8  C   UNL     1      42.199 -15.258   2.036  1.00  0.00     0.061 A 
HETATM    9  C   UNL     1      42.853 -14.426   3.060  1.00  0.00     0.259 A 
HETATM   10  O   UNL     1      43.237 -13.288   2.829  1.00  0.00    -0.267 OA
HETATM   11  N   UNL     1      43.005 -15.026   4.281  1.00  0.00    -0.309 N 
HETATM   12  H   UNL     1      43.469 -14.510   5.021  1.00  0.00     0.170 HD
ENDROOT
BRANCH   1  13
HETATM   13  C   UNL     1      42.888 -16.770   6.000  1.00  0.00     0.291 C 
BRANCH  13  14
HETATM   14  N   UNL     1      42.638 -15.642   6.934  1.00  0.00     0.090 N 
HETATM   15  H   UNL     1      43.391 -15.623   7.626  1.00  0.00     0.313 HD
HETATM   16  H   UNL     1      41.792 -15.846   7.469  1.00  0.00     0.313 HD
ENDBRANCH  13  14
BRANCH  13  17
HETATM   17  C   UNL     1      44.271 -17.432   6.178  1.00  0.00     0.082 C 
BRANCH  17  18
HETATM   18  C   UNL     1      44.341 -18.906   5.833  1.00  0.00    -0.053 A 
HETATM   19  C   UNL     1      43.989 -19.880   6.782  1.00  0.00     0.010 A 
HETATM   20  C   UNL     1      44.038 -21.240   6.463  1.00  0.00     0.046 A 
HETATM   21  C   UNL     1      44.446 -21.632   5.195  1.00  0.00     0.154 A 
HETATM   22  F   UNL     1      44.492 -22.937   4.891  1.00  0.00    -0.203 F 
HETATM   23  C   UNL     1      44.808 -20.681   4.251  1.00  0.00     0.155 A 
HETATM   24  F   UNL     1      45.202 -21.059   3.026  1.00  0.00    -0.203 F 
HETATM   25  C   UNL     1      44.760 -19.323   4.560  1.00  0.00     0.052 A 
ENDBRANCH  17  18
ENDBRANCH  13  17
ENDBRANCH   1  13
BRANCH   6  26
HETATM   26  C   UNL     1      41.197 -15.127  -1.589  1.00  0.00     0.010 A 
HETATM   27  C   UNL     1      40.706 -15.798  -2.734  1.00  0.00     0.152 A 
HETATM   28  N   UNL     1      40.666 -15.017  -3.816  1.00  0.00    -0.187 NA
HETATM   29  N   UNL     1      41.132 -13.840  -3.371  1.00  0.00    -0.289 N 
HETATM   30  H   UNL     1      41.196 -13.067  -4.026  1.00  0.00     0.188 HD
HETATM   31  C   UNL     1      41.461 -13.852  -2.046  1.00  0.00     0.123 A 
ENDBRANCH   6  26
TORSDOF 5
ENDMDL
MODEL 2
REMARK VINA RESULT:      -8.7      2.205      3.453
REMARK  5 active torsions:
REMARK  status: ('A' for Active; 'I' for Inactive)
REMARK    1  A    between atoms: N_1  and  C_2 
REMARK    2  A    between atoms: C_2  and  C_3 
REMARK    3  A    between atoms: C_2  and  C_12 
REMARK    4  A    between atoms: C_3  and  C_4 
REMARK    5  A    between atoms: C_17  and  C_23 
ROOT
HETATM    1  C   UNL     1      41.691 -16.172   1.229  1.00  0.00     0.141 A 
HETATM    2  N   UNL     1      41.306 -16.395   0.012  1.00  0.00    -0.232 NA
HETATM    3  C   UNL     1      41.299 -15.309  -0.880  1.00  0.00     0.074 A 
HETATM    4  C   UNL     1      40.934 -15.533  -2.207  1.00  0.00     0.033 A 
HETATM    5  C   UNL     1      40.940 -14.484  -3.135  1.00  0.00     0.014 A 
HETATM    6  C   UNL     1      41.310 -13.185  -2.751  1.00  0.00    -0.022 A 
HETATM    7  C   UNL     1      41.671 -12.957  -1.418  1.00  0.00     0.031 A 
HETATM    8  C   UNL     1      41.663 -14.014  -0.502  1.00  0.00     0.061 A 
HETATM    9  C   UNL     1      42.054 -13.801   0.902  1.00  0.00     0.259 A 
HETATM   10  O   UNL     1      42.385 -12.703   1.328  1.00  0.00    -0.267 OA
HETATM   11  N   UNL     1      42.029 -14.923   1.686  1.00  0.00    -0.309 N 
HETATM   12  H   UNL     1      42.310 -14.843   2.657  1.00  0.00     0.170 HD
ENDROOT
BRANCH   1  13
HETATM   13  C   UNL     1      41.738 -17.281   2.292  1.00  0.00     0.291 C 
BRANCH  13  14
HETATM   14  N   UNL     1      40.719 -17.004   3.337  1.00  0.00     0.090 N 
HETATM   15  H   UNL     1      41.125 -17.224   4.250  1.00  0.00     0.313 HD
HETATM   16  H   UNL     1      39.950 -17.666   3.223  1.00  0.00     0.313 HD
ENDBRANCH  13  14
BRANCH  13  17
HETATM   17  C   UNL     1      43.153 -17.535   2.852  1.00  0.00     0.082 C 
BRANCH  17  18
HETATM   18  C   UNL     1      43.595 -18.985   2.882  1.00  0.00    -0.053 A 
HETATM   19  C   UNL     1      43.295 -19.845   1.812  1.00  0.00     0.010 A 
HETATM   20  C   UNL     1      43.713 -21.178   1.829  1.00  0.00     0.046 A 
HETATM   21  C   UNL     1      44.428 -21.660   2.919  1.00  0.00     0.154 A 
HETATM   22  F   UNL     1      44.828 -22.938   2.932  1.00  0.00    -0.203 F 
HETATM   23  C   UNL     1      44.721 -20.823   3.987  1.00  0.00     0.155 A 
HETATM   24  F   UNL     1      45.410 -21.287   5.040  1.00  0.00    -0.203 F 
HETATM   25  C   UNL     1      44.309 -19.492   3.979  1.00  0.00     0.052 A 
ENDBRANCH  17  18
ENDBRANCH  13  17
ENDBRANCH   1  13
BRANCH   6  26
HETATM   26  C   UNL     1      41.327 -12.112  -3.731  1.00  0.00     0.010 A 
HETATM   27  C   UNL     1      42.407 -11.469  -4.382  1.00  0.00     0.152 A 
HETATM   28  N   UNL     1      42.009 -10.522  -5.235  1.00  0.00    -0.187 NA
HETATM   29  N   UNL     1      40.672 -10.553  -5.136  1.00  0.00    -0.289 N 
HETATM   30  H   UNL     1      40.130  -9.909  -5.704  1.00  0.00     0.188 HD
HETATM   31  C   UNL     1      40.213 -11.488  -4.253  1.00  0.00     0.123 A 
ENDBRANCH   6  26
TORSDOF 5
ENDMDL
MODEL 3
REMARK VINA RESULT:      -8.7      4.293      8.144
REMARK  5 active torsions:
REMARK  status: ('A' for Active; 'I' for Inactive)
REMARK    1  A    between atoms: N_1  and  C_2 
REMARK    2  A    between atoms: C_2  and  C_3 
REMARK    3  A    between atoms: C_2  and  C_12 
REMARK    4  A    between atoms: C_3  and  C_4 
REMARK    5  A    between atoms: C_17  and  C_23 
ROOT
HETATM    1  C   UNL     1      42.831 -14.564   2.886  1.00  0.00     0.141 A 
HETATM    2  N   UNL     1      43.078 -15.432   1.956  1.00  0.00    -0.232 NA
HETATM    3  C   UNL     1      43.421 -16.736   2.353  1.00  0.00     0.074 A 
HETATM    4  C   UNL     1      43.645 -17.700   1.371  1.00  0.00     0.033 A 
HETATM    5  C   UNL     1      43.962 -19.017   1.725  1.00  0.00     0.014 A 
HETATM    6  C   UNL     1      44.065 -19.397   3.072  1.00  0.00    -0.022 A 
HETATM    7  C   UNL     1      43.846 -18.430   4.060  1.00  0.00     0.031 A 
HETATM    8  C   UNL     1      43.528 -17.117   3.693  1.00  0.00     0.061 A 
HETATM    9  C   UNL     1      43.278 -16.086   4.715  1.00  0.00     0.259 A 
HETATM   10  O   UNL     1      43.351 -16.324   5.913  1.00  0.00    -0.267 OA
HETATM   11  N   UNL     1      42.950 -14.851   4.223  1.00  0.00    -0.309 N 
HETATM   12  H   UNL     1      42.745 -14.106   4.879  1.00  0.00     0.170 HD
ENDROOT
BRANCH   1  13
HETATM   13  C   UNL     1      42.449 -13.110   2.572  1.00  0.00     0.291 C 
BRANCH  13  14
HETATM   14  N   UNL     1      42.186 -12.384   3.841  1.00  0.00     0.090 N 
HETATM   15  H   UNL     1      43.083 -12.114   4.251  1.00  0.00     0.313 HD
HETATM   16  H   UNL     1      41.777 -13.039   4.509  1.00  0.00     0.313 HD
ENDBRANCH  13  14
BRANCH  13  17
HETATM   17  C   UNL     1      41.314 -12.984   1.534  1.00  0.00     0.082 C 
BRANCH  17  18
HETATM   18  C   UNL     1      41.756 -12.750   0.103  1.00  0.00    -0.053 A 
HETATM   19  C   UNL     1      41.428 -13.671  -0.905  1.00  0.00     0.010 A 
HETATM   20  C   UNL     1      41.822 -13.453  -2.228  1.00  0.00     0.046 A 
HETATM   21  C   UNL     1      42.552 -12.316  -2.548  1.00  0.00     0.154 A 
HETATM   22  F   UNL     1      42.927 -12.108  -3.817  1.00  0.00    -0.203 F 
HETATM   23  C   UNL     1      42.893 -11.403  -1.559  1.00  0.00     0.155 A 
HETATM   24  F   UNL     1      43.598 -10.305  -1.866  1.00  0.00    -0.203 F 
HETATM   25  C   UNL     1      42.504 -11.612  -0.237  1.00  0.00     0.052 A 
ENDBRANCH  17  18
ENDBRANCH  13  17
ENDBRANCH   1  13
BRANCH   6  26
HETATM   26  C   UNL     1      44.377 -20.772   3.420  1.00  0.00     0.010 A 
HETATM   27  C   UNL     1      44.360 -21.953   2.640  1.00  0.00     0.152 A 
HETATM   28  N   UNL     1      44.726 -23.036   3.330  1.00  0.00    -0.187 NA
HETATM   29  N   UNL     1      44.979 -22.556   4.556  1.00  0.00    -0.289 N 
HETATM   30  H   UNL     1      45.283 -23.205   5.276  1.00  0.00     0.188 HD
HETATM   31  C   UNL     1      44.790 -21.208   4.662  1.00  0.00     0.123 A 
ENDBRANCH   6  26
TORSDOF 5
ENDMDL
MODEL 4
REMARK VINA RESULT:      -8.7      2.217      2.961
REMARK  5 active torsions:
REMARK  status: ('A' for Active; 'I' for Inactive)
REMARK    1  A    between atoms: N_1  and  C_2 
REMARK    2  A    between atoms: C_2  and  C_3 
REMARK    3  A    between atoms: C_2  and  C_12 
REMARK    4  A    between atoms: C_3  and  C_4 
REMARK    5  A    between atoms: C_17  and  C_23 
ROOT
HETATM    1  C   UNL     1      40.991 -16.469   2.652  1.00  0.00     0.141 A 
HETATM    2  N   UNL     1      41.346 -16.666   1.422  1.00  0.00    -0.232 NA
HETATM    3  C   UNL     1      40.857 -15.776   0.450  1.00  0.00     0.074 A 
HETATM    4  C   UNL     1      41.263 -15.939  -0.874  1.00  0.00     0.033 A 
HETATM    5  C   UNL     1      40.821 -15.057  -1.868  1.00  0.00     0.014 A 
HETATM    6  C   UNL     1      39.960 -13.994  -1.557  1.00  0.00    -0.022 A 
HETATM    7  C   UNL     1      39.546 -13.831  -0.230  1.00  0.00     0.031 A 
HETATM    8  C   UNL     1      39.997 -14.718   0.755  1.00  0.00     0.061 A 
HETATM    9  C   UNL     1      39.588 -14.558   2.161  1.00  0.00     0.259 A 
HETATM   10  O   UNL     1      38.835 -13.665   2.523  1.00  0.00    -0.267 OA
HETATM   11  N   UNL     1      40.121 -15.475   3.026  1.00  0.00    -0.309 N 
HETATM   12  H   UNL     1      39.893 -15.402   4.011  1.00  0.00     0.170 HD
ENDROOT
BRANCH   1  13
HETATM   13  C   UNL     1      41.460 -17.378   3.798  1.00  0.00     0.291 C 
BRANCH  13  14
HETATM   14  N   UNL     1      40.871 -16.903   5.077  1.00  0.00     0.090 N 
HETATM   15  H   UNL     1      39.923 -17.280   5.155  1.00  0.00     0.313 HD
HETATM   16  H   UNL     1      40.750 -15.891   5.021  1.00  0.00     0.313 HD
ENDBRANCH  13  14
BRANCH  13  17
HETATM   17  C   UNL     1      42.992 -17.562   3.848  1.00  0.00     0.082 C 
BRANCH  17  18
HETATM   18  C   UNL     1      43.497 -18.946   3.491  1.00  0.00    -0.053 A 
HETATM   19  C   UNL     1      43.183 -19.522   2.248  1.00  0.00     0.010 A 
HETATM   20  C   UNL     1      43.659 -20.792   1.909  1.00  0.00     0.046 A 
HETATM   21  C   UNL     1      44.446 -21.494   2.814  1.00  0.00     0.154 A 
HETATM   22  F   UNL     1      44.901 -22.710   2.485  1.00  0.00    -0.203 F 
HETATM   23  C   UNL     1      44.754 -20.940   4.049  1.00  0.00     0.155 A 
HETATM   24  F   UNL     1      45.513 -21.617   4.923  1.00  0.00    -0.203 F 
HETATM   25  C   UNL     1      44.285 -19.675   4.395  1.00  0.00     0.052 A 
ENDBRANCH  17  18
ENDBRANCH  13  17
ENDBRANCH   1  13
BRANCH   6  26
HETATM   26  C   UNL     1      39.525 -13.078  -2.599  1.00  0.00     0.010 A 
HETATM   27  C   UNL     1      38.263 -12.488  -2.846  1.00  0.00     0.152 A 
HETATM   28  N   UNL     1      38.267 -11.683  -3.912  1.00  0.00    -0.187 NA
HETATM   29  N   UNL     1      39.532 -11.753  -4.353  1.00  0.00    -0.289 N 
HETATM   30  H   UNL     1      39.787 -11.212  -5.174  1.00  0.00     0.188 HD
HETATM   31  C   UNL     1      40.325 -12.571  -3.601  1.00  0.00     0.123 A 
ENDBRANCH   6  26
TORSDOF 5
ENDMDL
MODEL 5
REMARK VINA RESULT:      -8.5      2.881      4.395
REMARK  5 active torsions:
REMARK  status: ('A' for Active; 'I' for Inactive)
REMARK    1  A    between atoms: N_1  and  C_2 
REMARK    2  A    between atoms: C_2  and  C_3 
REMARK    3  A    between atoms: C_2  and  C_12 
REMARK    4  A    between atoms: C_3  and  C_4 
REMARK    5  A    between atoms: C_17  and  C_23 
ROOT
HETATM    1  C   UNL     1      41.158 -15.781   0.605  1.00  0.00     0.141 A 
HETATM    2  N   UNL     1      41.572 -14.583   0.875  1.00  0.00    -0.232 NA
HETATM    3  C   UNL     1      41.758 -13.699  -0.202  1.00  0.00     0.074 A 
HETATM    4  C   UNL     1      42.158 -12.390   0.066  1.00  0.00     0.033 A 
HETATM    5  C   UNL     1      42.327 -11.469  -0.976  1.00  0.00     0.014 A 
HETATM    6  C   UNL     1      42.103 -11.842  -2.310  1.00  0.00    -0.022 A 
HETATM    7  C   UNL     1      41.708 -13.157  -2.582  1.00  0.00     0.031 A 
HETATM    8  C   UNL     1      41.540 -14.067  -1.532  1.00  0.00     0.061 A 
HETATM    9  C   UNL     1      41.109 -15.451  -1.792  1.00  0.00     0.259 A 
HETATM   10  O   UNL     1      40.897 -15.866  -2.923  1.00  0.00    -0.267 OA
HETATM   11  N   UNL     1      40.956 -16.229  -0.676  1.00  0.00    -0.309 N 
HETATM   12  H   UNL     1      40.640 -17.185  -0.791  1.00  0.00     0.170 HD
ENDROOT
BRANCH   1  13
HETATM   13  C   UNL     1      40.922 -16.834   1.700  1.00  0.00     0.291 C 
BRANCH  13  14
HETATM   14  N   UNL     1      39.503 -16.781   2.136  1.00  0.00     0.090 N 
HETATM   15  H   UNL     1      39.418 -17.292   3.018  1.00  0.00     0.313 HD
HETATM   16  H   UNL     1      38.940 -17.311   1.468  1.00  0.00     0.313 HD
ENDBRANCH  13  14
BRANCH  13  17
HETATM   17  C   UNL     1      41.935 -16.749   2.861  1.00  0.00     0.082 C 
BRANCH  17  18
HETATM   18  C   UNL     1      42.806 -17.973   3.062  1.00  0.00    -0.053 A 
HETATM   19  C   UNL     1      43.539 -18.141   4.248  1.00  0.00     0.010 A 
HETATM   20  C   UNL     1      44.332 -19.276   4.444  1.00  0.00     0.046 A 
HETATM   21  C   UNL     1      44.400 -20.244   3.450  1.00  0.00     0.154 A 
HETATM   22  F   UNL     1      45.160 -21.331   3.641  1.00  0.00    -0.203 F 
HETATM   23  C   UNL     1      43.689 -20.085   2.268  1.00  0.00     0.155 A 
HETATM   24  F   UNL     1      43.755 -21.019   1.309  1.00  0.00    -0.203 F 
HETATM   25  C   UNL     1      42.896 -18.958   2.066  1.00  0.00     0.052 A 
ENDBRANCH  17  18
ENDBRANCH  13  17
ENDBRANCH   1  13
BRANCH   6  26
HETATM   26  C   UNL     1      42.267 -10.869  -3.377  1.00  0.00     0.010 A 
HETATM   27  C   UNL     1      42.305 -11.032  -4.782  1.00  0.00     0.152 A 
HETATM   28  N   UNL     1      42.465  -9.878  -5.435  1.00  0.00    -0.187 NA
HETATM   29  N   UNL     1      42.530  -8.968  -4.451  1.00  0.00    -0.289 N 
HETATM   30  H   UNL     1      42.651  -7.992  -4.702  1.00  0.00     0.188 HD
HETATM   31  C   UNL     1      42.414  -9.509  -3.202  1.00  0.00     0.123 A 
ENDBRANCH   6  26
TORSDOF 5
ENDMDL
MODEL 6
REMARK VINA RESULT:      -8.5      4.025      7.968
REMARK  5 active torsions:
REMARK  status: ('A' for Active; 'I' for Inactive)
REMARK    1  A    between atoms: N_1  and  C_2 
REMARK    2  A    between atoms: C_2  and  C_3 
REMARK    3  A    between atoms: C_2  and  C_12 
REMARK    4  A    between atoms: C_3  and  C_4 
REMARK    5  A    between atoms: C_17  and  C_23 
ROOT
HETATM    1  C   UNL     1      42.597 -14.696   2.745  1.00  0.00     0.141 A 
HETATM    2  N   UNL     1      42.904 -15.571   1.841  1.00  0.00    -0.232 NA
HETATM    3  C   UNL     1      43.291 -16.851   2.276  1.00  0.00     0.074 A 
HETATM    4  C   UNL     1      43.581 -17.825   1.321  1.00  0.00     0.033 A 
HETATM    5  C   UNL     1      43.944 -19.120   1.711  1.00  0.00     0.014 A 
HETATM    6  C   UNL     1      44.026 -19.467   3.069  1.00  0.00    -0.022 A 
HETATM    7  C   UNL     1      43.741 -18.489   4.029  1.00  0.00     0.031 A 
HETATM    8  C   UNL     1      43.378 -17.199   3.626  1.00  0.00     0.061 A 
HETATM    9  C   UNL     1      43.058 -16.159   4.618  1.00  0.00     0.259 A 
HETATM   10  O   UNL     1      43.109 -16.368   5.822  1.00  0.00    -0.267 OA
HETATM   11  N   UNL     1      42.691 -14.950   4.091  1.00  0.00    -0.309 N 
HETATM   12  H   UNL     1      42.438 -14.200   4.726  1.00  0.00     0.170 HD
ENDROOT
BRANCH   1  13
HETATM   13  C   UNL     1      42.163 -13.265   2.389  1.00  0.00     0.291 C 
BRANCH  13  14
HETATM   14  N   UNL     1      42.279 -12.402   3.592  1.00  0.00     0.090 N 
HETATM   15  H   UNL     1      42.941 -12.836   4.240  1.00  0.00     0.313 HD
HETATM   16  H   UNL     1      41.384 -12.410   4.084  1.00  0.00     0.313 HD
ENDBRANCH  13  14
BRANCH  13  17
HETATM   17  C   UNL     1      40.782 -13.196   1.703  1.00  0.00     0.082 C 
BRANCH  17  18
HETATM   18  C   UNL     1      40.792 -13.357   0.196  1.00  0.00    -0.053 A 
HETATM   19  C   UNL     1      41.909 -12.961  -0.558  1.00  0.00     0.010 A 
HETATM   20  C   UNL     1      41.928 -13.121  -1.946  1.00  0.00     0.046 A 
HETATM   21  C   UNL     1      40.826 -13.671  -2.588  1.00  0.00     0.154 A 
HETATM   22  F   UNL     1      40.847 -13.825  -3.919  1.00  0.00    -0.203 F 
HETATM   23  C   UNL     1      39.710 -14.057  -1.856  1.00  0.00     0.155 A 
HETATM   24  F   UNL     1      38.646 -14.588  -2.475  1.00  0.00    -0.203 F 
HETATM   25  C   UNL     1      39.684 -13.902  -0.472  1.00  0.00     0.052 A 
ENDBRANCH  17  18
ENDBRANCH  13  17
ENDBRANCH   1  13
BRANCH   6  26
HETATM   26  C   UNL     1      44.387 -20.820   3.455  1.00  0.00     0.010 A 
HETATM   27  C   UNL     1      44.399 -22.024   2.712  1.00  0.00     0.152 A 
HETATM   28  N   UNL     1      44.807 -23.074   3.429  1.00  0.00    -0.187 NA
HETATM   29  N   UNL     1      45.058 -22.548   4.638  1.00  0.00    -0.289 N 
HETATM   30  H   UNL     1      45.390 -23.164   5.373  1.00  0.00     0.188 HD
HETATM   31  C   UNL     1      44.826 -21.204   4.705  1.00  0.00     0.123 A 
ENDBRANCH   6  26
TORSDOF 5
ENDMDL
MODEL 7
REMARK VINA RESULT:      -8.3      4.202      7.222
REMARK  5 active torsions:
REMARK  status: ('A' for Active; 'I' for Inactive)
REMARK    1  A    between atoms: N_1  and  C_2 
REMARK    2  A    between atoms: C_2  and  C_3 
REMARK    3  A    between atoms: C_2  and  C_12 
REMARK    4  A    between atoms: C_3  and  C_4 
REMARK    5  A    between atoms: C_17  and  C_23 
ROOT
HETATM    1  C   UNL     1      42.389 -14.588   5.140  1.00  0.00     0.141 A 
HETATM    2  N   UNL     1      42.880 -14.927   3.990  1.00  0.00    -0.232 NA
HETATM    3  C   UNL     1      43.194 -16.282   3.787  1.00  0.00     0.074 A 
HETATM    4  C   UNL     1      43.679 -16.680   2.542  1.00  0.00     0.033 A 
HETATM    5  C   UNL     1      43.979 -18.025   2.290  1.00  0.00     0.014 A 
HETATM    6  C   UNL     1      43.802 -19.000   3.283  1.00  0.00    -0.022 A 
HETATM    7  C   UNL     1      43.321 -18.603   4.536  1.00  0.00     0.031 A 
HETATM    8  C   UNL     1      43.024 -17.256   4.774  1.00  0.00     0.061 A 
HETATM    9  C   UNL     1      42.502 -16.816   6.080  1.00  0.00     0.259 A 
HETATM   10  O   UNL     1      42.322 -17.595   7.006  1.00  0.00    -0.267 OA
HETATM   11  N   UNL     1      42.226 -15.479   6.171  1.00  0.00    -0.309 N 
HETATM   12  H   UNL     1      41.843 -15.121   7.040  1.00  0.00     0.170 HD
ENDROOT
BRANCH   1  13
HETATM   13  C   UNL     1      42.011 -13.137   5.476  1.00  0.00     0.291 C 
BRANCH  13  14
HETATM   14  N   UNL     1      42.641 -12.750   6.764  1.00  0.00     0.090 N 
HETATM   15  H   UNL     1      43.304 -11.992   6.585  1.00  0.00     0.313 HD
HETATM   16  H   UNL     1      43.212 -13.529   7.093  1.00  0.00     0.313 HD
ENDBRANCH  13  14
BRANCH  13  17
HETATM   17  C   UNL     1      40.492 -12.870   5.419  1.00  0.00     0.082 C 
BRANCH  17  18
HETATM   18  C   UNL     1      39.838 -13.092   4.070  1.00  0.00    -0.053 A 
HETATM   19  C   UNL     1      39.392 -12.002   3.304  1.00  0.00     0.010 A 
HETATM   20  C   UNL     1      38.801 -12.201   2.054  1.00  0.00     0.046 A 
HETATM   21  C   UNL     1      38.648 -13.492   1.565  1.00  0.00     0.154 A 
HETATM   22  F   UNL     1      38.083 -13.680   0.365  1.00  0.00    -0.203 F 
HETATM   23  C   UNL     1      39.075 -14.579   2.316  1.00  0.00     0.155 A 
HETATM   24  F   UNL     1      38.927 -15.825   1.845  1.00  0.00    -0.203 F 
HETATM   25  C   UNL     1      39.665 -14.390   3.564  1.00  0.00     0.052 A 
ENDBRANCH  17  18
ENDBRANCH  13  17
ENDBRANCH   1  13
BRANCH   6  26
HETATM   26  C   UNL     1      44.101 -20.393   2.999  1.00  0.00     0.010 A 
HETATM   27  C   UNL     1      43.958 -21.148   1.810  1.00  0.00     0.152 A 
HETATM   28  N   UNL     1      44.358 -22.415   1.948  1.00  0.00    -0.187 NA
HETATM   29  N   UNL     1      44.759 -22.479   3.227  1.00  0.00    -0.289 N 
HETATM   30  H   UNL     1      45.116 -23.362   3.577  1.00  0.00     0.188 HD
HETATM   31  C   UNL     1      44.630 -21.297   3.897  1.00  0.00     0.123 A 
ENDBRANCH   6  26
TORSDOF 5
ENDMDL
MODEL 8
REMARK VINA RESULT:      -8.1      5.772      8.448
REMARK  5 active torsions:
REMARK  status: ('A' for Active; 'I' for Inactive)
REMARK    1  A    between atoms: N_1  and  C_2 
REMARK    2  A    between atoms: C_2  and  C_3 
REMARK    3  A    between atoms: C_2  and  C_12 
REMARK    4  A    between atoms: C_3  and  C_4 
REMARK    5  A    between atoms: C_17  and  C_23 
ROOT
HETATM    1  C   UNL     1      42.239 -14.545   5.404  1.00  0.00     0.141 A 
HETATM    2  N   UNL     1      42.678 -14.840   4.221  1.00  0.00    -0.232 NA
HETATM    3  C   UNL     1      43.022 -16.179   3.966  1.00  0.00     0.074 A 
HETATM    4  C   UNL     1      43.454 -16.529   2.687  1.00  0.00     0.033 A 
HETATM    5  C   UNL     1      43.779 -17.857   2.384  1.00  0.00     0.014 A 
HETATM    6  C   UNL     1      43.684 -18.863   3.358  1.00  0.00    -0.022 A 
HETATM    7  C   UNL     1      43.256 -18.512   4.645  1.00  0.00     0.031 A 
HETATM    8  C   UNL     1      42.932 -17.182   4.934  1.00  0.00     0.061 A 
HETATM    9  C   UNL     1      42.465 -16.792   6.276  1.00  0.00     0.259 A 
HETATM   10  O   UNL     1      42.357 -17.600   7.189  1.00  0.00    -0.267 OA
HETATM   11  N   UNL     1      42.155 -15.467   6.418  1.00  0.00    -0.309 N 
HETATM   12  H   UNL     1      41.807 -15.143   7.314  1.00  0.00     0.170 HD
ENDROOT
BRANCH   1  13
HETATM   13  C   UNL     1      41.835 -13.116   5.798  1.00  0.00     0.291 C 
BRANCH  13  14
HETATM   14  N   UNL     1      42.695 -12.653   6.917  1.00  0.00     0.090 N 
HETATM   15  H   UNL     1      42.770 -11.634   6.866  1.00  0.00     0.313 HD
HETATM   16  H   UNL     1      43.644 -12.996   6.760  1.00  0.00     0.313 HD
ENDBRANCH  13  14
BRANCH  13  17
HETATM   17  C   UNL     1      40.323 -12.957   6.065  1.00  0.00     0.082 C 
BRANCH  17  18
HETATM   18  C   UNL     1      39.901 -11.632   6.667  1.00  0.00    -0.053 A 
HETATM   19  C   UNL     1      39.934 -10.455   5.899  1.00  0.00     0.010 A 
HETATM   20  C   UNL     1      39.532  -9.234   6.446  1.00  0.00     0.046 A 
HETATM   21  C   UNL     1      39.101  -9.181   7.765  1.00  0.00     0.154 A 
HETATM   22  F   UNL     1      38.714  -8.009   8.286  1.00  0.00    -0.203 F 
HETATM   23  C   UNL     1      39.074 -10.334   8.538  1.00  0.00     0.155 A 
HETATM   24  F   UNL     1      38.658 -10.284   9.812  1.00  0.00    -0.203 F 
HETATM   25  C   UNL     1      39.472 -11.557   8.001  1.00  0.00     0.052 A 
ENDBRANCH  17  18
ENDBRANCH  13  17
ENDBRANCH   1  13
BRANCH   6  26
HETATM   26  C   UNL     1      44.009 -20.238   3.021  1.00  0.00     0.010 A 
HETATM   27  C   UNL     1      43.800 -20.975   1.832  1.00  0.00     0.152 A 
HETATM   28  N   UNL     1      44.254 -22.229   1.910  1.00  0.00    -0.187 NA
HETATM   29  N   UNL     1      44.757 -22.302   3.152  1.00  0.00    -0.289 N 
HETATM   30  H   UNL     1      45.171 -23.178   3.454  1.00  0.00     0.188 HD
HETATM   31  C   UNL     1      44.638 -21.138   3.856  1.00  0.00     0.123 A 
ENDBRANCH   6  26
TORSDOF 5
ENDMDL
MODEL 9
REMARK VINA RESULT:      -7.9      2.723      3.483
REMARK  5 active torsions:
REMARK  status: ('A' for Active; 'I' for Inactive)
REMARK    1  A    between atoms: N_1  and  C_2 
REMARK    2  A    between atoms: C_2  and  C_3 
REMARK    3  A    between atoms: C_2  and  C_12 
REMARK    4  A    between atoms: C_3  and  C_4 
REMARK    5  A    between atoms: C_17  and  C_23 
ROOT
HETATM    1  C   UNL     1      42.221 -16.067   1.516  1.00  0.00     0.141 A 
HETATM    2  N   UNL     1      42.122 -16.175   0.229  1.00  0.00    -0.232 NA
HETATM    3  C   UNL     1      41.094 -15.460  -0.410  1.00  0.00     0.074 A 
HETATM    4  C   UNL     1      40.996 -15.523  -1.800  1.00  0.00     0.033 A 
HETATM    5  C   UNL     1      40.003 -14.804  -2.477  1.00  0.00     0.014 A 
HETATM    6  C   UNL     1      39.084 -14.008  -1.775  1.00  0.00    -0.022 A 
HETATM    7  C   UNL     1      39.177 -13.948  -0.379  1.00  0.00     0.031 A 
HETATM    8  C   UNL     1      40.175 -14.670   0.285  1.00  0.00     0.061 A 
HETATM    9  C   UNL     1      40.302 -14.610   1.751  1.00  0.00     0.259 A 
HETATM   10  O   UNL     1      39.543 -13.948   2.445  1.00  0.00    -0.267 OA
HETATM   11  N   UNL     1      41.337 -15.340   2.273  1.00  0.00    -0.309 N 
HETATM   12  H   UNL     1      41.488 -15.319   3.275  1.00  0.00     0.170 HD
ENDROOT
BRANCH   1  13
HETATM   13  C   UNL     1      43.303 -16.804   2.321  1.00  0.00     0.291 C 
BRANCH  13  14
HETATM   14  N   UNL     1      44.345 -17.314   1.394  1.00  0.00     0.090 N 
HETATM   15  H   UNL     1      44.685 -18.210   1.752  1.00  0.00     0.313 HD
HETATM   16  H   UNL     1      45.151 -16.689   1.437  1.00  0.00     0.313 HD
ENDBRANCH  13  14
BRANCH  13  17
HETATM   17  C   UNL     1      42.735 -17.877   3.273  1.00  0.00     0.082 C 
BRANCH  17  18
HETATM   18  C   UNL     1      43.390 -19.241   3.188  1.00  0.00    -0.053 A 
HETATM   19  C   UNL     1      44.251 -19.685   4.206  1.00  0.00     0.010 A 
HETATM   20  C   UNL     1      44.846 -20.948   4.138  1.00  0.00     0.046 A 
HETATM   21  C   UNL     1      44.589 -21.770   3.049  1.00  0.00     0.154 A 
HETATM   22  F   UNL     1      45.160 -22.981   2.987  1.00  0.00    -0.203 F 
HETATM   23  C   UNL     1      43.749 -21.339   2.030  1.00  0.00     0.155 A 
HETATM   24  F   UNL     1      43.501 -22.132   0.978  1.00  0.00    -0.203 F 
HETATM   25  C   UNL     1      43.151 -20.082   2.090  1.00  0.00     0.052 A 
ENDBRANCH  17  18
ENDBRANCH  13  17
ENDBRANCH   1  13
BRANCH   6  26
HETATM   26  C   UNL     1      38.072 -13.255  -2.495  1.00  0.00     0.010 A 
HETATM   27  C   UNL     1      37.337 -13.572  -3.662  1.00  0.00     0.152 A 
HETATM   28  N   UNL     1      36.480 -12.610  -4.014  1.00  0.00    -0.187 NA
HETATM   29  N   UNL     1      36.661 -11.670  -3.073  1.00  0.00    -0.289 N 
HETATM   30  H   UNL     1      36.107 -10.822  -3.125  1.00  0.00     0.188 HD
HETATM   31  C   UNL     1      37.599 -12.009  -2.141  1.00  0.00     0.123 A 
ENDBRANCH   6  26
TORSDOF 5
ENDMDL
MODEL 10
REMARK VINA RESULT:      -7.9      1.711      2.253
REMARK  5 active torsions:
REMARK  status: ('A' for Active; 'I' for Inactive)
REMARK    1  A    between atoms: N_1  and  C_2 
REMARK    2  A    between atoms: C_2  and  C_3 
REMARK    3  A    between atoms: C_2  and  C_12 
REMARK    4  A    between atoms: C_3  and  C_4 
REMARK    5  A    between atoms: C_17  and  C_23 
ROOT
HETATM    1  C   UNL     1      41.749 -16.328   3.588  1.00  0.00     0.141 A 
HETATM    2  N   UNL     1      41.471 -16.481   2.332  1.00  0.00    -0.232 NA
HETATM    3  C   UNL     1      41.568 -15.353   1.499  1.00  0.00     0.074 A 
HETATM    4  C   UNL     1      41.320 -15.502   0.135  1.00  0.00     0.033 A 
HETATM    5  C   UNL     1      41.433 -14.409  -0.734  1.00  0.00     0.014 A 
HETATM    6  C   UNL     1      41.795 -13.141  -0.253  1.00  0.00    -0.022 A 
HETATM    7  C   UNL     1      42.039 -12.988   1.117  1.00  0.00     0.031 A 
HETATM    8  C   UNL     1      41.924 -14.088   1.974  1.00  0.00     0.061 A 
HETATM    9  C   UNL     1      42.192 -13.954   3.416  1.00  0.00     0.259 A 
HETATM   10  O   UNL     1      42.507 -12.887   3.925  1.00  0.00    -0.267 OA
HETATM   11  N   UNL     1      42.071 -15.112   4.137  1.00  0.00    -0.309 N 
HETATM   12  H   UNL     1      42.265 -15.086   5.132  1.00  0.00     0.170 HD
ENDROOT
BRANCH   1  13
HETATM   13  C   UNL     1      41.675 -17.488   4.592  1.00  0.00     0.291 C 
BRANCH  13  14
HETATM   14  N   UNL     1      40.485 -17.309   5.464  1.00  0.00     0.090 N 
HETATM   15  H   UNL     1      40.524 -18.008   6.211  1.00  0.00     0.313 HD
HETATM   16  H   UNL     1      39.650 -17.543   4.926  1.00  0.00     0.313 HD
ENDBRANCH  13  14
BRANCH  13  17
HETATM   17  C   UNL     1      42.989 -17.713   5.369  1.00  0.00     0.082 C 
BRANCH  17  18
HETATM   18  C   UNL     1      43.638 -19.070   5.181  1.00  0.00    -0.053 A 
HETATM   19  C   UNL     1      43.746 -19.966   6.257  1.00  0.00     0.010 A 
HETATM   20  C   UNL     1      44.330 -21.223   6.085  1.00  0.00     0.046 A 
HETATM   21  C   UNL     1      44.816 -21.588   4.835  1.00  0.00     0.154 A 
HETATM   22  F   UNL     1      45.375 -22.795   4.672  1.00  0.00    -0.203 F 
HETATM   23  C   UNL     1      44.725 -20.708   3.765  1.00  0.00     0.155 A 
HETATM   24  F   UNL     1      45.194 -21.059   2.559  1.00  0.00    -0.203 F 
HETATM   25  C   UNL     1      44.143 -19.452   3.929  1.00  0.00     0.052 A 
ENDBRANCH  17  18
ENDBRANCH  13  17
ENDBRANCH   1  13
BRANCH   6  26
HETATM   26  C   UNL     1      41.924 -12.023  -1.171  1.00  0.00     0.010 A 
HETATM   27  C   UNL     1      43.070 -11.336  -1.639  1.00  0.00     0.152 A 
HETATM   28  N   UNL     1      42.773 -10.354  -2.494  1.00  0.00    -0.187 NA
HETATM   29  N   UNL     1      41.435 -10.406  -2.579  1.00  0.00    -0.289 N 
HETATM   30  H   UNL     1      40.964  -9.743  -3.186  1.00  0.00     0.188 HD
HETATM   31  C   UNL     1      40.880 -11.388  -1.811  1.00  0.00     0.123 A 
ENDBRANCH   6  26
TORSDOF 5
ENDMDL
