MODEL 1
REMARK VINA RESULT:      -9.5      0.000      0.000
REMARK  5 active torsions:
REMARK  status: ('A' for Active; 'I' for Inactive)
REMARK    1  A    between atoms: C_6  and  S_7 
REMARK    2  A    between atoms: S_7  and  C_8 
REMARK    3  A    between atoms: C_8  and  C_9 
REMARK       I    between atoms: C_9  and  N_10 
REMARK    4  A    between atoms: N_10  and  C_11 
REMARK    5  A    between atoms: N_22  and  C_23 
ROOT
HETATM    1  C   UNL     1      44.975 -22.185   4.826  1.00  0.00     0.001 A 
HETATM    2  C   UNL     1      44.831 -20.830   5.123  1.00  0.00     0.019 A 
HETATM    3  C   UNL     1      44.370 -19.948   4.137  1.00  0.00     0.061 A 
HETATM    4  C   UNL     1      44.059 -20.405   2.862  1.00  0.00     0.075 A 
HETATM    5  N   UNL     1      43.666 -19.540   1.838  1.00  0.00    -0.223 NA
HETATM    6  C   UNL     1      43.463 -18.292   2.119  1.00  0.00     0.177 A 
HETATM    7  N   UNL     1      43.621 -17.738   3.393  1.00  0.00    -0.256 N 
HETATM    8  C   UNL     1      44.154 -18.519   4.429  1.00  0.00     0.267 A 
HETATM    9  O   UNL     1      44.409 -18.127   5.566  1.00  0.00    -0.267 OA
HETATM   10  C   UNL     1      44.192 -21.767   2.578  1.00  0.00     0.032 A 
HETATM   11  C   UNL     1      44.649 -22.655   3.555  1.00  0.00     0.002 A 
ENDROOT
BRANCH   6  12
HETATM   12  S   UNL     1      43.108 -17.227   0.760  1.00  0.00    -0.082 SA
BRANCH  12  13
HETATM   13  C   UNL     1      41.304 -17.058   0.845  1.00  0.00     0.185 C 
BRANCH  13  14
HETATM   14  C   UNL     1      40.862 -15.601   0.757  1.00  0.00     0.231 C 
HETATM   15  N   UNL     1      39.579 -15.385   1.224  1.00  0.00    -0.326 N 
HETATM   16  H   UNL     1      39.051 -16.226   1.454  1.00  0.00     0.169 HD
HETATM   17  O   UNL     1      41.629 -14.739   0.337  1.00  0.00    -0.272 OA
BRANCH  15  18
HETATM   18  C   UNL     1      38.901 -14.159   1.374  1.00  0.00     0.037 A 
HETATM   19  C   UNL     1      39.250 -13.193   2.326  1.00  0.00     0.061 A 
HETATM   20  C   UNL     1      38.469 -12.060   2.383  1.00  0.00     0.065 A 
HETATM   21  C   UNL     1      37.380 -11.858   1.539  1.00  0.00     0.063 A 
HETATM   22  N   UNL     1      38.563 -10.958   3.226  1.00  0.00    -0.306 N 
HETATM   23  N   UNL     1      36.807 -10.634   1.860  1.00  0.00    -0.307 N 
HETATM   24  C   UNL     1      37.015 -12.776   0.588  1.00  0.00     0.034 A 
HETATM   25  C   UNL     1      37.533 -10.061   2.915  1.00  0.00     0.325 A 
HETATM   26  H   UNL     1      36.003 -10.202   1.436  1.00  0.00     0.170 HD
HETATM   27  O   UNL     1      37.306  -8.993   3.455  1.00  0.00    -0.247 OA
HETATM   28  C   UNL     1      37.792 -13.939   0.514  1.00  0.00     0.032 A 
HETATM   29  H   UNL     1      39.246 -10.805   3.951  1.00  0.00     0.170 HD
ENDBRANCH  15  18
ENDBRANCH  13  14
ENDBRANCH  12  13
ENDBRANCH   6  12
BRANCH   7  30
HETATM   30  C   UNL     1      43.203 -16.406   3.730  1.00  0.00     0.046 A 
HETATM   31  C   UNL     1      41.989 -16.181   4.398  1.00  0.00     0.055 A 
HETATM   32  C   UNL     1      41.556 -14.880   4.682  1.00  0.00     0.058 A 
HETATM   33 CL   UNL     1      40.058 -14.698   5.525  1.00  0.00    -0.082 Cl
HETATM   34  C   UNL     1      42.328 -13.784   4.289  1.00  0.00     0.055 A 
HETATM   35 CL   UNL     1      41.855 -12.152   4.596  1.00  0.00    -0.083 Cl
HETATM   36  C   UNL     1      43.530 -13.995   3.609  1.00  0.00     0.028 A 
HETATM   37  C   UNL     1      43.962 -15.296   3.328  1.00  0.00     0.032 A 
ENDBRANCH   7  30
TORSDOF 5
ENDMDL
MODEL 2
REMARK VINA RESULT:      -9.0      2.916      3.378
REMARK  5 active torsions:
REMARK  status: ('A' for Active; 'I' for Inactive)
REMARK    1  A    between atoms: C_6  and  S_7 
REMARK    2  A    between atoms: S_7  and  C_8 
REMARK    3  A    between atoms: C_8  and  C_9 
REMARK       I    between atoms: C_9  and  N_10 
REMARK    4  A    between atoms: N_10  and  C_11 
REMARK    5  A    between atoms: N_22  and  C_23 
ROOT
HETATM    1  C   UNL     1      44.733 -22.407   5.036  1.00  0.00     0.001 A 
HETATM    2  C   UNL     1      44.503 -21.131   5.551  1.00  0.00     0.019 A 
HETATM    3  C   UNL     1      44.283 -20.058   4.676  1.00  0.00     0.061 A 
HETATM    4  C   UNL     1      44.295 -20.248   3.300  1.00  0.00     0.075 A 
HETATM    5  N   UNL     1      44.150 -19.189   2.402  1.00  0.00    -0.223 NA
HETATM    6  C   UNL     1      43.869 -18.012   2.866  1.00  0.00     0.177 A 
HETATM    7  N   UNL     1      43.708 -17.722   4.224  1.00  0.00    -0.256 N 
HETATM    8  C   UNL     1      43.984 -18.707   5.183  1.00  0.00     0.267 A 
HETATM    9  O   UNL     1      43.951 -18.551   6.402  1.00  0.00    -0.267 OA
HETATM   10  C   UNL     1      44.511 -21.534   2.794  1.00  0.00     0.032 A 
HETATM   11  C   UNL     1      44.730 -22.609   3.658  1.00  0.00     0.002 A 
ENDROOT
BRANCH   6  12
HETATM   12  S   UNL     1      43.839 -16.692   1.698  1.00  0.00    -0.082 SA
BRANCH  12  13
HETATM   13  C   UNL     1      42.244 -16.929   0.867  1.00  0.00     0.185 C 
BRANCH  13  14
HETATM   14  C   UNL     1      41.677 -15.618   0.334  1.00  0.00     0.231 C 
HETATM   15  N   UNL     1      41.490 -15.614  -1.035  1.00  0.00    -0.326 N 
HETATM   16  H   UNL     1      41.857 -16.427  -1.528  1.00  0.00     0.169 HD
HETATM   17  O   UNL     1      41.398 -14.699   1.101  1.00  0.00    -0.272 OA
BRANCH  15  18
HETATM   18  C   UNL     1      40.901 -14.612  -1.832  1.00  0.00     0.037 A 
HETATM   19  C   UNL     1      39.540 -14.285  -1.785  1.00  0.00     0.061 A 
HETATM   20  C   UNL     1      39.101 -13.311  -2.653  1.00  0.00     0.065 A 
HETATM   21  C   UNL     1      39.952 -12.660  -3.543  1.00  0.00     0.063 A 
HETATM   22  N   UNL     1      37.820 -12.802  -2.842  1.00  0.00    -0.306 N 
HETATM   23  N   UNL     1      39.198 -11.752  -4.276  1.00  0.00    -0.307 N 
HETATM   24  C   UNL     1      41.292 -12.945  -3.609  1.00  0.00     0.034 A 
HETATM   25  C   UNL     1      37.864 -11.831  -3.851  1.00  0.00     0.325 A 
HETATM   26  H   UNL     1      39.518 -11.131  -5.000  1.00  0.00     0.170 HD
HETATM   27  O   UNL     1      36.927 -11.182  -4.282  1.00  0.00    -0.247 OA
HETATM   28  C   UNL     1      41.762 -13.937  -2.739  1.00  0.00     0.032 A 
HETATM   29  H   UNL     1      36.982 -13.070  -2.352  1.00  0.00     0.170 HD
ENDBRANCH  15  18
ENDBRANCH  13  14
ENDBRANCH  12  13
ENDBRANCH   6  12
BRANCH   7  30
HETATM   30  C   UNL     1      43.203 -16.466   4.706  1.00  0.00     0.046 A 
HETATM   31  C   UNL     1      41.877 -16.080   4.454  1.00  0.00     0.055 A 
HETATM   32  C   UNL     1      41.398 -14.835   4.879  1.00  0.00     0.058 A 
HETATM   33 CL   UNL     1      39.747 -14.451   4.542  1.00  0.00    -0.082 Cl
HETATM   34  C   UNL     1      42.247 -13.952   5.553  1.00  0.00     0.055 A 
HETATM   35 CL   UNL     1      41.730 -12.398   6.099  1.00  0.00    -0.083 Cl
HETATM   36  C   UNL     1      43.572 -14.318   5.795  1.00  0.00     0.028 A 
HETATM   37  C   UNL     1      44.048 -15.565   5.371  1.00  0.00     0.032 A 
ENDBRANCH   7  30
TORSDOF 5
ENDMDL
MODEL 3
REMARK VINA RESULT:      -9.0      2.956      3.408
REMARK  5 active torsions:
REMARK  status: ('A' for Active; 'I' for Inactive)
REMARK    1  A    between atoms: C_6  and  S_7 
REMARK    2  A    between atoms: S_7  and  C_8 
REMARK    3  A    between atoms: C_8  and  C_9 
REMARK       I    between atoms: C_9  and  N_10 
REMARK    4  A    between atoms: N_10  and  C_11 
REMARK    5  A    between atoms: N_22  and  C_23 
ROOT
HETATM    1  C   UNL     1      44.954 -22.141   4.958  1.00  0.00     0.001 A 
HETATM    2  C   UNL     1      44.785 -20.781   5.214  1.00  0.00     0.019 A 
HETATM    3  C   UNL     1      44.348 -19.929   4.191  1.00  0.00     0.061 A 
HETATM    4  C   UNL     1      44.085 -20.423   2.919  1.00  0.00     0.075 A 
HETATM    5  N   UNL     1      43.718 -19.589   1.860  1.00  0.00    -0.223 NA
HETATM    6  C   UNL     1      43.491 -18.336   2.102  1.00  0.00     0.177 A 
HETATM    7  N   UNL     1      43.601 -17.749   3.366  1.00  0.00    -0.256 N 
HETATM    8  C   UNL     1      44.107 -18.497   4.439  1.00  0.00     0.267 A 
HETATM    9  O   UNL     1      44.319 -18.072   5.574  1.00  0.00    -0.267 OA
HETATM   10  C   UNL     1      44.243 -21.790   2.675  1.00  0.00     0.032 A 
HETATM   11  C   UNL     1      44.676 -22.647   3.689  1.00  0.00     0.002 A 
ENDROOT
BRANCH   6  12
HETATM   12  S   UNL     1      43.171 -17.311   0.705  1.00  0.00    -0.082 SA
BRANCH  12  13
HETATM   13  C   UNL     1      41.393 -16.980   0.851  1.00  0.00     0.185 C 
BRANCH  13  14
HETATM   14  C   UNL     1      41.069 -15.503   0.650  1.00  0.00     0.231 C 
HETATM   15  N   UNL     1      42.069 -14.801   0.004  1.00  0.00    -0.326 N 
HETATM   16  H   UNL     1      42.934 -15.317  -0.149  1.00  0.00     0.169 HD
HETATM   17  O   UNL     1      39.990 -15.044   1.016  1.00  0.00    -0.272 OA
BRANCH  15  18
HETATM   18  C   UNL     1      42.057 -13.458  -0.421  1.00  0.00     0.037 A 
HETATM   19  C   UNL     1      42.206 -13.068  -1.757  1.00  0.00     0.061 A 
HETATM   20  C   UNL     1      42.216 -11.716  -2.017  1.00  0.00     0.065 A 
HETATM   21  C   UNL     1      42.077 -10.759  -1.013  1.00  0.00     0.063 A 
HETATM   22  N   UNL     1      42.365 -11.044  -3.225  1.00  0.00    -0.306 N 
HETATM   23  N   UNL     1      42.139  -9.503  -1.604  1.00  0.00    -0.307 N 
HETATM   24  C   UNL     1      41.917 -11.104   0.304  1.00  0.00     0.034 A 
HETATM   25  C   UNL     1      42.322  -9.664  -2.985  1.00  0.00     0.325 A 
HETATM   26  H   UNL     1      42.075  -8.607  -1.150  1.00  0.00     0.170 HD
HETATM   27  O   UNL     1      42.426  -8.775  -3.811  1.00  0.00    -0.247 OA
HETATM   28  C   UNL     1      41.909 -12.474   0.593  1.00  0.00     0.032 A 
HETATM   29  H   UNL     1      42.489 -11.455  -4.137  1.00  0.00     0.170 HD
ENDBRANCH  15  18
ENDBRANCH  13  14
ENDBRANCH  12  13
ENDBRANCH   6  12
BRANCH   7  30
HETATM   30  C   UNL     1      43.157 -16.413   3.654  1.00  0.00     0.046 A 
HETATM   31  C   UNL     1      41.909 -16.184   4.254  1.00  0.00     0.055 A 
HETATM   32  C   UNL     1      41.453 -14.881   4.490  1.00  0.00     0.058 A 
HETATM   33 CL   UNL     1      39.912 -14.694   5.250  1.00  0.00    -0.082 Cl
HETATM   34  C   UNL     1      42.238 -13.787   4.114  1.00  0.00     0.055 A 
HETATM   35 CL   UNL     1      41.738 -12.154   4.364  1.00  0.00    -0.083 Cl
HETATM   36  C   UNL     1      43.474 -14.002   3.502  1.00  0.00     0.028 A 
HETATM   37  C   UNL     1      43.929 -15.306   3.270  1.00  0.00     0.032 A 
ENDBRANCH   7  30
TORSDOF 5
ENDMDL
MODEL 4
REMARK VINA RESULT:      -8.8      2.678      8.931
REMARK  5 active torsions:
REMARK  status: ('A' for Active; 'I' for Inactive)
REMARK    1  A    between atoms: C_6  and  S_7 
REMARK    2  A    between atoms: S_7  and  C_8 
REMARK    3  A    between atoms: C_8  and  C_9 
REMARK       I    between atoms: C_9  and  N_10 
REMARK    4  A    between atoms: N_10  and  C_11 
REMARK    5  A    between atoms: N_22  and  C_23 
ROOT
HETATM    1  C   UNL     1      38.168  -8.339   3.965  1.00  0.00     0.001 A 
HETATM    2  C   UNL     1      38.388  -9.549   4.624  1.00  0.00     0.019 A 
HETATM    3  C   UNL     1      39.301 -10.471   4.096  1.00  0.00     0.061 A 
HETATM    4  C   UNL     1      39.989 -10.198   2.921  1.00  0.00     0.075 A 
HETATM    5  N   UNL     1      40.852 -11.126   2.332  1.00  0.00    -0.223 NA
HETATM    6  C   UNL     1      41.116 -12.223   2.969  1.00  0.00     0.177 A 
HETATM    7  N   UNL     1      40.582 -12.555   4.217  1.00  0.00    -0.256 N 
HETATM    8  C   UNL     1      39.599 -11.736   4.792  1.00  0.00     0.267 A 
HETATM    9  O   UNL     1      39.004 -11.960   5.845  1.00  0.00    -0.267 OA
HETATM   10  C   UNL     1      39.774  -8.977   2.276  1.00  0.00     0.032 A 
HETATM   11  C   UNL     1      38.866  -8.050   2.795  1.00  0.00     0.002 A 
ENDROOT
BRANCH   6  12
HETATM   12  S   UNL     1      42.096 -13.412   2.112  1.00  0.00    -0.082 SA
BRANCH  12  13
HETATM   13  C   UNL     1      40.851 -14.559   1.459  1.00  0.00     0.185 C 
BRANCH  13  14
HETATM   14  C   UNL     1      41.119 -15.998   1.888  1.00  0.00     0.231 C 
HETATM   15  N   UNL     1      42.463 -16.299   2.000  1.00  0.00    -0.326 N 
HETATM   16  H   UNL     1      43.100 -15.575   1.673  1.00  0.00     0.169 HD
HETATM   17  O   UNL     1      40.188 -16.761   2.132  1.00  0.00    -0.272 OA
BRANCH  15  18
HETATM   18  C   UNL     1      43.053 -17.493   2.460  1.00  0.00     0.037 A 
HETATM   19  C   UNL     1      43.084 -18.678   1.716  1.00  0.00     0.061 A 
HETATM   20  C   UNL     1      43.659 -19.778   2.314  1.00  0.00     0.065 A 
HETATM   21  C   UNL     1      44.198 -19.736   3.598  1.00  0.00     0.063 A 
HETATM   22  N   UNL     1      43.812 -21.073   1.831  1.00  0.00    -0.306 N 
HETATM   23  N   UNL     1      44.683 -21.002   3.903  1.00  0.00    -0.307 N 
HETATM   24  C   UNL     1      44.196 -18.591   4.352  1.00  0.00     0.034 A 
HETATM   25  C   UNL     1      44.446 -21.849   2.810  1.00  0.00     0.325 A 
HETATM   26  H   UNL     1      45.128 -21.300   4.755  1.00  0.00     0.170 HD
HETATM   27  O   UNL     1      44.735 -23.030   2.733  1.00  0.00    -0.247 OA
HETATM   28  C   UNL     1      43.612 -17.461   3.766  1.00  0.00     0.032 A 
HETATM   29  H   UNL     1      43.522 -21.424   0.932  1.00  0.00     0.170 HD
ENDBRANCH  15  18
ENDBRANCH  13  14
ENDBRANCH  12  13
ENDBRANCH   6  12
BRANCH   7  30
HETATM   30  C   UNL     1      41.036 -13.674   4.995  1.00  0.00     0.046 A 
HETATM   31  C   UNL     1      42.332 -13.697   5.534  1.00  0.00     0.055 A 
HETATM   32  C   UNL     1      42.792 -14.809   6.250  1.00  0.00     0.058 A 
HETATM   33 CL   UNL     1      44.395 -14.742   6.894  1.00  0.00    -0.082 Cl
HETATM   34  C   UNL     1      41.964 -15.920   6.425  1.00  0.00     0.055 A 
HETATM   35 CL   UNL     1      42.466 -17.329   7.287  1.00  0.00    -0.083 Cl
HETATM   36  C   UNL     1      40.679 -15.916   5.880  1.00  0.00     0.028 A 
HETATM   37  C   UNL     1      40.219 -14.802   5.167  1.00  0.00     0.032 A 
ENDBRANCH   7  30
TORSDOF 5
ENDMDL
MODEL 5
REMARK VINA RESULT:      -8.5      4.095      5.646
REMARK  5 active torsions:
REMARK  status: ('A' for Active; 'I' for Inactive)
REMARK    1  A    between atoms: C_6  and  S_7 
REMARK    2  A    between atoms: S_7  and  C_8 
REMARK    3  A    between atoms: C_8  and  C_9 
REMARK       I    between atoms: C_9  and  N_10 
REMARK    4  A    between atoms: N_10  and  C_11 
REMARK    5  A    between atoms: N_22  and  C_23 
ROOT
HETATM    1  C   UNL     1      42.696 -18.417   4.831  1.00  0.00     0.001 A 
HETATM    2  C   UNL     1      41.869 -17.302   4.699  1.00  0.00     0.019 A 
HETATM    3  C   UNL     1      41.754 -16.665   3.456  1.00  0.00     0.061 A 
HETATM    4  C   UNL     1      42.458 -17.128   2.352  1.00  0.00     0.075 A 
HETATM    5  N   UNL     1      42.421 -16.473   1.118  1.00  0.00    -0.223 NA
HETATM    6  C   UNL     1      41.605 -15.478   0.965  1.00  0.00     0.177 A 
HETATM    7  N   UNL     1      40.754 -15.000   1.965  1.00  0.00    -0.256 N 
HETATM    8  C   UNL     1      40.849 -15.517   3.265  1.00  0.00     0.267 A 
HETATM    9  O   UNL     1      40.211 -15.128   4.242  1.00  0.00    -0.267 OA
HETATM   10  C   UNL     1      43.273 -18.256   2.490  1.00  0.00     0.032 A 
HETATM   11  C   UNL     1      43.393 -18.898   3.724  1.00  0.00     0.002 A 
ENDROOT
BRANCH   6  12
HETATM   12  S   UNL     1      41.707 -14.606  -0.563  1.00  0.00    -0.082 SA
BRANCH  12  13
HETATM   13  C   UNL     1      40.971 -15.775  -1.740  1.00  0.00     0.185 C 
BRANCH  13  14
HETATM   14  C   UNL     1      40.120 -15.069  -2.790  1.00  0.00     0.231 C 
HETATM   15  N   UNL     1      38.839 -14.780  -2.359  1.00  0.00    -0.326 N 
HETATM   16  H   UNL     1      38.585 -15.171  -1.454  1.00  0.00     0.169 HD
HETATM   17  O   UNL     1      40.593 -14.778  -3.886  1.00  0.00    -0.272 OA
BRANCH  15  18
HETATM   18  C   UNL     1      37.835 -14.057  -3.033  1.00  0.00     0.037 A 
HETATM   19  C   UNL     1      37.025 -14.608  -4.034  1.00  0.00     0.061 A 
HETATM   20  C   UNL     1      36.114 -13.768  -4.634  1.00  0.00     0.065 A 
HETATM   21  C   UNL     1      35.979 -12.428  -4.274  1.00  0.00     0.063 A 
HETATM   22  N   UNL     1      35.205 -14.026  -5.654  1.00  0.00    -0.306 N 
HETATM   23  N   UNL     1      34.989 -11.865  -5.071  1.00  0.00    -0.307 N 
HETATM   24  C   UNL     1      36.747 -11.858  -3.292  1.00  0.00     0.034 A 
HETATM   25  C   UNL     1      34.498 -12.850  -5.940  1.00  0.00     0.325 A 
HETATM   26  H   UNL     1      34.659 -10.915  -5.059  1.00  0.00     0.170 HD
HETATM   27  O   UNL     1      33.628 -12.706  -6.781  1.00  0.00    -0.247 OA
HETATM   28  C   UNL     1      37.685 -12.692  -2.671  1.00  0.00     0.032 A 
HETATM   29  H   UNL     1      35.059 -14.902  -6.131  1.00  0.00     0.170 HD
ENDBRANCH  15  18
ENDBRANCH  13  14
ENDBRANCH  12  13
ENDBRANCH   6  12
BRANCH   7  30
HETATM   30  C   UNL     1      39.720 -14.033   1.722  1.00  0.00     0.046 A 
HETATM   31  C   UNL     1      39.886 -12.691   2.100  1.00  0.00     0.055 A 
HETATM   32  C   UNL     1      38.860 -11.758   1.909  1.00  0.00     0.058 A 
HETATM   33 CL   UNL     1      39.160 -10.124   2.387  1.00  0.00    -0.082 Cl
HETATM   34  C   UNL     1      37.644 -12.160   1.349  1.00  0.00     0.055 A 
HETATM   35 CL   UNL     1      36.331 -11.069   1.092  1.00  0.00    -0.083 Cl
HETATM   36  C   UNL     1      37.461 -13.495   0.984  1.00  0.00     0.028 A 
HETATM   37  C   UNL     1      38.489 -14.426   1.173  1.00  0.00     0.032 A 
ENDBRANCH   7  30
TORSDOF 5
ENDMDL
MODEL 6
REMARK VINA RESULT:      -8.4      4.551      5.973
REMARK  5 active torsions:
REMARK  status: ('A' for Active; 'I' for Inactive)
REMARK    1  A    between atoms: C_6  and  S_7 
REMARK    2  A    between atoms: S_7  and  C_8 
REMARK    3  A    between atoms: C_8  and  C_9 
REMARK       I    between atoms: C_9  and  N_10 
REMARK    4  A    between atoms: N_10  and  C_11 
REMARK    5  A    between atoms: N_22  and  C_23 
ROOT
HETATM    1  C   UNL     1      44.328 -19.664   4.651  1.00  0.00     0.001 A 
HETATM    2  C   UNL     1      43.431 -19.133   3.725  1.00  0.00     0.019 A 
HETATM    3  C   UNL     1      43.014 -17.801   3.847  1.00  0.00     0.061 A 
HETATM    4  C   UNL     1      43.479 -17.002   4.884  1.00  0.00     0.075 A 
HETATM    5  N   UNL     1      43.027 -15.694   5.075  1.00  0.00    -0.223 NA
HETATM    6  C   UNL     1      42.248 -15.167   4.184  1.00  0.00     0.177 A 
HETATM    7  N   UNL     1      41.812 -15.829   3.032  1.00  0.00    -0.256 N 
HETATM    8  C   UNL     1      42.109 -17.189   2.857  1.00  0.00     0.267 A 
HETATM    9  O   UNL     1      41.721 -17.895   1.929  1.00  0.00    -0.267 OA
HETATM   10  C   UNL     1      44.389 -17.539   5.799  1.00  0.00     0.032 A 
HETATM   11  C   UNL     1      44.812 -18.866   5.685  1.00  0.00     0.002 A 
ENDROOT
BRANCH   6  12
HETATM   12  S   UNL     1      41.600 -13.570   4.551  1.00  0.00    -0.082 SA
BRANCH  12  13
HETATM   13  C   UNL     1      40.150 -13.952   5.572  1.00  0.00     0.185 C 
BRANCH  13  14
HETATM   14  C   UNL     1      39.498 -12.693   6.133  1.00  0.00     0.231 C 
HETATM   15  N   UNL     1      40.073 -12.250   7.309  1.00  0.00    -0.326 N 
HETATM   16  H   UNL     1      40.770 -12.872   7.714  1.00  0.00     0.169 HD
HETATM   17  O   UNL     1      38.575 -12.146   5.533  1.00  0.00    -0.272 OA
BRANCH  15  18
HETATM   18  C   UNL     1      39.782 -11.078   8.034  1.00  0.00     0.037 A 
HETATM   19  C   UNL     1      39.052 -11.068   9.230  1.00  0.00     0.061 A 
HETATM   20  C   UNL     1      38.809  -9.841   9.805  1.00  0.00     0.065 A 
HETATM   21  C   UNL     1      39.264  -8.648   9.246  1.00  0.00     0.063 A 
HETATM   22  N   UNL     1      38.108  -9.526  10.964  1.00  0.00    -0.306 N 
HETATM   23  N   UNL     1      38.844  -7.603  10.060  1.00  0.00    -0.307 N 
HETATM   24  C   UNL     1      39.990  -8.619   8.083  1.00  0.00     0.034 A 
HETATM   25  C   UNL     1      38.118  -8.136  11.135  1.00  0.00     0.325 A 
HETATM   26  H   UNL     1      39.008  -6.620   9.929  1.00  0.00     0.170 HD
HETATM   27  O   UNL     1      37.596  -7.507  12.039  1.00  0.00    -0.247 OA
HETATM   28  C   UNL     1      40.245  -9.856   7.477  1.00  0.00     0.032 A 
HETATM   29  H   UNL     1      37.654 -10.170  11.592  1.00  0.00     0.170 HD
ENDBRANCH  15  18
ENDBRANCH  13  14
ENDBRANCH  12  13
ENDBRANCH   6  12
BRANCH   7  30
HETATM   30  C   UNL     1      41.117 -15.171   1.962  1.00  0.00     0.046 A 
HETATM   31  C   UNL     1      39.716 -15.081   1.962  1.00  0.00     0.055 A 
HETATM   32  C   UNL     1      39.033 -14.484   0.895  1.00  0.00     0.058 A 
HETATM   33 CL   UNL     1      37.310 -14.401   0.989  1.00  0.00    -0.082 Cl
HETATM   34  C   UNL     1      39.746 -13.979  -0.196  1.00  0.00     0.055 A 
HETATM   35 CL   UNL     1      38.974 -13.238  -1.551  1.00  0.00    -0.083 Cl
HETATM   36  C   UNL     1      41.139 -14.077  -0.215  1.00  0.00     0.028 A 
HETATM   37  C   UNL     1      41.819 -14.672   0.854  1.00  0.00     0.032 A 
ENDBRANCH   7  30
TORSDOF 5
ENDMDL
MODEL 7
REMARK VINA RESULT:      -8.4      3.945      6.757
REMARK  5 active torsions:
REMARK  status: ('A' for Active; 'I' for Inactive)
REMARK    1  A    between atoms: C_6  and  S_7 
REMARK    2  A    between atoms: S_7  and  C_8 
REMARK    3  A    between atoms: C_8  and  C_9 
REMARK       I    between atoms: C_9  and  N_10 
REMARK    4  A    between atoms: N_10  and  C_11 
REMARK    5  A    between atoms: N_22  and  C_23 
ROOT
HETATM    1  C   UNL     1      45.491 -11.490  10.176  1.00  0.00     0.001 A 
HETATM    2  C   UNL     1      45.403 -12.491   9.209  1.00  0.00     0.019 A 
HETATM    3  C   UNL     1      44.317 -12.509   8.323  1.00  0.00     0.061 A 
HETATM    4  C   UNL     1      43.322 -11.543   8.399  1.00  0.00     0.075 A 
HETATM    5  N   UNL     1      42.191 -11.574   7.580  1.00  0.00    -0.223 NA
HETATM    6  C   UNL     1      42.131 -12.458   6.633  1.00  0.00     0.177 A 
HETATM    7  N   UNL     1      43.129 -13.404   6.378  1.00  0.00    -0.256 N 
HETATM    8  C   UNL     1      44.217 -13.520   7.255  1.00  0.00     0.267 A 
HETATM    9  O   UNL     1      45.115 -14.357   7.179  1.00  0.00    -0.267 OA
HETATM   10  C   UNL     1      43.426 -10.534   9.362  1.00  0.00     0.032 A 
HETATM   11  C   UNL     1      44.506 -10.507  10.248  1.00  0.00     0.002 A 
ENDROOT
BRANCH   6  12
HETATM   12  S   UNL     1      40.622 -12.538   5.727  1.00  0.00    -0.082 SA
BRANCH  12  13
HETATM   13  C   UNL     1      40.677 -11.028   4.724  1.00  0.00     0.185 C 
BRANCH  13  14
HETATM   14  C   UNL     1      40.698 -11.334   3.230  1.00  0.00     0.231 C 
HETATM   15  N   UNL     1      40.312 -12.626   2.926  1.00  0.00    -0.326 N 
HETATM   16  H   UNL     1      40.178 -13.241   3.728  1.00  0.00     0.169 HD
HETATM   17  O   UNL     1      41.002 -10.465   2.417  1.00  0.00    -0.272 OA
BRANCH  15  18
HETATM   18  C   UNL     1      40.129 -13.205   1.655  1.00  0.00     0.037 A 
HETATM   19  C   UNL     1      41.186 -13.589   0.820  1.00  0.00     0.061 A 
HETATM   20  C   UNL     1      40.853 -14.103  -0.413  1.00  0.00     0.065 A 
HETATM   21  C   UNL     1      39.533 -14.252  -0.833  1.00  0.00     0.063 A 
HETATM   22  N   UNL     1      41.677 -14.543  -1.444  1.00  0.00    -0.306 N 
HETATM   23  N   UNL     1      39.545 -14.783  -2.116  1.00  0.00    -0.307 N 
HETATM   24  C   UNL     1      38.473 -13.897  -0.038  1.00  0.00     0.034 A 
HETATM   25  C   UNL     1      40.877 -14.967  -2.513  1.00  0.00     0.325 A 
HETATM   26  H   UNL     1      38.754 -15.004  -2.696  1.00  0.00     0.170 HD
HETATM   27  O   UNL     1      41.261 -15.409  -3.582  1.00  0.00    -0.247 OA
HETATM   28  C   UNL     1      38.786 -13.367   1.220  1.00  0.00     0.032 A 
HETATM   29  H   UNL     1      42.685 -14.562  -1.449  1.00  0.00     0.170 HD
ENDBRANCH  15  18
ENDBRANCH  13  14
ENDBRANCH  12  13
ENDBRANCH   6  12
BRANCH   7  30
HETATM   30  C   UNL     1      43.140 -14.240   5.211  1.00  0.00     0.046 A 
HETATM   31  C   UNL     1      42.704 -15.573   5.277  1.00  0.00     0.055 A 
HETATM   32  C   UNL     1      42.761 -16.404   4.151  1.00  0.00     0.058 A 
HETATM   33 CL   UNL     1      42.185 -18.025   4.320  1.00  0.00    -0.082 Cl
HETATM   34  C   UNL     1      43.269 -15.915   2.945  1.00  0.00     0.055 A 
HETATM   35 CL   UNL     1      43.379 -16.882   1.520  1.00  0.00    -0.083 Cl
HETATM   36  C   UNL     1      43.722 -14.596   2.872  1.00  0.00     0.028 A 
HETATM   37  C   UNL     1      43.661 -13.766   3.997  1.00  0.00     0.032 A 
ENDBRANCH   7  30
TORSDOF 5
ENDMDL
MODEL 8
REMARK VINA RESULT:      -8.4      1.921      2.436
REMARK  5 active torsions:
REMARK  status: ('A' for Active; 'I' for Inactive)
REMARK    1  A    between atoms: C_6  and  S_7 
REMARK    2  A    between atoms: S_7  and  C_8 
REMARK    3  A    between atoms: C_8  and  C_9 
REMARK       I    between atoms: C_9  and  N_10 
REMARK    4  A    between atoms: N_10  and  C_11 
REMARK    5  A    between atoms: N_22  and  C_23 
ROOT
HETATM    1  C   UNL     1      44.647 -22.353   4.927  1.00  0.00     0.001 A 
HETATM    2  C   UNL     1      44.307 -21.107   5.454  1.00  0.00     0.019 A 
HETATM    3  C   UNL     1      44.111 -20.019   4.593  1.00  0.00     0.061 A 
HETATM    4  C   UNL     1      44.257 -20.163   3.219  1.00  0.00     0.075 A 
HETATM    5  N   UNL     1      44.139 -19.083   2.342  1.00  0.00    -0.223 NA
HETATM    6  C   UNL     1      43.756 -17.937   2.811  1.00  0.00     0.177 A 
HETATM    7  N   UNL     1      43.459 -17.700   4.157  1.00  0.00    -0.256 N 
HETATM    8  C   UNL     1      43.698 -18.701   5.109  1.00  0.00     0.267 A 
HETATM    9  O   UNL     1      43.548 -18.588   6.324  1.00  0.00    -0.267 OA
HETATM   10  C   UNL     1      44.583 -21.419   2.699  1.00  0.00     0.032 A 
HETATM   11  C   UNL     1      44.779 -22.511   3.549  1.00  0.00     0.002 A 
ENDROOT
BRANCH   6  12
HETATM   12  S   UNL     1      43.764 -16.583   1.683  1.00  0.00    -0.082 SA
BRANCH  12  13
HETATM   13  C   UNL     1      42.191 -16.787   0.803  1.00  0.00     0.185 C 
BRANCH  13  14
HETATM   14  C   UNL     1      41.537 -15.447   0.483  1.00  0.00     0.231 C 
HETATM   15  N   UNL     1      40.182 -15.541   0.228  1.00  0.00    -0.326 N 
HETATM   16  H   UNL     1      39.814 -16.489   0.169  1.00  0.00     0.169 HD
HETATM   17  O   UNL     1      42.195 -14.410   0.499  1.00  0.00    -0.272 OA
BRANCH  15  18
HETATM   18  C   UNL     1      39.264 -14.497  -0.004  1.00  0.00     0.037 A 
HETATM   19  C   UNL     1      39.106 -13.869  -1.246  1.00  0.00     0.061 A 
HETATM   20  C   UNL     1      38.199 -12.835  -1.312  1.00  0.00     0.065 A 
HETATM   21  C   UNL     1      37.455 -12.418  -0.210  1.00  0.00     0.063 A 
HETATM   22  N   UNL     1      37.851 -12.026  -2.388  1.00  0.00    -0.306 N 
HETATM   23  N   UNL     1      36.651 -11.357  -0.608  1.00  0.00    -0.307 N 
HETATM   24  C   UNL     1      37.576 -13.017   1.018  1.00  0.00     0.034 A 
HETATM   25  C   UNL     1      36.889 -11.099  -1.965  1.00  0.00     0.325 A 
HETATM   26  H   UNL     1      36.002 -10.835  -0.045  1.00  0.00     0.170 HD
HETATM   27  O   UNL     1      36.363 -10.233  -2.641  1.00  0.00    -0.247 OA
HETATM   28  C   UNL     1      38.496 -14.069   1.111  1.00  0.00     0.032 A 
HETATM   29  H   UNL     1      38.216 -12.073  -3.326  1.00  0.00     0.170 HD
ENDBRANCH  15  18
ENDBRANCH  13  14
ENDBRANCH  12  13
ENDBRANCH   6  12
BRANCH   7  30
HETATM   30  C   UNL     1      42.848 -16.487   4.625  1.00  0.00     0.046 A 
HETATM   31  C   UNL     1      43.579 -15.561   5.385  1.00  0.00     0.055 A 
HETATM   32  C   UNL     1      42.972 -14.402   5.885  1.00  0.00     0.058 A 
HETATM   33 CL   UNL     1      43.955 -13.309   6.794  1.00  0.00    -0.082 Cl
HETATM   34  C   UNL     1      41.618 -14.161   5.641  1.00  0.00     0.055 A 
HETATM   35 CL   UNL     1      40.799 -12.761   6.232  1.00  0.00    -0.083 Cl
HETATM   36  C   UNL     1      40.876 -15.084   4.900  1.00  0.00     0.028 A 
HETATM   37  C   UNL     1      41.485 -16.240   4.399  1.00  0.00     0.032 A 
ENDBRANCH   7  30
TORSDOF 5
ENDMDL
MODEL 9
REMARK VINA RESULT:      -8.3      2.813      3.270
REMARK  5 active torsions:
REMARK  status: ('A' for Active; 'I' for Inactive)
REMARK    1  A    between atoms: C_6  and  S_7 
REMARK    2  A    between atoms: S_7  and  C_8 
REMARK    3  A    between atoms: C_8  and  C_9 
REMARK       I    between atoms: C_9  and  N_10 
REMARK    4  A    between atoms: N_10  and  C_11 
REMARK    5  A    between atoms: N_22  and  C_23 
ROOT
HETATM    1  C   UNL     1      44.912 -21.740   3.874  1.00  0.00     0.001 A 
HETATM    2  C   UNL     1      44.832 -20.421   4.318  1.00  0.00     0.019 A 
HETATM    3  C   UNL     1      44.133 -19.473   3.559  1.00  0.00     0.061 A 
HETATM    4  C   UNL     1      43.522 -19.830   2.363  1.00  0.00     0.075 A 
HETATM    5  N   UNL     1      42.880 -18.895   1.548  1.00  0.00    -0.223 NA
HETATM    6  C   UNL     1      42.740 -17.682   1.982  1.00  0.00     0.177 A 
HETATM    7  N   UNL     1      43.202 -17.233   3.223  1.00  0.00    -0.256 N 
HETATM    8  C   UNL     1      43.982 -18.082   4.022  1.00  0.00     0.267 A 
HETATM    9  O   UNL     1      44.506 -17.779   5.092  1.00  0.00    -0.267 OA
HETATM   10  C   UNL     1      43.594 -21.159   1.934  1.00  0.00     0.032 A 
HETATM   11  C   UNL     1      44.287 -22.111   2.686  1.00  0.00     0.002 A 
ENDROOT
BRANCH   6  12
HETATM   12  S   UNL     1      42.050 -16.518   0.852  1.00  0.00    -0.082 SA
BRANCH  12  13
HETATM   13  C   UNL     1      40.358 -16.313   1.472  1.00  0.00     0.185 C 
BRANCH  13  14
HETATM   14  C   UNL     1      39.678 -15.082   0.882  1.00  0.00     0.231 C 
HETATM   15  N   UNL     1      40.029 -14.834  -0.431  1.00  0.00    -0.326 N 
HETATM   16  H   UNL     1      40.775 -15.421  -0.801  1.00  0.00     0.169 HD
HETATM   17  O   UNL     1      38.875 -14.432   1.547  1.00  0.00    -0.272 OA
BRANCH  15  18
HETATM   18  C   UNL     1      39.520 -13.847  -1.298  1.00  0.00     0.037 A 
HETATM   19  C   UNL     1      38.319 -13.982  -2.005  1.00  0.00     0.061 A 
HETATM   20  C   UNL     1      37.970 -12.951  -2.848  1.00  0.00     0.065 A 
HETATM   21  C   UNL     1      38.755 -11.811  -3.003  1.00  0.00     0.063 A 
HETATM   22  N   UNL     1      36.861 -12.818  -3.677  1.00  0.00    -0.306 N 
HETATM   23  N   UNL     1      38.131 -10.979  -3.924  1.00  0.00    -0.307 N 
HETATM   24  C   UNL     1      39.931 -11.639  -2.319  1.00  0.00     0.034 A 
HETATM   25  C   UNL     1      36.948 -11.596  -4.357  1.00  0.00     0.325 A 
HETATM   26  H   UNL     1      38.447 -10.083  -4.254  1.00  0.00     0.170 HD
HETATM   27  O   UNL     1      36.155 -11.153  -5.169  1.00  0.00    -0.247 OA
HETATM   28  C   UNL     1      40.310 -12.677  -1.459  1.00  0.00     0.032 A 
HETATM   29  H   UNL     1      36.108 -13.477  -3.794  1.00  0.00     0.170 HD
ENDBRANCH  15  18
ENDBRANCH  13  14
ENDBRANCH  12  13
ENDBRANCH   6  12
BRANCH   7  30
HETATM   30  C   UNL     1      42.867 -15.948   3.770  1.00  0.00     0.046 A 
HETATM   31  C   UNL     1      41.726 -15.783   4.570  1.00  0.00     0.055 A 
HETATM   32  C   UNL     1      41.370 -14.522   5.063  1.00  0.00     0.058 A 
HETATM   33 CL   UNL     1      39.959 -14.416   6.056  1.00  0.00    -0.082 Cl
HETATM   34  C   UNL     1      42.147 -13.404   4.749  1.00  0.00     0.055 A 
HETATM   35 CL   UNL     1      41.765 -11.817   5.311  1.00  0.00    -0.083 Cl
HETATM   36  C   UNL     1      43.275 -13.552   3.940  1.00  0.00     0.028 A 
HETATM   37  C   UNL     1      43.630 -14.815   3.451  1.00  0.00     0.032 A 
ENDBRANCH   7  30
TORSDOF 5
ENDMDL
MODEL 10
REMARK VINA RESULT:      -8.2      3.554      8.978
REMARK  5 active torsions:
REMARK  status: ('A' for Active; 'I' for Inactive)
REMARK    1  A    between atoms: C_6  and  S_7 
REMARK    2  A    between atoms: S_7  and  C_8 
REMARK    3  A    between atoms: C_8  and  C_9 
REMARK       I    between atoms: C_9  and  N_10 
REMARK    4  A    between atoms: N_10  and  C_11 
REMARK    5  A    between atoms: N_22  and  C_23 
ROOT
HETATM    1  C   UNL     1      42.412  -9.730  -3.948  1.00  0.00     0.001 A 
HETATM    2  C   UNL     1      42.009  -9.693  -2.614  1.00  0.00     0.019 A 
HETATM    3  C   UNL     1      41.586 -10.870  -1.982  1.00  0.00     0.061 A 
HETATM    4  C   UNL     1      41.558 -12.076  -2.671  1.00  0.00     0.075 A 
HETATM    5  N   UNL     1      41.075 -13.252  -2.093  1.00  0.00    -0.223 NA
HETATM    6  C   UNL     1      40.762 -13.245  -0.835  1.00  0.00     0.177 A 
HETATM    7  N   UNL     1      40.866 -12.124  -0.006  1.00  0.00    -0.256 N 
HETATM    8  C   UNL     1      41.204 -10.880  -0.559  1.00  0.00     0.267 A 
HETATM    9  O   UNL     1      41.254  -9.814   0.051  1.00  0.00    -0.267 OA
HETATM   10  C   UNL     1      41.979 -12.106  -4.004  1.00  0.00     0.032 A 
HETATM   11  C   UNL     1      42.403 -10.938  -4.642  1.00  0.00     0.002 A 
ENDROOT
BRANCH   6  12
HETATM   12  S   UNL     1      40.026 -14.716  -0.200  1.00  0.00    -0.082 SA
BRANCH  12  13
HETATM   13  C   UNL     1      41.344 -15.945  -0.410  1.00  0.00     0.185 C 
BRANCH  13  14
HETATM   14  C   UNL     1      41.516 -16.815   0.830  1.00  0.00     0.231 C 
HETATM   15  N   UNL     1      42.788 -17.341   0.963  1.00  0.00    -0.326 N 
HETATM   16  H   UNL     1      43.409 -17.185   0.171  1.00  0.00     0.169 HD
HETATM   17  O   UNL     1      40.589 -16.969   1.620  1.00  0.00    -0.272 OA
BRANCH  15  18
HETATM   18  C   UNL     1      43.310 -18.101   2.029  1.00  0.00     0.037 A 
HETATM   19  C   UNL     1      43.609 -19.465   1.933  1.00  0.00     0.061 A 
HETATM   20  C   UNL     1      44.074 -20.085   3.071  1.00  0.00     0.065 A 
HETATM   21  C   UNL     1      44.255 -19.406   4.274  1.00  0.00     0.063 A 
HETATM   22  N   UNL     1      44.430 -21.414   3.277  1.00  0.00    -0.306 N 
HETATM   23  N   UNL     1      44.720 -20.314   5.217  1.00  0.00    -0.307 N 
HETATM   24  C   UNL     1      43.983 -18.068   4.403  1.00  0.00     0.034 A 
HETATM   25  C   UNL     1      44.832 -21.574   4.610  1.00  0.00     0.325 A 
HETATM   26  H   UNL     1      44.944 -20.137   6.181  1.00  0.00     0.170 HD
HETATM   27  O   UNL     1      45.204 -22.604   5.142  1.00  0.00    -0.247 OA
HETATM   28  C   UNL     1      43.503 -17.417   3.259  1.00  0.00     0.032 A 
HETATM   29  H   UNL     1      44.408 -22.160   2.600  1.00  0.00     0.170 HD
ENDBRANCH  15  18
ENDBRANCH  13  14
ENDBRANCH  12  13
ENDBRANCH   6  12
BRANCH   7  30
HETATM   30  C   UNL     1      40.707 -12.183   1.420  1.00  0.00     0.046 A 
HETATM   31  C   UNL     1      41.762 -12.605   2.245  1.00  0.00     0.055 A 
HETATM   32  C   UNL     1      41.593 -12.710   3.631  1.00  0.00     0.058 A 
HETATM   33 CL   UNL     1      42.952 -13.219   4.569  1.00  0.00    -0.082 Cl
HETATM   34  C   UNL     1      40.358 -12.406   4.210  1.00  0.00     0.055 A 
HETATM   35 CL   UNL     1      40.072 -12.522   5.908  1.00  0.00    -0.083 Cl
HETATM   36  C   UNL     1      39.296 -12.002   3.398  1.00  0.00     0.028 A 
HETATM   37  C   UNL     1      39.468 -11.894   2.013  1.00  0.00     0.032 A 
ENDBRANCH   7  30
TORSDOF 5
ENDMDL
