MODEL 1
REMARK VINA RESULT:      -8.8      0.000      0.000
REMARK  7 active torsions:
REMARK  status: ('A' for Active; 'I' for Inactive)
REMARK    1  A    between atoms: O_2  and  C_3 
REMARK    2  A    between atoms: C_5  and  C_6 
REMARK    3  A    between atoms: N_8  and  C_9 
REMARK    4  A    between atoms: C_9  and  C_10 
REMARK    5  A    between atoms: C_17  and  C_18 
REMARK       I    between atoms: C_18  and  N_19 
REMARK    6  A    between atoms: N_19  and  N_20 
REMARK       I    between atoms: N_20  and  C_21 
REMARK    7  A    between atoms: C_21  and  C_22 
ROOT
HETATM    1  C   UNL     1      42.209 -16.353   3.776  1.00  0.00     0.104 A 
HETATM    2  N   UNL     1      41.211 -16.702   2.940  1.00  0.00    -0.171 NA
HETATM    3  N   UNL     1      40.547 -15.564   2.694  1.00  0.00    -0.275 N 
HETATM    4  C   UNL     1      41.091 -14.481   3.315  1.00  0.00     0.132 A 
HETATM    5  C   UNL     1      42.178 -14.944   4.043  1.00  0.00     0.082 A 
ENDROOT
BRANCH   5   6
HETATM    6  C   UNL     1      43.040 -14.139   4.898  1.00  0.00     0.274 C 
HETATM    7  N   UNL     1      42.599 -14.021   6.204  1.00  0.00    -0.263 N 
HETATM    8  H   UNL     1      41.666 -14.311   6.488  1.00  0.00     0.190 HD
HETATM    9  O   UNL     1      44.067 -13.585   4.514  1.00  0.00    -0.266 OA
BRANCH   7  10
HETATM   10  N   UNL     1      43.231 -13.096   7.050  1.00  0.00    -0.262 N 
HETATM   11  C   UNL     1      44.219 -13.555   7.896  1.00  0.00     0.286 C 
HETATM   12  O   UNL     1      44.608 -14.723   7.856  1.00  0.00    -0.264 OA
HETATM   13  H   UNL     1      42.807 -12.174   7.125  1.00  0.00     0.190 HD
BRANCH  11  14
HETATM   14  C   UNL     1      44.758 -12.588   8.825  1.00  0.00     0.102 A 
HETATM   15  N   UNL     1      44.122 -12.314  10.020  1.00  0.00    -0.361 N 
HETATM   16  H   UNL     1      43.261 -12.760  10.313  1.00  0.00     0.165 HD
HETATM   17  C   UNL     1      44.821 -11.373  10.727  1.00  0.00     0.088 A 
HETATM   18  C   UNL     1      45.925 -11.026   9.986  1.00  0.00     0.019 A 
HETATM   19  C   UNL     1      45.889 -11.787   8.790  1.00  0.00     0.036 A 
ENDBRANCH  11  14
ENDBRANCH   7  10
ENDBRANCH   5   6
BRANCH   1  20
HETATM   20  C   UNL     1      43.132 -17.393   4.248  1.00  0.00    -0.002 A 
HETATM   21  C   UNL     1      43.521 -18.463   3.434  1.00  0.00     0.050 A 
HETATM   22  C   UNL     1      44.394 -19.450   3.908  1.00  0.00     0.069 A 
HETATM   23  C   UNL     1      44.858 -19.387   5.223  1.00  0.00     0.037 A 
HETATM   24  C   UNL     1      44.463 -18.338   6.052  1.00  0.00     0.004 A 
HETATM   25  C   UNL     1      43.607 -17.348   5.568  1.00  0.00     0.014 A 
BRANCH  22  26
HETATM   26  O   UNL     1      44.703 -20.428   3.000  1.00  0.00    -0.356 OA
HETATM   27  C   UNL     1      43.719 -20.716   2.015  1.00  0.00     0.210 C 
ENDBRANCH  22  26
ENDBRANCH   1  20
BRANCH   3  28
HETATM   28  C   UNL     1      39.410 -15.568   1.783  1.00  0.00     0.189 C 
BRANCH  28  29
HETATM   29  C   UNL     1      39.659 -14.728   0.554  1.00  0.00    -0.038 A 
HETATM   30  C   UNL     1      40.774 -14.971  -0.264  1.00  0.00     0.009 A 
HETATM   31  C   UNL     1      40.985 -14.210  -1.415  1.00  0.00     0.001 A 
HETATM   32  C   UNL     1      40.088 -13.202  -1.763  1.00  0.00     0.000 A 
HETATM   33  C   UNL     1      38.978 -12.951  -0.959  1.00  0.00     0.001 A 
HETATM   34  C   UNL     1      38.763 -13.711   0.191  1.00  0.00     0.009 A 
ENDBRANCH  28  29
ENDBRANCH   3  28
TORSDOF 7
ENDMDL
MODEL 2
REMARK VINA RESULT:      -8.8      2.253      5.722
REMARK  7 active torsions:
REMARK  status: ('A' for Active; 'I' for Inactive)
REMARK    1  A    between atoms: O_2  and  C_3 
REMARK    2  A    between atoms: C_5  and  C_6 
REMARK    3  A    between atoms: N_8  and  C_9 
REMARK    4  A    between atoms: C_9  and  C_10 
REMARK    5  A    between atoms: C_17  and  C_18 
REMARK       I    between atoms: C_18  and  N_19 
REMARK    6  A    between atoms: N_19  and  N_20 
REMARK       I    between atoms: N_20  and  C_21 
REMARK    7  A    between atoms: C_21  and  C_22 
ROOT
HETATM    1  C   UNL     1      43.215 -16.400   4.124  1.00  0.00     0.104 A 
HETATM    2  N   UNL     1      43.767 -17.613   3.924  1.00  0.00    -0.171 NA
HETATM    3  N   UNL     1      44.309 -17.949   5.104  1.00  0.00    -0.275 N 
HETATM    4  C   UNL     1      44.105 -17.014   6.073  1.00  0.00     0.132 A 
HETATM    5  C   UNL     1      43.400 -15.976   5.482  1.00  0.00     0.082 A 
ENDROOT
BRANCH   5   6
HETATM    6  C   UNL     1      42.995 -14.737   6.133  1.00  0.00     0.274 C 
HETATM    7  N   UNL     1      43.991 -14.128   6.874  1.00  0.00    -0.263 N 
HETATM    8  H   UNL     1      44.865 -14.601   7.096  1.00  0.00     0.190 HD
HETATM    9  O   UNL     1      41.865 -14.260   6.061  1.00  0.00    -0.266 OA
BRANCH   7  10
HETATM   10  N   UNL     1      43.650 -13.056   7.714  1.00  0.00    -0.262 N 
HETATM   11  C   UNL     1      44.591 -12.613   8.620  1.00  0.00     0.286 C 
HETATM   12  O   UNL     1      45.732 -13.077   8.640  1.00  0.00    -0.264 OA
HETATM   13  H   UNL     1      42.672 -12.780   7.735  1.00  0.00     0.190 HD
BRANCH  11  14
HETATM   14  C   UNL     1      44.154 -11.585   9.537  1.00  0.00     0.102 A 
HETATM   15  N   UNL     1      42.850 -11.131   9.531  1.00  0.00    -0.361 N 
HETATM   16  H   UNL     1      42.137 -11.479   8.902  1.00  0.00     0.165 HD
HETATM   17  C   UNL     1      42.677 -10.165  10.486  1.00  0.00     0.088 A 
HETATM   18  C   UNL     1      43.883  -9.983  11.121  1.00  0.00     0.019 A 
HETATM   19  C   UNL     1      44.813 -10.873  10.527  1.00  0.00     0.036 A 
ENDBRANCH  11  14
ENDBRANCH   7  10
ENDBRANCH   5   6
BRANCH   1  20
HETATM   20  C   UNL     1      42.534 -15.742   3.003  1.00  0.00    -0.002 A 
HETATM   21  C   UNL     1      42.807 -14.416   2.643  1.00  0.00     0.050 A 
HETATM   22  C   UNL     1      42.136 -13.804   1.578  1.00  0.00     0.069 A 
HETATM   23  C   UNL     1      41.155 -14.512   0.882  1.00  0.00     0.037 A 
HETATM   24  C   UNL     1      40.857 -15.826   1.241  1.00  0.00     0.004 A 
HETATM   25  C   UNL     1      41.541 -16.436   2.293  1.00  0.00     0.014 A 
BRANCH  22  26
HETATM   26  O   UNL     1      42.516 -12.513   1.327  1.00  0.00    -0.356 OA
HETATM   27  C   UNL     1      41.720 -11.783   0.402  1.00  0.00     0.210 C 
ENDBRANCH  22  26
ENDBRANCH   1  20
BRANCH   3  28
HETATM   28  C   UNL     1      44.969 -19.239   5.261  1.00  0.00     0.189 C 
BRANCH  28  29
HETATM   29  C   UNL     1      44.644 -20.188   4.134  1.00  0.00    -0.038 A 
HETATM   30  C   UNL     1      44.818 -21.572   4.292  1.00  0.00     0.009 A 
HETATM   31  C   UNL     1      44.488 -22.449   3.256  1.00  0.00     0.001 A 
HETATM   32  C   UNL     1      43.982 -21.955   2.055  1.00  0.00     0.000 A 
HETATM   33  C   UNL     1      43.805 -20.584   1.886  1.00  0.00     0.001 A 
HETATM   34  C   UNL     1      44.132 -19.705   2.920  1.00  0.00     0.009 A 
ENDBRANCH  28  29
ENDBRANCH   3  28
TORSDOF 7
ENDMDL
MODEL 3
REMARK VINA RESULT:      -8.5      2.021      5.886
REMARK  7 active torsions:
REMARK  status: ('A' for Active; 'I' for Inactive)
REMARK    1  A    between atoms: O_2  and  C_3 
REMARK    2  A    between atoms: C_5  and  C_6 
REMARK    3  A    between atoms: N_8  and  C_9 
REMARK    4  A    between atoms: C_9  and  C_10 
REMARK    5  A    between atoms: C_17  and  C_18 
REMARK       I    between atoms: C_18  and  N_19 
REMARK    6  A    between atoms: N_19  and  N_20 
REMARK       I    between atoms: N_20  and  C_21 
REMARK    7  A    between atoms: C_21  and  C_22 
ROOT
HETATM    1  C   UNL     1      41.414 -14.954   3.054  1.00  0.00     0.104 A 
HETATM    2  N   UNL     1      41.121 -16.030   2.298  1.00  0.00    -0.171 NA
HETATM    3  N   UNL     1      42.157 -16.864   2.461  1.00  0.00    -0.275 N 
HETATM    4  C   UNL     1      43.102 -16.385   3.317  1.00  0.00     0.132 A 
HETATM    5  C   UNL     1      42.667 -15.134   3.729  1.00  0.00     0.082 A 
ENDROOT
BRANCH   5   6
HETATM    6  C   UNL     1      43.383 -14.231   4.621  1.00  0.00     0.274 C 
HETATM    7  N   UNL     1      42.930 -14.241   5.927  1.00  0.00    -0.263 N 
HETATM    8  H   UNL     1      42.059 -14.694   6.194  1.00  0.00     0.190 HD
HETATM    9  O   UNL     1      44.302 -13.497   4.264  1.00  0.00    -0.266 OA
BRANCH   7  10
HETATM   10  N   UNL     1      43.399 -13.257   6.813  1.00  0.00    -0.262 N 
HETATM   11  C   UNL     1      44.343 -13.621   7.750  1.00  0.00     0.286 C 
HETATM   12  O   UNL     1      44.836 -14.750   7.762  1.00  0.00    -0.264 OA
HETATM   13  H   UNL     1      42.890 -12.377   6.836  1.00  0.00     0.190 HD
BRANCH  11  14
HETATM   14  C   UNL     1      44.708 -12.604   8.710  1.00  0.00     0.102 A 
HETATM   15  N   UNL     1      43.891 -12.307   9.782  1.00  0.00    -0.361 N 
HETATM   16  H   UNL     1      43.007 -12.770   9.960  1.00  0.00     0.165 HD
HETATM   17  C   UNL     1      44.448 -11.319  10.548  1.00  0.00     0.088 A 
HETATM   18  C   UNL     1      45.642 -10.962   9.968  1.00  0.00     0.019 A 
HETATM   19  C   UNL     1      45.808 -11.767   8.813  1.00  0.00     0.036 A 
ENDBRANCH  11  14
ENDBRANCH   7  10
ENDBRANCH   5   6
BRANCH   1  20
HETATM   20  C   UNL     1      40.464 -13.835   3.089  1.00  0.00    -0.002 A 
HETATM   21  C   UNL     1      39.928 -13.355   4.290  1.00  0.00     0.050 A 
HETATM   22  C   UNL     1      39.013 -12.295   4.300  1.00  0.00     0.069 A 
HETATM   23  C   UNL     1      38.603 -11.727   3.093  1.00  0.00     0.037 A 
HETATM   24  C   UNL     1      39.113 -12.207   1.887  1.00  0.00     0.004 A 
HETATM   25  C   UNL     1      40.037 -13.253   1.885  1.00  0.00     0.014 A 
BRANCH  22  26
HETATM   26  O   UNL     1      38.584 -11.918   5.544  1.00  0.00    -0.356 OA
HETATM   27  C   UNL     1      39.489 -12.131   6.621  1.00  0.00     0.210 C 
ENDBRANCH  22  26
ENDBRANCH   1  20
BRANCH   3  28
HETATM   28  C   UNL     1      42.154 -18.165   1.803  1.00  0.00     0.189 C 
BRANCH  28  29
HETATM   29  C   UNL     1      43.077 -19.149   2.480  1.00  0.00    -0.038 A 
HETATM   30  C   UNL     1      43.464 -18.965   3.816  1.00  0.00     0.009 A 
HETATM   31  C   UNL     1      44.294 -19.893   4.446  1.00  0.00     0.001 A 
HETATM   32  C   UNL     1      44.747 -21.013   3.752  1.00  0.00     0.000 A 
HETATM   33  C   UNL     1      44.370 -21.207   2.424  1.00  0.00     0.001 A 
HETATM   34  C   UNL     1      43.539 -20.282   1.792  1.00  0.00     0.009 A 
ENDBRANCH  28  29
ENDBRANCH   3  28
TORSDOF 7
ENDMDL
MODEL 4
REMARK VINA RESULT:      -8.4      3.486      9.219
REMARK  7 active torsions:
REMARK  status: ('A' for Active; 'I' for Inactive)
REMARK    1  A    between atoms: O_2  and  C_3 
REMARK    2  A    between atoms: C_5  and  C_6 
REMARK    3  A    between atoms: N_8  and  C_9 
REMARK    4  A    between atoms: C_9  and  C_10 
REMARK    5  A    between atoms: C_17  and  C_18 
REMARK       I    between atoms: C_18  and  N_19 
REMARK    6  A    between atoms: N_19  and  N_20 
REMARK       I    between atoms: N_20  and  C_21 
REMARK    7  A    between atoms: C_21  and  C_22 
ROOT
HETATM    1  C   UNL     1      41.721 -15.583   4.442  1.00  0.00     0.104 A 
HETATM    2  N   UNL     1      42.595 -15.824   5.439  1.00  0.00    -0.171 NA
HETATM    3  N   UNL     1      43.212 -16.963   5.095  1.00  0.00    -0.275 N 
HETATM    4  C   UNL     1      42.795 -17.458   3.897  1.00  0.00     0.132 A 
HETATM    5  C   UNL     1      41.814 -16.595   3.430  1.00  0.00     0.082 A 
ENDROOT
BRANCH   5   6
HETATM    6  C   UNL     1      41.053 -16.752   2.197  1.00  0.00     0.274 C 
HETATM    7  N   UNL     1      41.779 -16.517   1.044  1.00  0.00    -0.263 N 
HETATM    8  H   UNL     1      42.703 -16.091   1.064  1.00  0.00     0.190 HD
HETATM    9  O   UNL     1      39.861 -17.048   2.157  1.00  0.00    -0.266 OA
BRANCH   7  10
HETATM   10  N   UNL     1      41.095 -16.425  -0.179  1.00  0.00    -0.262 N 
HETATM   11  C   UNL     1      41.034 -15.196  -0.801  1.00  0.00     0.286 C 
HETATM   12  O   UNL     1      41.635 -14.218  -0.354  1.00  0.00    -0.264 OA
HETATM   13  H   UNL     1      40.530 -17.225  -0.452  1.00  0.00     0.190 HD
BRANCH  11  14
HETATM   14  C   UNL     1      40.225 -15.130  -1.997  1.00  0.00     0.102 A 
HETATM   15  N   UNL     1      40.195 -16.175  -2.898  1.00  0.00    -0.361 N 
HETATM   16  H   UNL     1      40.724 -17.032  -2.782  1.00  0.00     0.165 HD
HETATM   17  C   UNL     1      39.358 -15.883  -3.941  1.00  0.00     0.088 A 
HETATM   18  C   UNL     1      38.837 -14.630  -3.722  1.00  0.00     0.019 A 
HETATM   19  C   UNL     1      39.380 -14.154  -2.501  1.00  0.00     0.036 A 
ENDBRANCH  11  14
ENDBRANCH   7  10
ENDBRANCH   5   6
BRANCH   1  20
HETATM   20  C   UNL     1      40.871 -14.388   4.521  1.00  0.00    -0.002 A 
HETATM   21  C   UNL     1      40.300 -13.963   5.727  1.00  0.00     0.050 A 
HETATM   22  C   UNL     1      39.482 -12.827   5.777  1.00  0.00     0.069 A 
HETATM   23  C   UNL     1      39.203 -12.126   4.603  1.00  0.00     0.037 A 
HETATM   24  C   UNL     1      39.748 -12.549   3.391  1.00  0.00     0.004 A 
HETATM   25  C   UNL     1      40.577 -13.671   3.351  1.00  0.00     0.014 A 
BRANCH  22  26
HETATM   26  O   UNL     1      39.006 -12.517   7.023  1.00  0.00    -0.356 OA
HETATM   27  C   UNL     1      39.604 -11.403   7.674  1.00  0.00     0.210 C 
ENDBRANCH  22  26
ENDBRANCH   1  20
BRANCH   3  28
HETATM   28  C   UNL     1      44.264 -17.506   5.945  1.00  0.00     0.189 C 
BRANCH  28  29
HETATM   29  C   UNL     1      44.337 -19.012   5.871  1.00  0.00    -0.038 A 
HETATM   30  C   UNL     1      43.724 -19.806   6.852  1.00  0.00     0.009 A 
HETATM   31  C   UNL     1      43.770 -21.199   6.765  1.00  0.00     0.001 A 
HETATM   32  C   UNL     1      44.426 -21.812   5.699  1.00  0.00     0.000 A 
HETATM   33  C   UNL     1      45.038 -21.035   4.718  1.00  0.00     0.001 A 
HETATM   34  C   UNL     1      44.993 -19.643   4.803  1.00  0.00     0.009 A 
ENDBRANCH  28  29
ENDBRANCH   3  28
TORSDOF 7
ENDMDL
MODEL 5
REMARK VINA RESULT:      -8.2      3.378      6.513
REMARK  7 active torsions:
REMARK  status: ('A' for Active; 'I' for Inactive)
REMARK    1  A    between atoms: O_2  and  C_3 
REMARK    2  A    between atoms: C_5  and  C_6 
REMARK    3  A    between atoms: N_8  and  C_9 
REMARK    4  A    between atoms: C_9  and  C_10 
REMARK    5  A    between atoms: C_17  and  C_18 
REMARK       I    between atoms: C_18  and  N_19 
REMARK    6  A    between atoms: N_19  and  N_20 
REMARK       I    between atoms: N_20  and  C_21 
REMARK    7  A    between atoms: C_21  and  C_22 
ROOT
HETATM    1  C   UNL     1      41.747 -14.505   1.476  1.00  0.00     0.104 A 
HETATM    2  N   UNL     1      41.569 -13.636   0.462  1.00  0.00    -0.171 NA
HETATM    3  N   UNL     1      41.502 -14.395  -0.641  1.00  0.00    -0.275 N 
HETATM    4  C   UNL     1      41.601 -15.728  -0.381  1.00  0.00     0.132 A 
HETATM    5  C   UNL     1      41.770 -15.854   0.990  1.00  0.00     0.082 A 
ENDROOT
BRANCH   5   6
HETATM    6  C   UNL     1      41.960 -17.102   1.718  1.00  0.00     0.274 C 
HETATM    7  N   UNL     1      43.220 -17.656   1.584  1.00  0.00    -0.263 N 
HETATM    8  H   UNL     1      43.887 -17.320   0.893  1.00  0.00     0.190 HD
HETATM    9  O   UNL     1      41.085 -17.649   2.385  1.00  0.00    -0.266 OA
BRANCH   7  10
HETATM   10  N   UNL     1      43.441 -18.958   2.060  1.00  0.00    -0.262 N 
HETATM   11  C   UNL     1      44.046 -19.109   3.290  1.00  0.00     0.286 C 
HETATM   12  O   UNL     1      44.308 -18.138   4.001  1.00  0.00    -0.264 OA
HETATM   13  H   UNL     1      43.309 -19.719   1.398  1.00  0.00     0.190 HD
BRANCH  11  14
HETATM   14  C   UNL     1      44.354 -20.465   3.683  1.00  0.00     0.102 A 
HETATM   15  N   UNL     1      44.697 -20.772   4.984  1.00  0.00    -0.361 N 
HETATM   16  H   UNL     1      44.754 -20.084   5.727  1.00  0.00     0.165 HD
HETATM   17  C   UNL     1      44.939 -22.113   5.111  1.00  0.00     0.088 A 
HETATM   18  C   UNL     1      44.755 -22.691   3.877  1.00  0.00     0.019 A 
HETATM   19  C   UNL     1      44.388 -21.658   2.978  1.00  0.00     0.036 A 
ENDBRANCH  11  14
ENDBRANCH   7  10
ENDBRANCH   5   6
BRANCH   1  20
HETATM   20  C   UNL     1      41.865 -13.981   2.842  1.00  0.00    -0.002 A 
HETATM   21  C   UNL     1      43.063 -14.055   3.564  1.00  0.00     0.050 A 
HETATM   22  C   UNL     1      43.149 -13.559   4.871  1.00  0.00     0.069 A 
HETATM   23  C   UNL     1      42.018 -13.013   5.478  1.00  0.00     0.037 A 
HETATM   24  C   UNL     1      40.813 -12.951   4.780  1.00  0.00     0.004 A 
HETATM   25  C   UNL     1      40.737 -13.430   3.472  1.00  0.00     0.014 A 
BRANCH  22  26
HETATM   26  O   UNL     1      44.385 -13.681   5.450  1.00  0.00    -0.356 OA
HETATM   27  C   UNL     1      44.505 -14.634   6.499  1.00  0.00     0.210 C 
ENDBRANCH  22  26
ENDBRANCH   1  20
BRANCH   3  28
HETATM   28  C   UNL     1      41.273 -13.774  -1.939  1.00  0.00     0.189 C 
BRANCH  28  29
HETATM   29  C   UNL     1      40.045 -14.320  -2.626  1.00  0.00    -0.038 A 
HETATM   30  C   UNL     1      40.152 -15.363  -3.559  1.00  0.00     0.009 A 
HETATM   31  C   UNL     1      39.010 -15.885  -4.170  1.00  0.00     0.001 A 
HETATM   32  C   UNL     1      37.752 -15.373  -3.856  1.00  0.00     0.000 A 
HETATM   33  C   UNL     1      37.633 -14.338  -2.931  1.00  0.00     0.001 A 
HETATM   34  C   UNL     1      38.772 -13.816  -2.318  1.00  0.00     0.009 A 
ENDBRANCH  28  29
ENDBRANCH   3  28
TORSDOF 7
ENDMDL
MODEL 6
REMARK VINA RESULT:      -8.2      2.358      5.761
REMARK  7 active torsions:
REMARK  status: ('A' for Active; 'I' for Inactive)
REMARK    1  A    between atoms: O_2  and  C_3 
REMARK    2  A    between atoms: C_5  and  C_6 
REMARK    3  A    between atoms: N_8  and  C_9 
REMARK    4  A    between atoms: C_9  and  C_10 
REMARK    5  A    between atoms: C_17  and  C_18 
REMARK       I    between atoms: C_18  and  N_19 
REMARK    6  A    between atoms: N_19  and  N_20 
REMARK       I    between atoms: N_20  and  C_21 
REMARK    7  A    between atoms: C_21  and  C_22 
ROOT
HETATM    1  C   UNL     1      41.285 -14.112   3.161  1.00  0.00     0.104 A 
HETATM    2  N   UNL     1      41.127 -15.305   2.556  1.00  0.00    -0.171 NA
HETATM    3  N   UNL     1      41.297 -16.214   3.526  1.00  0.00    -0.275 N 
HETATM    4  C   UNL     1      41.531 -15.658   4.746  1.00  0.00     0.132 A 
HETATM    5  C   UNL     1      41.540 -14.283   4.562  1.00  0.00     0.082 A 
ENDROOT
BRANCH   5   6
HETATM    6  C   UNL     1      41.794 -13.284   5.591  1.00  0.00     0.274 C 
HETATM    7  N   UNL     1      42.998 -13.438   6.254  1.00  0.00    -0.263 N 
HETATM    8  H   UNL     1      43.562 -14.280   6.160  1.00  0.00     0.190 HD
HETATM    9  O   UNL     1      41.014 -12.379   5.879  1.00  0.00    -0.266 OA
BRANCH   7  10
HETATM   10  N   UNL     1      43.242 -12.669   7.403  1.00  0.00    -0.262 N 
HETATM   11  C   UNL     1      44.364 -12.953   8.152  1.00  0.00     0.286 C 
HETATM   12  O   UNL     1      45.186 -13.795   7.785  1.00  0.00    -0.264 OA
HETATM   13  H   UNL     1      42.488 -12.064   7.721  1.00  0.00     0.190 HD
BRANCH  11  14
HETATM   14  C   UNL     1      44.509 -12.211   9.383  1.00  0.00     0.102 A 
HETATM   15  N   UNL     1      43.826 -12.580  10.525  1.00  0.00    -0.361 N 
HETATM   16  H   UNL     1      43.197 -13.372  10.571  1.00  0.00     0.165 HD
HETATM   17  C   UNL     1      44.128 -11.732  11.556  1.00  0.00     0.088 A 
HETATM   18  C   UNL     1      45.016 -10.795  11.083  1.00  0.00     0.019 A 
HETATM   19  C   UNL     1      45.258 -11.093   9.718  1.00  0.00     0.036 A 
ENDBRANCH  11  14
ENDBRANCH   7  10
ENDBRANCH   5   6
BRANCH   1  20
HETATM   20  C   UNL     1      41.162 -12.890   2.356  1.00  0.00    -0.002 A 
HETATM   21  C   UNL     1      42.135 -12.517   1.421  1.00  0.00     0.050 A 
HETATM   22  C   UNL     1      42.004 -11.341   0.673  1.00  0.00     0.069 A 
HETATM   23  C   UNL     1      40.904 -10.508   0.884  1.00  0.00     0.037 A 
HETATM   24  C   UNL     1      39.937 -10.856   1.826  1.00  0.00     0.004 A 
HETATM   25  C   UNL     1      40.064 -12.038   2.556  1.00  0.00     0.014 A 
BRANCH  22  26
HETATM   26  O   UNL     1      43.020 -11.109  -0.216  1.00  0.00    -0.356 OA
HETATM   27  C   UNL     1      42.921 -11.756  -1.478  1.00  0.00     0.210 C 
ENDBRANCH  22  26
ENDBRANCH   1  20
BRANCH   3  28
HETATM   28  C   UNL     1      41.157 -17.634   3.226  1.00  0.00     0.189 C 
BRANCH  28  29
HETATM   29  C   UNL     1      42.427 -18.403   3.496  1.00  0.00    -0.038 A 
HETATM   30  C   UNL     1      43.164 -18.960   2.439  1.00  0.00     0.009 A 
HETATM   31  C   UNL     1      44.353 -19.646   2.691  1.00  0.00     0.001 A 
HETATM   32  C   UNL     1      44.819 -19.783   3.998  1.00  0.00     0.000 A 
HETATM   33  C   UNL     1      44.097 -19.235   5.055  1.00  0.00     0.001 A 
HETATM   34  C   UNL     1      42.909 -18.547   4.806  1.00  0.00     0.009 A 
ENDBRANCH  28  29
ENDBRANCH   3  28
TORSDOF 7
ENDMDL
MODEL 7
REMARK VINA RESULT:      -8.1      1.909      7.945
REMARK  7 active torsions:
REMARK  status: ('A' for Active; 'I' for Inactive)
REMARK    1  A    between atoms: O_2  and  C_3 
REMARK    2  A    between atoms: C_5  and  C_6 
REMARK    3  A    between atoms: N_8  and  C_9 
REMARK    4  A    between atoms: C_9  and  C_10 
REMARK    5  A    between atoms: C_17  and  C_18 
REMARK       I    between atoms: C_18  and  N_19 
REMARK    6  A    between atoms: N_19  and  N_20 
REMARK       I    between atoms: N_20  and  C_21 
REMARK    7  A    between atoms: C_21  and  C_22 
ROOT
HETATM    1  C   UNL     1      43.994 -15.365   6.783  1.00  0.00     0.104 A 
HETATM    2  N   UNL     1      44.777 -14.792   7.718  1.00  0.00    -0.171 NA
HETATM    3  N   UNL     1      44.590 -13.473   7.571  1.00  0.00    -0.275 N 
HETATM    4  C   UNL     1      43.692 -13.165   6.595  1.00  0.00     0.132 A 
HETATM    5  C   UNL     1      43.276 -14.367   6.043  1.00  0.00     0.082 A 
ENDROOT
BRANCH   5   6
HETATM    6  C   UNL     1      42.343 -14.522   4.934  1.00  0.00     0.274 C 
HETATM    7  N   UNL     1      42.860 -14.176   3.699  1.00  0.00    -0.263 N 
HETATM    8  H   UNL     1      43.744 -13.681   3.603  1.00  0.00     0.190 HD
HETATM    9  O   UNL     1      41.184 -14.909   5.060  1.00  0.00    -0.266 OA
BRANCH   7  10
HETATM   10  N   UNL     1      41.987 -14.079   2.603  1.00  0.00    -0.262 N 
HETATM   11  C   UNL     1      42.136 -14.980   1.570  1.00  0.00     0.286 C 
HETATM   12  O   UNL     1      42.947 -15.905   1.635  1.00  0.00    -0.264 OA
HETATM   13  H   UNL     1      41.411 -13.243   2.545  1.00  0.00     0.190 HD
BRANCH  11  14
HETATM   14  C   UNL     1      41.290 -14.768   0.418  1.00  0.00     0.102 A 
HETATM   15  N   UNL     1      41.699 -15.142  -0.847  1.00  0.00    -0.361 N 
HETATM   16  H   UNL     1      42.594 -15.576  -1.042  1.00  0.00     0.165 HD
HETATM   17  C   UNL     1      40.732 -14.844  -1.769  1.00  0.00     0.088 A 
HETATM   18  C   UNL     1      39.679 -14.267  -1.100  1.00  0.00     0.019 A 
HETATM   19  C   UNL     1      40.026 -14.217   0.274  1.00  0.00     0.036 A 
ENDBRANCH  11  14
ENDBRANCH   7  10
ENDBRANCH   5   6
BRANCH   1  20
HETATM   20  C   UNL     1      43.975 -16.829   6.677  1.00  0.00    -0.002 A 
HETATM   21  C   UNL     1      44.200 -17.488   5.463  1.00  0.00     0.050 A 
HETATM   22  C   UNL     1      44.165 -18.885   5.383  1.00  0.00     0.069 A 
HETATM   23  C   UNL     1      43.869 -19.635   6.522  1.00  0.00     0.037 A 
HETATM   24  C   UNL     1      43.622 -18.992   7.734  1.00  0.00     0.004 A 
HETATM   25  C   UNL     1      43.676 -17.600   7.812  1.00  0.00     0.014 A 
BRANCH  22  26
HETATM   26  O   UNL     1      44.420 -19.395   4.137  1.00  0.00    -0.356 OA
HETATM   27  C   UNL     1      43.498 -19.056   3.109  1.00  0.00     0.210 C 
ENDBRANCH  22  26
ENDBRANCH   1  20
BRANCH   3  28
HETATM   28  C   UNL     1      45.269 -12.538   8.459  1.00  0.00     0.189 C 
BRANCH  28  29
HETATM   29  C   UNL     1      44.356 -12.011   9.539  1.00  0.00    -0.038 A 
HETATM   30  C   UNL     1      43.381 -11.045   9.243  1.00  0.00     0.009 A 
HETATM   31  C   UNL     1      42.520 -10.581  10.239  1.00  0.00     0.001 A 
HETATM   32  C   UNL     1      42.620 -11.076  11.538  1.00  0.00     0.000 A 
HETATM   33  C   UNL     1      43.584 -12.034  11.844  1.00  0.00     0.001 A 
HETATM   34  C   UNL     1      44.445 -12.501  10.851  1.00  0.00     0.009 A 
ENDBRANCH  28  29
ENDBRANCH   3  28
TORSDOF 7
ENDMDL
MODEL 8
REMARK VINA RESULT:      -8.1      3.337      6.472
REMARK  7 active torsions:
REMARK  status: ('A' for Active; 'I' for Inactive)
REMARK    1  A    between atoms: O_2  and  C_3 
REMARK    2  A    between atoms: C_5  and  C_6 
REMARK    3  A    between atoms: N_8  and  C_9 
REMARK    4  A    between atoms: C_9  and  C_10 
REMARK    5  A    between atoms: C_17  and  C_18 
REMARK       I    between atoms: C_18  and  N_19 
REMARK    6  A    between atoms: N_19  and  N_20 
REMARK       I    between atoms: N_20  and  C_21 
REMARK    7  A    between atoms: C_21  and  C_22 
ROOT
HETATM    1  C   UNL     1      42.916 -16.433   3.722  1.00  0.00     0.104 A 
HETATM    2  N   UNL     1      43.864 -17.387   3.647  1.00  0.00    -0.171 NA
HETATM    3  N   UNL     1      44.027 -17.818   4.906  1.00  0.00    -0.275 N 
HETATM    4  C   UNL     1      43.199 -17.201   5.795  1.00  0.00     0.132 A 
HETATM    5  C   UNL     1      42.455 -16.280   5.072  1.00  0.00     0.082 A 
ENDROOT
BRANCH   5   6
HETATM    6  C   UNL     1      41.466 -15.361   5.619  1.00  0.00     0.274 C 
HETATM    7  N   UNL     1      41.951 -14.095   5.893  1.00  0.00    -0.263 N 
HETATM    8  H   UNL     1      42.946 -13.886   5.889  1.00  0.00     0.190 HD
HETATM    9  O   UNL     1      40.297 -15.665   5.846  1.00  0.00    -0.266 OA
BRANCH   7  10
HETATM   10  N   UNL     1      41.145 -13.205   6.621  1.00  0.00    -0.262 N 
HETATM   11  C   UNL     1      40.860 -11.977   6.061  1.00  0.00     0.286 C 
HETATM   12  O   UNL     1      41.221 -11.693   4.918  1.00  0.00    -0.264 OA
HETATM   13  H   UNL     1      40.963 -13.438   7.593  1.00  0.00     0.190 HD
BRANCH  11  14
HETATM   14  C   UNL     1      40.125 -11.055   6.896  1.00  0.00     0.102 A 
HETATM   15  N   UNL     1      39.745 -11.399   8.178  1.00  0.00    -0.361 N 
HETATM   16  H   UNL     1      39.952 -12.295   8.603  1.00  0.00     0.165 HD
HETATM   17  C   UNL     1      39.067 -10.367   8.768  1.00  0.00     0.088 A 
HETATM   18  C   UNL     1      38.999  -9.336   7.860  1.00  0.00     0.019 A 
HETATM   19  C   UNL     1      39.662  -9.766   6.683  1.00  0.00     0.036 A 
ENDBRANCH  11  14
ENDBRANCH   7  10
ENDBRANCH   5   6
BRANCH   1  20
HETATM   20  C   UNL     1      42.505 -15.748   2.490  1.00  0.00    -0.002 A 
HETATM   21  C   UNL     1      42.591 -14.357   2.351  1.00  0.00     0.050 A 
HETATM   22  C   UNL     1      42.182 -13.724   1.172  1.00  0.00     0.069 A 
HETATM   23  C   UNL     1      41.649 -14.483   0.129  1.00  0.00     0.037 A 
HETATM   24  C   UNL     1      41.538 -15.867   0.260  1.00  0.00     0.004 A 
HETATM   25  C   UNL     1      41.964 -16.495   1.431  1.00  0.00     0.014 A 
BRANCH  22  26
HETATM   26  O   UNL     1      42.337 -12.363   1.168  1.00  0.00    -0.356 OA
HETATM   27  C   UNL     1      42.233 -11.714  -0.093  1.00  0.00     0.210 C 
ENDBRANCH  22  26
ENDBRANCH   1  20
BRANCH   3  28
HETATM   28  C   UNL     1      44.968 -18.893   5.192  1.00  0.00     0.189 C 
BRANCH  28  29
HETATM   29  C   UNL     1      44.752 -20.093   4.303  1.00  0.00    -0.038 A 
HETATM   30  C   UNL     1      44.847 -21.394   4.821  1.00  0.00     0.009 A 
HETATM   31  C   UNL     1      44.618 -22.500   4.000  1.00  0.00     0.001 A 
HETATM   32  C   UNL     1      44.292 -22.321   2.657  1.00  0.00     0.000 A 
HETATM   33  C   UNL     1      44.195 -21.034   2.131  1.00  0.00     0.001 A 
HETATM   34  C   UNL     1      44.422 -19.927   2.949  1.00  0.00     0.009 A 
ENDBRANCH  28  29
ENDBRANCH   3  28
TORSDOF 7
ENDMDL
MODEL 9
REMARK VINA RESULT:      -8.1      2.849      3.288
REMARK  7 active torsions:
REMARK  status: ('A' for Active; 'I' for Inactive)
REMARK    1  A    between atoms: O_2  and  C_3 
REMARK    2  A    between atoms: C_5  and  C_6 
REMARK    3  A    between atoms: N_8  and  C_9 
REMARK    4  A    between atoms: C_9  and  C_10 
REMARK    5  A    between atoms: C_17  and  C_18 
REMARK       I    between atoms: C_18  and  N_19 
REMARK    6  A    between atoms: N_19  and  N_20 
REMARK       I    between atoms: N_20  and  C_21 
REMARK    7  A    between atoms: C_21  and  C_22 
ROOT
HETATM    1  C   UNL     1      40.916 -15.684   3.187  1.00  0.00     0.104 A 
HETATM    2  N   UNL     1      40.490 -15.725   1.910  1.00  0.00    -0.171 NA
HETATM    3  N   UNL     1      39.783 -14.600   1.740  1.00  0.00    -0.275 N 
HETATM    4  C   UNL     1      39.756 -13.811   2.850  1.00  0.00     0.132 A 
HETATM    5  C   UNL     1      40.477 -14.478   3.829  1.00  0.00     0.082 A 
ENDROOT
BRANCH   5   6
HETATM    6  C   UNL     1      40.681 -14.026   5.199  1.00  0.00     0.274 C 
HETATM    7  N   UNL     1      39.515 -13.787   5.902  1.00  0.00    -0.263 N 
HETATM    8  H   UNL     1      38.606 -13.750   5.445  1.00  0.00     0.190 HD
HETATM    9  O   UNL     1      41.786 -13.845   5.707  1.00  0.00    -0.266 OA
BRANCH   7  10
HETATM   10  N   UNL     1      39.594 -13.144   7.148  1.00  0.00    -0.262 N 
HETATM   11  C   UNL     1      39.375 -11.783   7.194  1.00  0.00     0.286 C 
HETATM   12  O   UNL     1      39.030 -11.154   6.193  1.00  0.00    -0.264 OA
HETATM   13  H   UNL     1      39.984 -13.680   7.919  1.00  0.00     0.190 HD
BRANCH  11  14
HETATM   14  C   UNL     1      39.581 -11.151   8.477  1.00  0.00     0.102 A 
HETATM   15  N   UNL     1      40.758 -11.322   9.177  1.00  0.00    -0.361 N 
HETATM   16  H   UNL     1      41.532 -11.886   8.846  1.00  0.00     0.165 HD
HETATM   17  C   UNL     1      40.718 -10.626  10.356  1.00  0.00     0.088 A 
HETATM   18  C   UNL     1      39.498  -9.995  10.429  1.00  0.00     0.019 A 
HETATM   19  C   UNL     1      38.781 -10.323   9.250  1.00  0.00     0.036 A 
ENDBRANCH  11  14
ENDBRANCH   7  10
ENDBRANCH   5   6
BRANCH   1  20
HETATM   20  C   UNL     1      41.729 -16.795   3.698  1.00  0.00    -0.002 A 
HETATM   21  C   UNL     1      42.598 -17.518   2.872  1.00  0.00     0.050 A 
HETATM   22  C   UNL     1      43.355 -18.582   3.378  1.00  0.00     0.069 A 
HETATM   23  C   UNL     1      43.218 -18.951   4.717  1.00  0.00     0.037 A 
HETATM   24  C   UNL     1      42.341 -18.254   5.546  1.00  0.00     0.004 A 
HETATM   25  C   UNL     1      41.603 -17.183   5.041  1.00  0.00     0.014 A 
BRANCH  22  26
HETATM   26  O   UNL     1      44.176 -19.188   2.464  1.00  0.00    -0.356 OA
HETATM   27  C   UNL     1      43.855 -20.528   2.111  1.00  0.00     0.210 C 
ENDBRANCH  22  26
ENDBRANCH   1  20
BRANCH   3  28
HETATM   28  C   UNL     1      39.196 -14.297   0.441  1.00  0.00     0.189 C 
BRANCH  28  29
HETATM   29  C   UNL     1      40.240 -13.943  -0.590  1.00  0.00    -0.038 A 
HETATM   30  C   UNL     1      41.163 -12.914  -0.348  1.00  0.00     0.009 A 
HETATM   31  C   UNL     1      42.146 -12.609  -1.292  1.00  0.00     0.001 A 
HETATM   32  C   UNL     1      42.218 -13.327  -2.484  1.00  0.00     0.000 A 
HETATM   33  C   UNL     1      41.307 -14.351  -2.736  1.00  0.00     0.001 A 
HETATM   34  C   UNL     1      40.325 -14.659  -1.794  1.00  0.00     0.009 A 
ENDBRANCH  28  29
ENDBRANCH   3  28
TORSDOF 7
ENDMDL
MODEL 10
REMARK VINA RESULT:      -7.9      4.434      9.952
REMARK  7 active torsions:
REMARK  status: ('A' for Active; 'I' for Inactive)
REMARK    1  A    between atoms: O_2  and  C_3 
REMARK    2  A    between atoms: C_5  and  C_6 
REMARK    3  A    between atoms: N_8  and  C_9 
REMARK    4  A    between atoms: C_9  and  C_10 
REMARK    5  A    between atoms: C_17  and  C_18 
REMARK       I    between atoms: C_18  and  N_19 
REMARK    6  A    between atoms: N_19  and  N_20 
REMARK       I    between atoms: N_20  and  C_21 
REMARK    7  A    between atoms: C_21  and  C_22 
ROOT
HETATM    1  C   UNL     1      41.767 -13.385   1.045  1.00  0.00     0.104 A 
HETATM    2  N   UNL     1      42.711 -13.730   1.942  1.00  0.00    -0.171 NA
HETATM    3  N   UNL     1      42.147 -14.687   2.693  1.00  0.00    -0.275 N 
HETATM    4  C   UNL     1      40.881 -14.998   2.301  1.00  0.00     0.132 A 
HETATM    5  C   UNL     1      40.581 -14.169   1.230  1.00  0.00     0.082 A 
ENDROOT
BRANCH   5   6
HETATM    6  C   UNL     1      39.313 -14.123   0.513  1.00  0.00     0.274 C 
HETATM    7  N   UNL     1      39.391 -14.515  -0.811  1.00  0.00    -0.263 N 
HETATM    8  H   UNL     1      40.282 -14.642  -1.286  1.00  0.00     0.190 HD
HETATM    9  O   UNL     1      38.253 -13.753   1.012  1.00  0.00    -0.266 OA
BRANCH   7  10
HETATM   10  N   UNL     1      38.282 -14.302  -1.646  1.00  0.00    -0.262 N 
HETATM   11  C   UNL     1      38.510 -13.838  -2.925  1.00  0.00     0.286 C 
HETATM   12  O   UNL     1      39.652 -13.698  -3.365  1.00  0.00    -0.264 OA
HETATM   13  H   UNL     1      37.364 -14.327  -1.210  1.00  0.00     0.190 HD
BRANCH  11  14
HETATM   14  C   UNL     1      37.334 -13.526  -3.705  1.00  0.00     0.102 A 
HETATM   15  N   UNL     1      36.813 -14.433  -4.606  1.00  0.00    -0.361 N 
HETATM   16  H   UNL     1      37.211 -15.350  -4.774  1.00  0.00     0.165 HD
HETATM   17  C   UNL     1      35.703 -13.915  -5.217  1.00  0.00     0.088 A 
HETATM   18  C   UNL     1      35.497 -12.653  -4.712  1.00  0.00     0.019 A 
HETATM   19  C   UNL     1      36.520 -12.406  -3.762  1.00  0.00     0.036 A 
ENDBRANCH  11  14
ENDBRANCH   7  10
ENDBRANCH   5   6
BRANCH   1  20
HETATM   20  C   UNL     1      42.076 -12.338   0.063  1.00  0.00    -0.002 A 
HETATM   21  C   UNL     1      42.331 -12.635  -1.282  1.00  0.00     0.050 A 
HETATM   22  C   UNL     1      42.634 -11.621  -2.199  1.00  0.00     0.069 A 
HETATM   23  C   UNL     1      42.718 -10.298  -1.763  1.00  0.00     0.037 A 
HETATM   24  C   UNL     1      42.487  -9.990  -0.423  1.00  0.00     0.004 A 
HETATM   25  C   UNL     1      42.167 -11.001   0.483  1.00  0.00     0.014 A 
BRANCH  22  26
HETATM   26  O   UNL     1      42.843 -12.053  -3.482  1.00  0.00    -0.356 OA
HETATM   27  C   UNL     1      42.101 -11.397  -4.503  1.00  0.00     0.210 C 
ENDBRANCH  22  26
ENDBRANCH   1  20
BRANCH   3  28
HETATM   28  C   UNL     1      42.913 -15.324   3.757  1.00  0.00     0.189 C 
BRANCH  28  29
HETATM   29  C   UNL     1      43.313 -16.736   3.406  1.00  0.00    -0.038 A 
HETATM   30  C   UNL     1      43.729 -17.059   2.105  1.00  0.00     0.009 A 
HETATM   31  C   UNL     1      44.126 -18.361   1.793  1.00  0.00     0.001 A 
HETATM   32  C   UNL     1      44.112 -19.352   2.773  1.00  0.00     0.000 A 
HETATM   33  C   UNL     1      43.700 -19.043   4.068  1.00  0.00     0.001 A 
HETATM   34  C   UNL     1      43.305 -17.743   4.383  1.00  0.00     0.009 A 
ENDBRANCH  28  29
ENDBRANCH   3  28
TORSDOF 7
ENDMDL
