MODEL 1
REMARK VINA RESULT:      -9.2      0.000      0.000
REMARK  11 active torsions:
REMARK  status: ('A' for Active; 'I' for Inactive)
REMARK    1  A    between atoms: C_2  and  N_3 
REMARK    2  A    between atoms: N_3  and  C_4 
REMARK    3  A    between atoms: C_6  and  N_7 
REMARK    4  A    between atoms: N_10  and  C_12 
REMARK    5  A    between atoms: C_25  and  N_26 
REMARK    6  A    between atoms: N_26  and  C_27 
REMARK    7  A    between atoms: C_27  and  C_28 
REMARK    8  A    between atoms: C_28  and  C_29 
REMARK    9  A    between atoms: C_29  and  O_30 
REMARK   10  A    between atoms: C_34  and  O_35 
REMARK   11  A    between atoms: O_35  and  C_36 
ROOT
HETATM    1  C   UNL     1      41.367 -15.300   4.663  1.00  0.00     0.758 C 
HETATM    2  N   UNL     1      40.763 -14.419   3.872  1.00  0.00     0.131 NA
HETATM    3  C   UNL     1      40.985 -13.141   4.134  1.00  0.00     0.756 C 
HETATM    4  N   UNL     1      41.849 -12.725   5.045  1.00  0.00     0.131 NA
HETATM    5  C   UNL     1      42.385 -13.660   5.814  1.00  0.00     0.754 C 
HETATM    6  N   UNL     1      42.156 -14.960   5.673  1.00  0.00     0.131 NA
ENDROOT
BRANCH   3   7
HETATM    7  N   UNL     1      40.280 -12.175   3.413  1.00  0.00    -0.210 N 
HETATM    8  C   UNL     1      39.068 -12.641   2.733  1.00  0.00     0.169 C 
HETATM    9  C   UNL     1      39.376 -13.270   1.360  1.00  0.00     0.256 C 
HETATM   10  N   UNL     1      40.209 -12.297   0.487  1.00  0.00    -0.059 N 
HETATM   11  H   UNL     1      39.650 -11.436   0.433  1.00  0.00     0.281 HD
HETATM   12  C   UNL     1      41.492 -11.908   1.262  1.00  0.00     0.256 C 
HETATM   13  C   UNL     1      41.139 -11.284   2.634  1.00  0.00     0.169 C 
BRANCH  10  14
HETATM   14  C   UNL     1      40.419 -12.750  -0.973  1.00  0.00     0.129 C 
HETATM   15  C   UNL     1      39.775 -14.148  -1.178  1.00  0.00     0.043 C 
HETATM   16  C   UNL     1      39.932 -14.610  -2.638  1.00  0.00    -0.012 C 
HETATM   17  C   UNL     1      41.430 -14.673  -2.983  1.00  0.00     0.009 C 
HETATM   18  C   UNL     1      39.233 -13.609  -3.566  1.00  0.00     0.009 C 
HETATM   19  C   UNL     1      42.071 -13.284  -2.811  1.00  0.00    -0.012 C 
HETATM   20  C   UNL     1      41.915 -12.825  -1.346  1.00  0.00     0.043 C 
HETATM   21  C   UNL     1      41.359 -12.288  -3.741  1.00  0.00     0.009 C 
HETATM   22  C   UNL     1      39.861 -12.219  -3.396  1.00  0.00    -0.012 C 
HETATM   23  C   UNL     1      39.705 -11.762  -1.935  1.00  0.00     0.043 C 
ENDBRANCH  10  14
ENDBRANCH   3   7
BRANCH   1  24
HETATM   24  N   UNL     1      41.145 -16.662   4.472  1.00  0.00    -0.187 N 
HETATM   25  H   UNL     1      40.386 -16.999   5.053  1.00  0.00     0.184 HD
BRANCH  24  26
HETATM   26  C   UNL     1      42.031 -17.656   4.032  1.00  0.00     0.049 A 
HETATM   27  C   UNL     1      42.782 -18.444   4.911  1.00  0.00     0.033 A 
HETATM   28  C   UNL     1      43.686 -19.403   4.438  1.00  0.00     0.039 A 
HETATM   29  C   UNL     1      43.876 -19.574   3.069  1.00  0.00     0.076 A 
HETATM   30  C   UNL     1      43.125 -18.799   2.184  1.00  0.00     0.039 A 
HETATM   31  C   UNL     1      42.210 -17.853   2.660  1.00  0.00     0.033 A 
BRANCH  29  32
HETATM   32  O   UNL     1      44.740 -20.447   2.475  1.00  0.00    -0.270 OA
BRANCH  32  33
HETATM   33  C   UNL     1      44.302 -21.782   2.247  1.00  0.00     0.447 C 
HETATM   34 CL   UNL     1      44.573 -22.759   3.686  1.00  0.00    -0.014 Cl
HETATM   35  F   UNL     1      42.978 -21.782   1.932  1.00  0.00    -0.159 F 
HETATM   36  F   UNL     1      44.970 -22.309   1.190  1.00  0.00    -0.159 F 
ENDBRANCH  32  33
ENDBRANCH  29  32
ENDBRANCH  24  26
ENDBRANCH   1  24
BRANCH   5  37
HETATM   37  N   UNL     1      43.191 -13.207   6.840  1.00  0.00    -0.221 N 
HETATM   38  H   UNL     1      43.232 -12.194   6.819  1.00  0.00     0.177 HD
BRANCH  37  39
HETATM   39  C   UNL     1      44.443 -13.893   7.109  1.00  0.00     0.140 C 
BRANCH  39  40
HETATM   40  C   UNL     1      45.381 -13.020   7.943  1.00  0.00     0.046 C 
BRANCH  40  41
HETATM   41  C   UNL     1      44.710 -12.290   9.101  1.00  0.00     0.165 C 
BRANCH  41  42
HETATM   42  O   UNL     1      44.122 -13.205  10.015  1.00  0.00    -0.401 OA
HETATM   43  H   UNL     1      43.612 -12.653  10.640  1.00  0.00     0.209 HD
ENDBRANCH  41  42
ENDBRANCH  40  41
ENDBRANCH  39  40
ENDBRANCH  37  39
ENDBRANCH   5  37
TORSDOF 11
ENDMDL
MODEL 2
REMARK VINA RESULT:      -9.1      0.576      1.408
REMARK  11 active torsions:
REMARK  status: ('A' for Active; 'I' for Inactive)
REMARK    1  A    between atoms: C_2  and  N_3 
REMARK    2  A    between atoms: N_3  and  C_4 
REMARK    3  A    between atoms: C_6  and  N_7 
REMARK    4  A    between atoms: N_10  and  C_12 
REMARK    5  A    between atoms: C_25  and  N_26 
REMARK    6  A    between atoms: N_26  and  C_27 
REMARK    7  A    between atoms: C_27  and  C_28 
REMARK    8  A    between atoms: C_28  and  C_29 
REMARK    9  A    between atoms: C_29  and  O_30 
REMARK   10  A    between atoms: C_34  and  O_35 
REMARK   11  A    between atoms: O_35  and  C_36 
ROOT
HETATM    1  C   UNL     1      41.375 -15.313   4.411  1.00  0.00     0.758 C 
HETATM    2  N   UNL     1      40.707 -14.420   3.687  1.00  0.00     0.131 NA
HETATM    3  C   UNL     1      40.865 -13.150   4.025  1.00  0.00     0.756 C 
HETATM    4  N   UNL     1      41.724 -12.744   4.946  1.00  0.00     0.131 NA
HETATM    5  C   UNL     1      42.326 -13.695   5.645  1.00  0.00     0.754 C 
HETATM    6  N   UNL     1      42.165 -14.994   5.426  1.00  0.00     0.131 NA
ENDROOT
BRANCH   3   7
HETATM    7  N   UNL     1      40.094 -12.182   3.380  1.00  0.00    -0.210 N 
HETATM    8  C   UNL     1      39.024 -12.687   2.515  1.00  0.00     0.169 C 
HETATM    9  C   UNL     1      39.535 -13.050   1.106  1.00  0.00     0.256 C 
HETATM   10  N   UNL     1      40.293 -11.854   0.475  1.00  0.00    -0.059 N 
HETATM   11  H   UNL     1      39.623 -11.074   0.486  1.00  0.00     0.281 HD
HETATM   12  C   UNL     1      41.436 -11.430   1.429  1.00  0.00     0.256 C 
HETATM   13  C   UNL     1      40.881 -11.077   2.831  1.00  0.00     0.169 C 
BRANCH  10  14
HETATM   14  C   UNL     1      40.690 -12.042  -1.004  1.00  0.00     0.129 C 
HETATM   15  C   UNL     1      42.116 -12.653  -1.082  1.00  0.00     0.043 C 
HETATM   16  C   UNL     1      42.525 -12.891  -2.547  1.00  0.00    -0.012 C 
HETATM   17  C   UNL     1      42.493 -11.549  -3.299  1.00  0.00     0.009 C 
HETATM   18  C   UNL     1      41.538 -13.868  -3.197  1.00  0.00     0.009 C 
HETATM   19  C   UNL     1      41.075 -10.951  -3.251  1.00  0.00    -0.012 C 
HETATM   20  C   UNL     1      40.669 -10.710  -1.783  1.00  0.00     0.043 C 
HETATM   21  C   UNL     1      40.095 -11.940  -3.902  1.00  0.00     0.009 C 
HETATM   22  C   UNL     1      40.121 -13.283  -3.149  1.00  0.00    -0.012 C 
HETATM   23  C   UNL     1      39.716 -13.042  -1.684  1.00  0.00     0.043 C 
ENDBRANCH  10  14
ENDBRANCH   3   7
BRANCH   1  24
HETATM   24  N   UNL     1      41.222 -16.672   4.138  1.00  0.00    -0.187 N 
HETATM   25  H   UNL     1      40.463 -17.075   4.675  1.00  0.00     0.184 HD
BRANCH  24  26
HETATM   26  C   UNL     1      42.167 -17.598   3.672  1.00  0.00     0.049 A 
HETATM   27  C   UNL     1      42.429 -17.793   2.313  1.00  0.00     0.033 A 
HETATM   28  C   UNL     1      43.353 -18.753   1.879  1.00  0.00     0.039 A 
HETATM   29  C   UNL     1      44.016 -19.557   2.803  1.00  0.00     0.076 A 
HETATM   30  C   UNL     1      43.767 -19.364   4.162  1.00  0.00     0.039 A 
HETATM   31  C   UNL     1      42.856 -18.392   4.594  1.00  0.00     0.033 A 
BRANCH  29  32
HETATM   32  O   UNL     1      44.914 -20.544   2.519  1.00  0.00    -0.270 OA
BRANCH  32  33
HETATM   33  C   UNL     1      44.424 -21.866   2.322  1.00  0.00     0.447 C 
HETATM   34 CL   UNL     1      44.599 -22.800   3.804  1.00  0.00    -0.014 Cl
HETATM   35  F   UNL     1      43.114 -21.820   1.957  1.00  0.00    -0.159 F 
HETATM   36  F   UNL     1      45.107 -22.460   1.311  1.00  0.00    -0.159 F 
ENDBRANCH  32  33
ENDBRANCH  29  32
ENDBRANCH  24  26
ENDBRANCH   1  24
BRANCH   5  37
HETATM   37  N   UNL     1      43.128 -13.262   6.683  1.00  0.00    -0.221 N 
HETATM   38  H   UNL     1      43.261 -12.259   6.615  1.00  0.00     0.177 HD
BRANCH  37  39
HETATM   39  C   UNL     1      44.300 -14.042   7.041  1.00  0.00     0.140 C 
BRANCH  39  40
HETATM   40  C   UNL     1      45.344 -13.175   7.745  1.00  0.00     0.046 C 
BRANCH  40  41
HETATM   41  C   UNL     1      44.819 -12.395   8.945  1.00  0.00     0.165 C 
BRANCH  41  42
HETATM   42  O   UNL     1      44.115 -13.243   9.843  1.00  0.00    -0.401 OA
HETATM   43  H   UNL     1      44.335 -14.153   9.564  1.00  0.00     0.209 HD
ENDBRANCH  41  42
ENDBRANCH  40  41
ENDBRANCH  39  40
ENDBRANCH  37  39
ENDBRANCH   5  37
TORSDOF 11
ENDMDL
MODEL 3
REMARK VINA RESULT:      -9.0      4.136      7.433
REMARK  11 active torsions:
REMARK  status: ('A' for Active; 'I' for Inactive)
REMARK    1  A    between atoms: C_2  and  N_3 
REMARK    2  A    between atoms: N_3  and  C_4 
REMARK    3  A    between atoms: C_6  and  N_7 
REMARK    4  A    between atoms: N_10  and  C_12 
REMARK    5  A    between atoms: C_25  and  N_26 
REMARK    6  A    between atoms: N_26  and  C_27 
REMARK    7  A    between atoms: C_27  and  C_28 
REMARK    8  A    between atoms: C_28  and  C_29 
REMARK    9  A    between atoms: C_29  and  O_30 
REMARK   10  A    between atoms: C_34  and  O_35 
REMARK   11  A    between atoms: O_35  and  C_36 
ROOT
HETATM    1  C   UNL     1      41.974 -15.310   5.304  1.00  0.00     0.758 C 
HETATM    2  N   UNL     1      41.167 -14.282   5.055  1.00  0.00     0.131 NA
HETATM    3  C   UNL     1      41.553 -13.104   5.518  1.00  0.00     0.756 C 
HETATM    4  N   UNL     1      42.727 -12.898   6.094  1.00  0.00     0.131 NA
HETATM    5  C   UNL     1      43.458 -13.975   6.336  1.00  0.00     0.754 C 
HETATM    6  N   UNL     1      43.111 -15.205   5.977  1.00  0.00     0.131 NA
ENDROOT
BRANCH   3   7
HETATM    7  N   UNL     1      40.688 -12.017   5.393  1.00  0.00    -0.210 N 
HETATM    8  C   UNL     1      41.299 -10.692   5.528  1.00  0.00     0.169 C 
HETATM    9  C   UNL     1      41.437 -10.261   7.002  1.00  0.00     0.256 C 
HETATM   10  N   UNL     1      40.072 -10.361   7.730  1.00  0.00    -0.059 N 
HETATM   11  H   UNL     1      39.430  -9.772   7.184  1.00  0.00     0.281 HD
HETATM   12  C   UNL     1      39.534 -11.805   7.582  1.00  0.00     0.256 C 
HETATM   13  C   UNL     1      39.414 -12.199   6.089  1.00  0.00     0.169 C 
BRANCH  10  14
HETATM   14  C   UNL     1      40.053  -9.782   9.160  1.00  0.00     0.129 C 
HETATM   15  C   UNL     1      40.939 -10.661  10.085  1.00  0.00     0.043 C 
HETATM   16  C   UNL     1      40.973 -10.085  11.512  1.00  0.00    -0.012 C 
HETATM   17  C   UNL     1      39.538 -10.032  12.063  1.00  0.00     0.009 C 
HETATM   18  C   UNL     1      41.561  -8.669  11.474  1.00  0.00     0.009 C 
HETATM   19  C   UNL     1      38.660  -9.139  11.169  1.00  0.00    -0.012 C 
HETATM   20  C   UNL     1      38.624  -9.721   9.740  1.00  0.00     0.043 C 
HETATM   21  C   UNL     1      39.261  -7.724  11.134  1.00  0.00     0.009 C 
HETATM   22  C   UNL     1      40.695  -7.772  10.579  1.00  0.00    -0.012 C 
HETATM   23  C   UNL     1      40.660  -8.353   9.153  1.00  0.00     0.043 C 
ENDBRANCH  10  14
ENDBRANCH   3   7
BRANCH   1  24
HETATM   24  N   UNL     1      41.609 -16.587   4.883  1.00  0.00    -0.187 N 
HETATM   25  H   UNL     1      40.767 -16.905   5.347  1.00  0.00     0.184 HD
BRANCH  24  26
HETATM   26  C   UNL     1      42.408 -17.612   4.353  1.00  0.00     0.049 A 
HETATM   27  C   UNL     1      43.087 -18.534   5.155  1.00  0.00     0.033 A 
HETATM   28  C   UNL     1      43.906 -19.523   4.596  1.00  0.00     0.039 A 
HETATM   29  C   UNL     1      44.082 -19.591   3.216  1.00  0.00     0.076 A 
HETATM   30  C   UNL     1      43.402 -18.681   2.407  1.00  0.00     0.039 A 
HETATM   31  C   UNL     1      42.571 -17.703   2.968  1.00  0.00     0.033 A 
BRANCH  29  32
HETATM   32  O   UNL     1      44.869 -20.480   2.544  1.00  0.00    -0.270 OA
BRANCH  32  33
HETATM   33  C   UNL     1      44.353 -21.782   2.292  1.00  0.00     0.447 C 
HETATM   34 CL   UNL     1      44.602 -22.810   3.699  1.00  0.00    -0.014 Cl
HETATM   35  F   UNL     1      43.024 -21.702   2.008  1.00  0.00    -0.159 F 
HETATM   36  F   UNL     1      44.968 -22.316   1.207  1.00  0.00    -0.159 F 
ENDBRANCH  32  33
ENDBRANCH  29  32
ENDBRANCH  24  26
ENDBRANCH   1  24
BRANCH   5  37
HETATM   37  N   UNL     1      44.624 -13.764   7.045  1.00  0.00    -0.221 N 
HETATM   38  H   UNL     1      45.175 -14.615   7.055  1.00  0.00     0.177 HD
BRANCH  37  39
HETATM   39  C   UNL     1      44.565 -13.025   8.294  1.00  0.00     0.140 C 
BRANCH  39  40
HETATM   40  C   UNL     1      45.911 -12.374   8.613  1.00  0.00     0.046 C 
BRANCH  40  41
HETATM   41  C   UNL     1      45.821 -11.106   9.455  1.00  0.00     0.165 C 
BRANCH  41  42
HETATM   42  O   UNL     1      44.503 -10.573   9.445  1.00  0.00    -0.401 OA
HETATM   43  H   UNL     1      43.957 -11.227   9.925  1.00  0.00     0.209 HD
ENDBRANCH  41  42
ENDBRANCH  40  41
ENDBRANCH  39  40
ENDBRANCH  37  39
ENDBRANCH   5  37
TORSDOF 11
ENDMDL
MODEL 4
REMARK VINA RESULT:      -8.9      2.406      7.328
REMARK  11 active torsions:
REMARK  status: ('A' for Active; 'I' for Inactive)
REMARK    1  A    between atoms: C_2  and  N_3 
REMARK    2  A    between atoms: N_3  and  C_4 
REMARK    3  A    between atoms: C_6  and  N_7 
REMARK    4  A    between atoms: N_10  and  C_12 
REMARK    5  A    between atoms: C_25  and  N_26 
REMARK    6  A    between atoms: N_26  and  C_27 
REMARK    7  A    between atoms: C_27  and  C_28 
REMARK    8  A    between atoms: C_28  and  C_29 
REMARK    9  A    between atoms: C_29  and  O_30 
REMARK   10  A    between atoms: C_34  and  O_35 
REMARK   11  A    between atoms: O_35  and  C_36 
ROOT
HETATM    1  C   UNL     1      41.446 -14.617   0.028  1.00  0.00     0.758 C 
HETATM    2  N   UNL     1      41.260 -14.328   1.312  1.00  0.00     0.131 NA
HETATM    3  C   UNL     1      40.861 -13.097   1.588  1.00  0.00     0.756 C 
HETATM    4  N   UNL     1      40.536 -12.213   0.659  1.00  0.00     0.131 NA
HETATM    5  C   UNL     1      40.780 -12.563  -0.595  1.00  0.00     0.754 C 
HETATM    6  N   UNL     1      41.255 -13.749  -0.956  1.00  0.00     0.131 NA
ENDROOT
BRANCH   3   7
HETATM    7  N   UNL     1      40.769 -12.704   2.924  1.00  0.00    -0.210 N 
HETATM    8  C   UNL     1      42.030 -12.328   3.569  1.00  0.00     0.169 C 
HETATM    9  C   UNL     1      42.799 -13.552   4.105  1.00  0.00     0.256 C 
HETATM   10  N   UNL     1      41.892 -14.405   5.028  1.00  0.00    -0.059 N 
HETATM   11  H   UNL     1      41.572 -13.762   5.763  1.00  0.00     0.281 HD
HETATM   12  C   UNL     1      40.617 -14.803   4.244  1.00  0.00     0.256 C 
HETATM   13  C   UNL     1      39.878 -13.546   3.722  1.00  0.00     0.169 C 
BRANCH  10  14
HETATM   14  C   UNL     1      42.611 -15.555   5.765  1.00  0.00     0.129 C 
HETATM   15  C   UNL     1      41.573 -16.377   6.578  1.00  0.00     0.043 C 
HETATM   16  C   UNL     1      42.255 -17.558   7.292  1.00  0.00    -0.012 C 
HETATM   17  C   UNL     1      43.339 -17.011   8.237  1.00  0.00     0.009 C 
HETATM   18  C   UNL     1      42.899 -18.479   6.249  1.00  0.00     0.009 C 
HETATM   19  C   UNL     1      44.388 -16.220   7.435  1.00  0.00    -0.012 C 
HETATM   20  C   UNL     1      43.703 -15.035   6.723  1.00  0.00     0.043 C 
HETATM   21  C   UNL     1      45.024 -17.151   6.390  1.00  0.00     0.009 C 
HETATM   22  C   UNL     1      43.943 -17.697   5.441  1.00  0.00    -0.012 C 
HETATM   23  C   UNL     1      43.259 -16.514   4.730  1.00  0.00     0.043 C 
ENDBRANCH  10  14
ENDBRANCH   3   7
BRANCH   1  24
HETATM   24  N   UNL     1      41.907 -15.882  -0.333  1.00  0.00    -0.187 N 
HETATM   25  H   UNL     1      41.551 -16.162  -1.239  1.00  0.00     0.184 HD
BRANCH  24  26
HETATM   26  C   UNL     1      42.330 -16.942   0.483  1.00  0.00     0.049 A 
HETATM   27  C   UNL     1      43.680 -17.233   0.705  1.00  0.00     0.033 A 
HETATM   28  C   UNL     1      44.070 -18.321   1.495  1.00  0.00     0.039 A 
HETATM   29  C   UNL     1      43.111 -19.158   2.060  1.00  0.00     0.076 A 
HETATM   30  C   UNL     1      41.761 -18.870   1.852  1.00  0.00     0.039 A 
HETATM   31  C   UNL     1      41.374 -17.772   1.074  1.00  0.00     0.033 A 
BRANCH  29  32
HETATM   32  O   UNL     1      43.349 -20.263   2.824  1.00  0.00    -0.270 OA
BRANCH  32  33
HETATM   33  C   UNL     1      44.398 -21.142   2.431  1.00  0.00     0.447 C 
HETATM   34 CL   UNL     1      44.427 -22.553   3.482  1.00  0.00    -0.014 Cl
HETATM   35  F   UNL     1      44.211 -21.531   1.141  1.00  0.00    -0.159 F 
HETATM   36  F   UNL     1      45.587 -20.490   2.490  1.00  0.00    -0.159 F 
ENDBRANCH  32  33
ENDBRANCH  29  32
ENDBRANCH  24  26
ENDBRANCH   1  24
BRANCH   5  37
HETATM   37  N   UNL     1      40.553 -11.589  -1.547  1.00  0.00    -0.221 N 
HETATM   38  H   UNL     1      40.149 -10.770  -1.107  1.00  0.00     0.177 HD
BRANCH  37  39
HETATM   39  C   UNL     1      39.983 -11.974  -2.827  1.00  0.00     0.140 C 
BRANCH  39  40
HETATM   40  C   UNL     1      40.757 -11.345  -3.985  1.00  0.00     0.046 C 
BRANCH  40  41
HETATM   41  C   UNL     1      42.248 -11.662  -4.002  1.00  0.00     0.165 C 
BRANCH  41  42
HETATM   42  O   UNL     1      42.494 -13.004  -3.602  1.00  0.00    -0.401 OA
HETATM   43  H   UNL     1      43.247 -12.953  -2.981  1.00  0.00     0.209 HD
ENDBRANCH  41  42
ENDBRANCH  40  41
ENDBRANCH  39  40
ENDBRANCH  37  39
ENDBRANCH   5  37
TORSDOF 11
ENDMDL
MODEL 5
REMARK VINA RESULT:      -8.8      3.829      9.217
REMARK  11 active torsions:
REMARK  status: ('A' for Active; 'I' for Inactive)
REMARK    1  A    between atoms: C_2  and  N_3 
REMARK    2  A    between atoms: N_3  and  C_4 
REMARK    3  A    between atoms: C_6  and  N_7 
REMARK    4  A    between atoms: N_10  and  C_12 
REMARK    5  A    between atoms: C_25  and  N_26 
REMARK    6  A    between atoms: N_26  and  C_27 
REMARK    7  A    between atoms: C_27  and  C_28 
REMARK    8  A    between atoms: C_28  and  C_29 
REMARK    9  A    between atoms: C_29  and  O_30 
REMARK   10  A    between atoms: C_34  and  O_35 
REMARK   11  A    between atoms: O_35  and  C_36 
ROOT
HETATM    1  C   UNL     1      40.493 -12.818   5.922  1.00  0.00     0.758 C 
HETATM    2  N   UNL     1      40.433 -11.736   6.692  1.00  0.00     0.131 NA
HETATM    3  C   UNL     1      39.702 -10.730   6.240  1.00  0.00     0.756 C 
HETATM    4  N   UNL     1      38.958 -10.805   5.148  1.00  0.00     0.131 NA
HETATM    5  C   UNL     1      39.097 -11.902   4.419  1.00  0.00     0.754 C 
HETATM    6  N   UNL     1      39.870 -12.926   4.756  1.00  0.00     0.131 NA
ENDROOT
BRANCH   3   7
HETATM    7  N   UNL     1      39.704  -9.527   6.947  1.00  0.00    -0.210 N 
HETATM    8  C   UNL     1      41.018  -8.922   7.177  1.00  0.00     0.169 C 
HETATM    9  C   UNL     1      41.724  -9.513   8.414  1.00  0.00     0.256 C 
HETATM   10  N   UNL     1      40.806  -9.428   9.660  1.00  0.00    -0.059 N 
HETATM   11  H   UNL     1      40.569  -8.433   9.754  1.00  0.00     0.281 HD
HETATM   12  C   UNL     1      39.470 -10.142   9.342  1.00  0.00     0.256 C 
HETATM   13  C   UNL     1      38.796  -9.521   8.094  1.00  0.00     0.169 C 
BRANCH  10  14
HETATM   14  C   UNL     1      41.478  -9.825  10.992  1.00  0.00     0.129 C 
HETATM   15  C   UNL     1      42.990 -10.087  10.749  1.00  0.00     0.043 C 
HETATM   16  C   UNL     1      43.697 -10.446  12.069  1.00  0.00    -0.012 C 
HETATM   17  C   UNL     1      43.039 -11.704  12.662  1.00  0.00     0.009 C 
HETATM   18  C   UNL     1      43.555  -9.279  13.054  1.00  0.00     0.009 C 
HETATM   19  C   UNL     1      41.547 -11.443  12.932  1.00  0.00    -0.012 C 
HETATM   20  C   UNL     1      40.839 -11.087  11.608  1.00  0.00     0.043 C 
HETATM   21  C   UNL     1      41.416 -10.269  13.917  1.00  0.00     0.009 C 
HETATM   22  C   UNL     1      42.069  -9.007  13.325  1.00  0.00    -0.012 C 
HETATM   23  C   UNL     1      41.364  -8.653  12.004  1.00  0.00     0.043 C 
ENDBRANCH  10  14
ENDBRANCH   3   7
BRANCH   1  24
HETATM   24  N   UNL     1      41.279 -13.900   6.315  1.00  0.00    -0.187 N 
HETATM   25  H   UNL     1      41.933 -13.638   7.043  1.00  0.00     0.184 HD
BRANCH  24  26
HETATM   26  C   UNL     1      41.633 -15.052   5.597  1.00  0.00     0.049 A 
HETATM   27  C   UNL     1      40.973 -16.274   5.753  1.00  0.00     0.033 A 
HETATM   28  C   UNL     1      41.375 -17.415   5.048  1.00  0.00     0.039 A 
HETATM   29  C   UNL     1      42.468 -17.360   4.187  1.00  0.00     0.076 A 
HETATM   30  C   UNL     1      43.128 -16.142   4.017  1.00  0.00     0.039 A 
HETATM   31  C   UNL     1      42.714 -14.999   4.712  1.00  0.00     0.033 A 
BRANCH  29  32
HETATM   32  O   UNL     1      42.982 -18.395   3.463  1.00  0.00    -0.270 OA
BRANCH  32  33
HETATM   33  C   UNL     1      42.637 -18.494   2.086  1.00  0.00     0.447 C 
HETATM   34 CL   UNL     1      43.866 -17.711   1.099  1.00  0.00    -0.014 Cl
HETATM   35  F   UNL     1      42.527 -19.803   1.733  1.00  0.00    -0.159 F 
HETATM   36  F   UNL     1      41.428 -17.914   1.875  1.00  0.00    -0.159 F 
ENDBRANCH  32  33
ENDBRANCH  29  32
ENDBRANCH  24  26
ENDBRANCH   1  24
BRANCH   5  37
HETATM   37  N   UNL     1      38.410 -11.918   3.220  1.00  0.00    -0.221 N 
HETATM   38  H   UNL     1      37.468 -12.259   3.373  1.00  0.00     0.177 HD
BRANCH  37  39
HETATM   39  C   UNL     1      39.083 -12.406   2.029  1.00  0.00     0.140 C 
BRANCH  39  40
HETATM   40  C   UNL     1      38.240 -13.461   1.313  1.00  0.00     0.046 C 
BRANCH  40  41
HETATM   41  C   UNL     1      38.680 -14.901   1.555  1.00  0.00     0.165 C 
BRANCH  41  42
HETATM   42  O   UNL     1      39.394 -15.022   2.778  1.00  0.00    -0.401 OA
HETATM   43  H   UNL     1      38.931 -14.435   3.407  1.00  0.00     0.209 HD
ENDBRANCH  41  42
ENDBRANCH  40  41
ENDBRANCH  39  40
ENDBRANCH  37  39
ENDBRANCH   5  37
TORSDOF 11
ENDMDL
MODEL 6
REMARK VINA RESULT:      -8.8      2.344      7.397
REMARK  11 active torsions:
REMARK  status: ('A' for Active; 'I' for Inactive)
REMARK    1  A    between atoms: C_2  and  N_3 
REMARK    2  A    between atoms: N_3  and  C_4 
REMARK    3  A    between atoms: C_6  and  N_7 
REMARK    4  A    between atoms: N_10  and  C_12 
REMARK    5  A    between atoms: C_25  and  N_26 
REMARK    6  A    between atoms: N_26  and  C_27 
REMARK    7  A    between atoms: C_27  and  C_28 
REMARK    8  A    between atoms: C_28  and  C_29 
REMARK    9  A    between atoms: C_29  and  O_30 
REMARK   10  A    between atoms: C_34  and  O_35 
REMARK   11  A    between atoms: O_35  and  C_36 
ROOT
HETATM    1  C   UNL     1      41.393 -14.760   0.075  1.00  0.00     0.758 C 
HETATM    2  N   UNL     1      41.230 -14.463   1.361  1.00  0.00     0.131 NA
HETATM    3  C   UNL     1      40.853 -13.226   1.638  1.00  0.00     0.756 C 
HETATM    4  N   UNL     1      40.529 -12.340   0.711  1.00  0.00     0.131 NA
HETATM    5  C   UNL     1      40.749 -12.699  -0.545  1.00  0.00     0.754 C 
HETATM    6  N   UNL     1      41.201 -13.893  -0.909  1.00  0.00     0.131 NA
ENDROOT
BRANCH   3   7
HETATM    7  N   UNL     1      40.787 -12.827   2.974  1.00  0.00    -0.210 N 
HETATM    8  C   UNL     1      42.065 -12.482   3.604  1.00  0.00     0.169 C 
HETATM    9  C   UNL     1      42.806 -13.725   4.135  1.00  0.00     0.256 C 
HETATM   10  N   UNL     1      41.887 -14.551   5.071  1.00  0.00    -0.059 N 
HETATM   11  H   UNL     1      41.593 -13.897   5.807  1.00  0.00     0.281 HD
HETATM   12  C   UNL     1      40.594 -14.916   4.302  1.00  0.00     0.256 C 
HETATM   13  C   UNL     1      39.883 -13.642   3.784  1.00  0.00     0.169 C 
BRANCH  10  14
HETATM   14  C   UNL     1      42.584 -15.718   5.803  1.00  0.00     0.129 C 
HETATM   15  C   UNL     1      43.325 -16.608   4.769  1.00  0.00     0.043 C 
HETATM   16  C   UNL     1      44.064 -17.759   5.474  1.00  0.00    -0.012 C 
HETATM   17  C   UNL     1      43.042 -18.606   6.251  1.00  0.00     0.009 C 
HETATM   18  C   UNL     1      45.097 -17.178   6.448  1.00  0.00     0.009 C 
HETATM   19  C   UNL     1      42.324 -17.738   7.299  1.00  0.00    -0.012 C 
HETATM   20  C   UNL     1      41.580 -16.588   6.590  1.00  0.00     0.043 C 
HETATM   21  C   UNL     1      43.368 -17.158   8.267  1.00  0.00     0.009 C 
HETATM   22  C   UNL     1      44.390 -16.305   7.494  1.00  0.00    -0.012 C 
HETATM   23  C   UNL     1      43.648 -15.157   6.785  1.00  0.00     0.043 C 
ENDBRANCH  10  14
ENDBRANCH   3   7
BRANCH   1  24
HETATM   24  N   UNL     1      41.830 -16.033  -0.287  1.00  0.00    -0.187 N 
HETATM   25  H   UNL     1      41.439 -16.320  -1.177  1.00  0.00     0.184 HD
BRANCH  24  26
HETATM   26  C   UNL     1      42.273 -17.087   0.525  1.00  0.00     0.049 A 
HETATM   27  C   UNL     1      41.397 -17.943   1.199  1.00  0.00     0.033 A 
HETATM   28  C   UNL     1      41.872 -18.964   2.032  1.00  0.00     0.039 A 
HETATM   29  C   UNL     1      43.240 -19.131   2.228  1.00  0.00     0.076 A 
HETATM   30  C   UNL     1      44.123 -18.287   1.553  1.00  0.00     0.039 A 
HETATM   31  C   UNL     1      43.646 -17.278   0.707  1.00  0.00     0.033 A 
BRANCH  29  32
HETATM   32  O   UNL     1      43.836 -20.060   3.029  1.00  0.00    -0.270 OA
BRANCH  32  33
HETATM   33  C   UNL     1      44.133 -21.338   2.476  1.00  0.00     0.447 C 
HETATM   34 CL   UNL     1      44.444 -22.494   3.766  1.00  0.00    -0.014 Cl
HETATM   35  F   UNL     1      43.087 -21.763   1.717  1.00  0.00    -0.159 F 
HETATM   36  F   UNL     1      45.214 -21.243   1.662  1.00  0.00    -0.159 F 
ENDBRANCH  32  33
ENDBRANCH  29  32
ENDBRANCH  24  26
ENDBRANCH   1  24
BRANCH   5  37
HETATM   37  N   UNL     1      40.522 -11.725  -1.498  1.00  0.00    -0.221 N 
HETATM   38  H   UNL     1      40.858 -10.831  -1.158  1.00  0.00     0.177 HD
BRANCH  37  39
HETATM   39  C   UNL     1      39.250 -11.707  -2.198  1.00  0.00     0.140 C 
BRANCH  39  40
HETATM   40  C   UNL     1      39.214 -12.763  -3.303  1.00  0.00     0.046 C 
BRANCH  40  41
HETATM   41  C   UNL     1      38.177 -13.862  -3.100  1.00  0.00     0.165 C 
BRANCH  41  42
HETATM   42  O   UNL     1      38.727 -14.964  -2.390  1.00  0.00    -0.401 OA
HETATM   43  H   UNL     1      39.634 -14.690  -2.152  1.00  0.00     0.209 HD
ENDBRANCH  41  42
ENDBRANCH  40  41
ENDBRANCH  39  40
ENDBRANCH  37  39
ENDBRANCH   5  37
TORSDOF 11
ENDMDL
MODEL 7
REMARK VINA RESULT:      -8.6      3.413      8.711
REMARK  11 active torsions:
REMARK  status: ('A' for Active; 'I' for Inactive)
REMARK    1  A    between atoms: C_2  and  N_3 
REMARK    2  A    between atoms: N_3  and  C_4 
REMARK    3  A    between atoms: C_6  and  N_7 
REMARK    4  A    between atoms: N_10  and  C_12 
REMARK    5  A    between atoms: C_25  and  N_26 
REMARK    6  A    between atoms: N_26  and  C_27 
REMARK    7  A    between atoms: C_27  and  C_28 
REMARK    8  A    between atoms: C_28  and  C_29 
REMARK    9  A    between atoms: C_29  and  O_30 
REMARK   10  A    between atoms: C_34  and  O_35 
REMARK   11  A    between atoms: O_35  and  C_36 
ROOT
HETATM    1  C   UNL     1      41.174 -13.565   5.646  1.00  0.00     0.758 C 
HETATM    2  N   UNL     1      40.630 -12.540   6.296  1.00  0.00     0.131 NA
HETATM    3  C   UNL     1      40.613 -11.381   5.659  1.00  0.00     0.756 C 
HETATM    4  N   UNL     1      40.995 -11.237   4.400  1.00  0.00     0.131 NA
HETATM    5  C   UNL     1      41.555 -12.295   3.833  1.00  0.00     0.754 C 
HETATM    6  N   UNL     1      41.685 -13.475   4.427  1.00  0.00     0.131 NA
ENDROOT
BRANCH   3   7
HETATM    7  N   UNL     1      40.167 -10.247   6.339  1.00  0.00    -0.210 N 
HETATM    8  C   UNL     1      41.195  -9.260   6.682  1.00  0.00     0.169 C 
HETATM    9  C   UNL     1      41.928  -9.613   7.992  1.00  0.00     0.256 C 
HETATM   10  N   UNL     1      40.913  -9.837   9.142  1.00  0.00    -0.059 N 
HETATM   11  H   UNL     1      40.367  -8.968   9.194  1.00  0.00     0.281 HD
HETATM   12  C   UNL     1      39.908 -10.933   8.712  1.00  0.00     0.256 C 
HETATM   13  C   UNL     1      39.197 -10.541   7.393  1.00  0.00     0.169 C 
BRANCH  10  14
HETATM   14  C   UNL     1      41.543 -10.016  10.540  1.00  0.00     0.129 C 
HETATM   15  C   UNL     1      41.315  -8.729  11.378  1.00  0.00     0.043 C 
HETATM   16  C   UNL     1      41.897  -8.892  12.794  1.00  0.00    -0.012 C 
HETATM   17  C   UNL     1      43.404  -9.180  12.684  1.00  0.00     0.009 C 
HETATM   18  C   UNL     1      41.200 -10.064  13.497  1.00  0.00     0.009 C 
HETATM   19  C   UNL     1      43.638 -10.471  11.879  1.00  0.00    -0.012 C 
HETATM   20  C   UNL     1      43.057 -10.303  10.459  1.00  0.00     0.043 C 
HETATM   21  C   UNL     1      42.932 -11.637  12.590  1.00  0.00     0.009 C 
HETATM   22  C   UNL     1      41.423 -11.355  12.698  1.00  0.00    -0.012 C 
HETATM   23  C   UNL     1      40.844 -11.187  11.282  1.00  0.00     0.043 C 
ENDBRANCH  10  14
ENDBRANCH   3   7
BRANCH   1  24
HETATM   24  N   UNL     1      41.264 -14.807   6.273  1.00  0.00    -0.187 N 
HETATM   25  H   UNL     1      41.148 -14.725   7.276  1.00  0.00     0.184 HD
BRANCH  24  26
HETATM   26  C   UNL     1      41.924 -15.971   5.853  1.00  0.00     0.049 A 
HETATM   27  C   UNL     1      43.283 -16.199   6.092  1.00  0.00     0.033 A 
HETATM   28  C   UNL     1      43.921 -17.355   5.627  1.00  0.00     0.039 A 
HETATM   29  C   UNL     1      43.213 -18.299   4.887  1.00  0.00     0.076 A 
HETATM   30  C   UNL     1      41.854 -18.085   4.650  1.00  0.00     0.039 A 
HETATM   31  C   UNL     1      41.215 -16.935   5.131  1.00  0.00     0.033 A 
BRANCH  29  32
HETATM   32  O   UNL     1      43.713 -19.449   4.352  1.00  0.00    -0.270 OA
BRANCH  32  33
HETATM   33  C   UNL     1      44.157 -19.428   2.999  1.00  0.00     0.447 C 
HETATM   34 CL   UNL     1      42.932 -20.138   1.953  1.00  0.00    -0.014 Cl
HETATM   35  F   UNL     1      44.403 -18.145   2.618  1.00  0.00    -0.159 F 
HETATM   36  F   UNL     1      45.322 -20.115   2.889  1.00  0.00    -0.159 F 
ENDBRANCH  32  33
ENDBRANCH  29  32
ENDBRANCH  24  26
ENDBRANCH   1  24
BRANCH   5  37
HETATM   37  N   UNL     1      42.060 -12.100   2.562  1.00  0.00    -0.221 N 
HETATM   38  H   UNL     1      42.579 -11.230   2.532  1.00  0.00     0.177 HD
BRANCH  37  39
HETATM   39  C   UNL     1      41.212 -12.379   1.417  1.00  0.00     0.140 C 
BRANCH  39  40
HETATM   40  C   UNL     1      41.806 -13.489   0.549  1.00  0.00     0.046 C 
BRANCH  40  41
HETATM   41  C   UNL     1      41.593 -14.900   1.086  1.00  0.00     0.165 C 
BRANCH  41  42
HETATM   42  O   UNL     1      42.512 -15.198   2.128  1.00  0.00    -0.401 OA
HETATM   43  H   UNL     1      43.132 -14.443   2.149  1.00  0.00     0.209 HD
ENDBRANCH  41  42
ENDBRANCH  40  41
ENDBRANCH  39  40
ENDBRANCH  37  39
ENDBRANCH   5  37
TORSDOF 11
ENDMDL
MODEL 8
REMARK VINA RESULT:      -8.6      1.429      2.171
REMARK  11 active torsions:
REMARK  status: ('A' for Active; 'I' for Inactive)
REMARK    1  A    between atoms: C_2  and  N_3 
REMARK    2  A    between atoms: N_3  and  C_4 
REMARK    3  A    between atoms: C_6  and  N_7 
REMARK    4  A    between atoms: N_10  and  C_12 
REMARK    5  A    between atoms: C_25  and  N_26 
REMARK    6  A    between atoms: N_26  and  C_27 
REMARK    7  A    between atoms: C_27  and  C_28 
REMARK    8  A    between atoms: C_28  and  C_29 
REMARK    9  A    between atoms: C_29  and  O_30 
REMARK   10  A    between atoms: C_34  and  O_35 
REMARK   11  A    between atoms: O_35  and  C_36 
ROOT
HETATM    1  C   UNL     1      40.611 -15.175   4.630  1.00  0.00     0.758 C 
HETATM    2  N   UNL     1      39.897 -14.511   3.725  1.00  0.00     0.131 NA
HETATM    3  C   UNL     1      39.850 -13.196   3.859  1.00  0.00     0.756 C 
HETATM    4  N   UNL     1      40.559 -12.531   4.757  1.00  0.00     0.131 NA
HETATM    5  C   UNL     1      41.218 -13.263   5.642  1.00  0.00     0.754 C 
HETATM    6  N   UNL     1      41.255 -14.590   5.630  1.00  0.00     0.131 NA
ENDROOT
BRANCH   3   7
HETATM    7  N   UNL     1      39.017 -12.464   3.012  1.00  0.00    -0.210 N 
HETATM    8  C   UNL     1      38.442 -13.201   1.884  1.00  0.00     0.169 C 
HETATM    9  C   UNL     1      39.405 -13.272   0.682  1.00  0.00     0.256 C 
HETATM   10  N   UNL     1      39.883 -11.853   0.281  1.00  0.00    -0.059 N 
HETATM   11  H   UNL     1      39.024 -11.321   0.093  1.00  0.00     0.281 HD
HETATM   12  C   UNL     1      40.526 -11.177   1.516  1.00  0.00     0.256 C 
HETATM   13  C   UNL     1      39.528 -11.129   2.699  1.00  0.00     0.169 C 
BRANCH  10  14
HETATM   14  C   UNL     1      40.706 -11.788  -1.023  1.00  0.00     0.129 C 
HETATM   15  C   UNL     1      40.204 -10.602  -1.892  1.00  0.00     0.043 C 
HETATM   16  C   UNL     1      41.034 -10.485  -3.183  1.00  0.00    -0.012 C 
HETATM   17  C   UNL     1      40.912 -11.798  -3.975  1.00  0.00     0.009 C 
HETATM   18  C   UNL     1      42.504 -10.238  -2.821  1.00  0.00     0.009 C 
HETATM   19  C   UNL     1      41.435 -12.975  -3.132  1.00  0.00    -0.012 C 
HETATM   20  C   UNL     1      40.599 -13.092  -1.841  1.00  0.00     0.043 C 
HETATM   21  C   UNL     1      42.906 -12.715  -2.772  1.00  0.00     0.009 C 
HETATM   22  C   UNL     1      43.032 -11.404  -1.975  1.00  0.00    -0.012 C 
HETATM   23  C   UNL     1      42.198 -11.521  -0.686  1.00  0.00     0.043 C 
ENDBRANCH  10  14
ENDBRANCH   3   7
BRANCH   1  24
HETATM   24  N   UNL     1      40.669 -16.566   4.574  1.00  0.00    -0.187 N 
HETATM   25  H   UNL     1      40.216 -16.989   5.376  1.00  0.00     0.184 HD
BRANCH  24  26
HETATM   26  C   UNL     1      41.596 -17.393   3.922  1.00  0.00     0.049 A 
HETATM   27  C   UNL     1      41.664 -17.504   2.530  1.00  0.00     0.033 A 
HETATM   28  C   UNL     1      42.577 -18.367   1.911  1.00  0.00     0.039 A 
HETATM   29  C   UNL     1      43.426 -19.159   2.679  1.00  0.00     0.076 A 
HETATM   30  C   UNL     1      43.372 -19.050   4.070  1.00  0.00     0.039 A 
HETATM   31  C   UNL     1      42.469 -18.174   4.685  1.00  0.00     0.033 A 
BRANCH  29  32
HETATM   32  O   UNL     1      44.338 -20.059   2.211  1.00  0.00    -0.270 OA
BRANCH  32  33
HETATM   33  C   UNL     1      43.911 -21.398   1.987  1.00  0.00     0.447 C 
HETATM   34 CL   UNL     1      44.404 -22.420   3.333  1.00  0.00    -0.014 Cl
HETATM   35  F   UNL     1      42.558 -21.432   1.853  1.00  0.00    -0.159 F 
HETATM   36  F   UNL     1      44.446 -21.860   0.828  1.00  0.00    -0.159 F 
ENDBRANCH  32  33
ENDBRANCH  29  32
ENDBRANCH  24  26
ENDBRANCH   1  24
BRANCH   5  37
HETATM   37  N   UNL     1      41.855 -12.562   6.648  1.00  0.00    -0.221 N 
HETATM   38  H   UNL     1      41.796 -13.083   7.516  1.00  0.00     0.177 HD
BRANCH  37  39
HETATM   39  C   UNL     1      41.650 -11.128   6.745  1.00  0.00     0.140 C 
BRANCH  39  40
HETATM   40  C   UNL     1      41.390 -10.706   8.191  1.00  0.00     0.046 C 
BRANCH  40  41
HETATM   41  C   UNL     1      42.635 -10.634   9.068  1.00  0.00     0.165 C 
BRANCH  41  42
HETATM   42  O   UNL     1      43.329 -11.875   9.080  1.00  0.00    -0.401 OA
HETATM   43  H   UNL     1      44.278 -11.639   9.071  1.00  0.00     0.209 HD
ENDBRANCH  41  42
ENDBRANCH  40  41
ENDBRANCH  39  40
ENDBRANCH  37  39
ENDBRANCH   5  37
TORSDOF 11
ENDMDL
MODEL 9
REMARK VINA RESULT:      -8.3      2.067      2.815
REMARK  11 active torsions:
REMARK  status: ('A' for Active; 'I' for Inactive)
REMARK    1  A    between atoms: C_2  and  N_3 
REMARK    2  A    between atoms: N_3  and  C_4 
REMARK    3  A    between atoms: C_6  and  N_7 
REMARK    4  A    between atoms: N_10  and  C_12 
REMARK    5  A    between atoms: C_25  and  N_26 
REMARK    6  A    between atoms: N_26  and  C_27 
REMARK    7  A    between atoms: C_27  and  C_28 
REMARK    8  A    between atoms: C_28  and  C_29 
REMARK    9  A    between atoms: C_29  and  O_30 
REMARK   10  A    between atoms: C_34  and  O_35 
REMARK   11  A    between atoms: O_35  and  C_36 
ROOT
HETATM    1  C   UNL     1      40.740 -15.367   4.017  1.00  0.00     0.758 C 
HETATM    2  N   UNL     1      39.890 -14.978   3.071  1.00  0.00     0.131 NA
HETATM    3  C   UNL     1      39.735 -13.673   2.917  1.00  0.00     0.756 C 
HETATM    4  N   UNL     1      40.458 -12.774   3.564  1.00  0.00     0.131 NA
HETATM    5  C   UNL     1      41.259 -13.238   4.512  1.00  0.00     0.754 C 
HETATM    6  N   UNL     1      41.415 -14.526   4.788  1.00  0.00     0.131 NA
ENDROOT
BRANCH   3   7
HETATM    7  N   UNL     1      38.766 -13.213   2.025  1.00  0.00    -0.210 N 
HETATM    8  C   UNL     1      38.655 -13.949   0.763  1.00  0.00     0.169 C 
HETATM    9  C   UNL     1      39.678 -13.468  -0.285  1.00  0.00     0.256 C 
HETATM   10  N   UNL     1      39.577 -11.934  -0.482  1.00  0.00    -0.059 N 
HETATM   11  H   UNL     1      38.599 -11.759  -0.747  1.00  0.00     0.281 HD
HETATM   12  C   UNL     1      39.763 -11.242   0.890  1.00  0.00     0.256 C 
HETATM   13  C   UNL     1      38.719 -11.755   1.912  1.00  0.00     0.169 C 
BRANCH  10  14
HETATM   14  C   UNL     1      40.428 -11.368  -1.639  1.00  0.00     0.129 C 
HETATM   15  C   UNL     1      41.875 -11.924  -1.534  1.00  0.00     0.043 C 
HETATM   16  C   UNL     1      42.740 -11.409  -2.699  1.00  0.00    -0.012 C 
HETATM   17  C   UNL     1      42.768  -9.871  -2.658  1.00  0.00     0.009 C 
HETATM   18  C   UNL     1      42.132 -11.876  -4.027  1.00  0.00     0.009 C 
HETATM   19  C   UNL     1      41.341  -9.312  -2.791  1.00  0.00    -0.012 C 
HETATM   20  C   UNL     1      40.477  -9.826  -1.620  1.00  0.00     0.043 C 
HETATM   21  C   UNL     1      40.740  -9.790  -4.123  1.00  0.00     0.009 C 
HETATM   22  C   UNL     1      40.705 -11.328  -4.166  1.00  0.00    -0.012 C 
HETATM   23  C   UNL     1      39.844 -11.841  -2.998  1.00  0.00     0.043 C 
ENDBRANCH  10  14
ENDBRANCH   3   7
BRANCH   1  24
HETATM   24  N   UNL     1      40.921 -16.727   4.263  1.00  0.00    -0.187 N 
HETATM   25  H   UNL     1      40.524 -16.998   5.155  1.00  0.00     0.184 HD
BRANCH  24  26
HETATM   26  C   UNL     1      41.903 -17.599   3.770  1.00  0.00     0.049 A 
HETATM   27  C   UNL     1      42.132 -17.784   2.403  1.00  0.00     0.033 A 
HETATM   28  C   UNL     1      43.095 -18.690   1.942  1.00  0.00     0.039 A 
HETATM   29  C   UNL     1      43.833 -19.451   2.845  1.00  0.00     0.076 A 
HETATM   30  C   UNL     1      43.618 -19.266   4.212  1.00  0.00     0.039 A 
HETATM   31  C   UNL     1      42.665 -18.348   4.670  1.00  0.00     0.033 A 
BRANCH  29  32
HETATM   32  O   UNL     1      44.778 -20.385   2.535  1.00  0.00    -0.270 OA
BRANCH  32  33
HETATM   33  C   UNL     1      44.355 -21.726   2.318  1.00  0.00     0.447 C 
HETATM   34 CL   UNL     1      44.600 -22.678   3.779  1.00  0.00    -0.014 Cl
HETATM   35  F   UNL     1      43.039 -21.742   1.973  1.00  0.00    -0.159 F 
HETATM   36  F   UNL     1      45.052 -22.265   1.286  1.00  0.00    -0.159 F 
ENDBRANCH  32  33
ENDBRANCH  29  32
ENDBRANCH  24  26
ENDBRANCH   1  24
BRANCH   5  37
HETATM   37  N   UNL     1      41.917 -12.284   5.263  1.00  0.00    -0.221 N 
HETATM   38  H   UNL     1      42.877 -12.572   5.414  1.00  0.00     0.177 HD
BRANCH  37  39
HETATM   39  C   UNL     1      41.239 -11.694   6.404  1.00  0.00     0.140 C 
BRANCH  39  40
HETATM   40  C   UNL     1      41.354 -10.169   6.386  1.00  0.00     0.046 C 
BRANCH  40  41
HETATM   41  C   UNL     1      40.747  -9.501   5.157  1.00  0.00     0.165 C 
BRANCH  41  42
HETATM   42  O   UNL     1      41.496  -9.799   3.986  1.00  0.00    -0.401 OA
HETATM   43  H   UNL     1      40.830  -9.992   3.297  1.00  0.00     0.209 HD
ENDBRANCH  41  42
ENDBRANCH  40  41
ENDBRANCH  39  40
ENDBRANCH  37  39
ENDBRANCH   5  37
TORSDOF 11
ENDMDL
MODEL 10
REMARK VINA RESULT:      -8.3      4.942      9.290
REMARK  11 active torsions:
REMARK  status: ('A' for Active; 'I' for Inactive)
REMARK    1  A    between atoms: C_2  and  N_3 
REMARK    2  A    between atoms: N_3  and  C_4 
REMARK    3  A    between atoms: C_6  and  N_7 
REMARK    4  A    between atoms: N_10  and  C_12 
REMARK    5  A    between atoms: C_25  and  N_26 
REMARK    6  A    between atoms: N_26  and  C_27 
REMARK    7  A    between atoms: C_27  and  C_28 
REMARK    8  A    between atoms: C_28  and  C_29 
REMARK    9  A    between atoms: C_29  and  O_30 
REMARK   10  A    between atoms: C_34  and  O_35 
REMARK   11  A    between atoms: O_35  and  C_36 
ROOT
HETATM    1  C   UNL     1      41.766 -12.756   1.468  1.00  0.00     0.758 C 
HETATM    2  N   UNL     1      41.752 -14.065   1.703  1.00  0.00     0.131 NA
HETATM    3  C   UNL     1      41.668 -14.853   0.644  1.00  0.00     0.756 C 
HETATM    4  N   UNL     1      41.716 -14.407  -0.601  1.00  0.00     0.131 NA
HETATM    5  C   UNL     1      41.696 -13.091  -0.753  1.00  0.00     0.754 C 
HETATM    6  N   UNL     1      41.699 -12.227   0.254  1.00  0.00     0.131 NA
ENDROOT
BRANCH   3   7
HETATM    7  N   UNL     1      41.526 -16.228   0.839  1.00  0.00    -0.210 N 
HETATM    8  C   UNL     1      40.552 -16.633   1.857  1.00  0.00     0.169 C 
HETATM    9  C   UNL     1      41.151 -16.612   3.278  1.00  0.00     0.256 C 
HETATM   10  N   UNL     1      42.452 -17.453   3.334  1.00  0.00    -0.059 N 
HETATM   11  H   UNL     1      42.183 -18.390   3.011  1.00  0.00     0.281 HD
HETATM   12  C   UNL     1      43.438 -16.916   2.267  1.00  0.00     0.256 C 
HETATM   13  C   UNL     1      42.797 -16.951   0.858  1.00  0.00     0.169 C 
BRANCH  10  14
HETATM   14  C   UNL     1      43.038 -17.651   4.748  1.00  0.00     0.129 C 
HETATM   15  C   UNL     1      44.008 -18.865   4.739  1.00  0.00     0.043 C 
HETATM   16  C   UNL     1      44.641 -19.064   6.128  1.00  0.00    -0.012 C 
HETATM   17  C   UNL     1      43.523 -19.300   7.157  1.00  0.00     0.009 C 
HETATM   18  C   UNL     1      45.434 -17.808   6.510  1.00  0.00     0.009 C 
HETATM   19  C   UNL     1      42.574 -18.089   7.194  1.00  0.00    -0.012 C 
HETATM   20  C   UNL     1      41.937 -17.894   5.802  1.00  0.00     0.043 C 
HETATM   21  C   UNL     1      43.379 -16.836   7.572  1.00  0.00     0.009 C 
HETATM   22  C   UNL     1      44.496 -16.593   6.542  1.00  0.00    -0.012 C 
HETATM   23  C   UNL     1      43.861 -16.399   5.153  1.00  0.00     0.043 C 
ENDBRANCH  10  14
ENDBRANCH   3   7
BRANCH   1  24
HETATM   24  N   UNL     1      41.811 -11.865   2.539  1.00  0.00    -0.187 N 
HETATM   25  H   UNL     1      42.708 -11.398   2.596  1.00  0.00     0.184 HD
BRANCH  24  26
HETATM   26  C   UNL     1      41.077 -11.872   3.734  1.00  0.00     0.049 A 
HETATM   27  C   UNL     1      39.702 -11.621   3.780  1.00  0.00     0.033 A 
HETATM   28  C   UNL     1      39.006 -11.599   4.995  1.00  0.00     0.039 A 
HETATM   29  C   UNL     1      39.681 -11.804   6.196  1.00  0.00     0.076 A 
HETATM   30  C   UNL     1      41.052 -12.064   6.159  1.00  0.00     0.039 A 
HETATM   31  C   UNL     1      41.742 -12.101   4.942  1.00  0.00     0.033 A 
BRANCH  29  32
HETATM   32  O   UNL     1      39.135 -11.782   7.445  1.00  0.00    -0.270 OA
BRANCH  32  33
HETATM   33  C   UNL     1      39.369 -10.641   8.264  1.00  0.00     0.447 C 
HETATM   34 CL   UNL     1      39.499  -9.199   7.264  1.00  0.00    -0.014 Cl
HETATM   35  F   UNL     1      38.348 -10.497   9.152  1.00  0.00    -0.159 F 
HETATM   36  F   UNL     1      40.507 -10.818   8.980  1.00  0.00    -0.159 F 
ENDBRANCH  32  33
ENDBRANCH  29  32
ENDBRANCH  24  26
ENDBRANCH   1  24
BRANCH   5  37
HETATM   37  N   UNL     1      41.624 -12.637  -2.055  1.00  0.00    -0.221 N 
HETATM   38  H   UNL     1      42.388 -13.028  -2.595  1.00  0.00     0.177 HD
BRANCH  37  39
HETATM   39  C   UNL     1      41.320 -11.238  -2.297  1.00  0.00     0.140 C 
BRANCH  39  40
HETATM   40  C   UNL     1      42.532 -10.500  -2.866  1.00  0.00     0.046 C 
BRANCH  40  41
HETATM   41  C   UNL     1      43.333  -9.706  -1.841  1.00  0.00     0.165 C 
BRANCH  41  42
HETATM   42  O   UNL     1      43.906 -10.561  -0.860  1.00  0.00    -0.401 OA
HETATM   43  H   UNL     1      43.477 -10.311  -0.018  1.00  0.00     0.209 HD
ENDBRANCH  41  42
ENDBRANCH  40  41
ENDBRANCH  39  40
ENDBRANCH  37  39
ENDBRANCH   5  37
TORSDOF 11
ENDMDL
