MODEL 1
REMARK VINA RESULT:      -8.4      0.000      0.000
REMARK  8 active torsions:
REMARK  status: ('A' for Active; 'I' for Inactive)
REMARK    1  A    between atoms: C_5  and  O_6 
REMARK    2  A    between atoms: O_6  and  C_7 
REMARK    3  A    between atoms: C_7  and  C_8 
REMARK    4  A    between atoms: C_8  and  C_9 
REMARK    5  A    between atoms: C_9  and  C_10 
REMARK    6  A    between atoms: C_10  and  N_11 
REMARK       I    between atoms: N_11  and  C_12 
REMARK    7  A    between atoms: C_12  and  C_13 
REMARK    8  A    between atoms: C_17  and  C_18 
ROOT
HETATM    1  C   UNL     1      44.629 -12.043  10.024  1.00  0.00     0.120 A 
HETATM    2  N   UNL     1      44.314 -12.898  11.042  1.00  0.00    -0.272 N 
HETATM    3  H   UNL     1      44.483 -13.900  11.068  1.00  0.00     0.189 HD
HETATM    4  N   UNL     1      43.717 -12.314  12.090  1.00  0.00    -0.174 NA
HETATM    5  C   UNL     1      43.649 -11.014  11.762  1.00  0.00     0.089 A 
HETATM    6  C   UNL     1      44.205 -10.805  10.467  1.00  0.00     0.071 A 
ENDROOT
BRANCH   1   7
HETATM    7  C   UNL     1      45.264 -12.504   8.821  1.00  0.00     0.270 C 
HETATM    8  N   UNL     1      44.536 -13.396   8.078  1.00  0.00    -0.345 N 
HETATM    9  H   UNL     1      43.608 -13.667   8.366  1.00  0.00     0.163 HD
HETATM   10  O   UNL     1      46.381 -12.123   8.484  1.00  0.00    -0.266 OA
BRANCH   8  11
HETATM   11  C   UNL     1      45.046 -13.909   6.836  1.00  0.00     0.217 C 
BRANCH  11  12
HETATM   12  C   UNL     1      44.676 -15.379   6.710  1.00  0.00    -0.085 C 
BRANCH  12  13
HETATM   13  C   UNL     1      44.360 -16.639   6.603  1.00  0.00    -0.078 C 
BRANCH  13  14
HETATM   14  C   UNL     1      43.991 -18.108   6.480  1.00  0.00     0.269 C 
BRANCH  14  15
HETATM   15  O   UNL     1      44.972 -18.754   5.675  1.00  0.00    -0.338 OA
BRANCH  15  16
HETATM   16  C   UNL     1      44.556 -19.238   4.470  1.00  0.00     0.087 A 
HETATM   17  C   UNL     1      44.704 -20.608   4.278  1.00  0.00     0.152 A 
HETATM   18  N   UNL     1      44.348 -21.271   3.150  1.00  0.00    -0.270 NA
HETATM   19  C   UNL     1      43.814 -20.528   2.161  1.00  0.00     0.116 A 
HETATM   20  C   UNL     1      43.622 -19.158   2.249  1.00  0.00     0.022 A 
HETATM   21  C   UNL     1      44.000 -18.506   3.424  1.00  0.00     0.040 A 
ENDBRANCH  15  16
ENDBRANCH  14  15
ENDBRANCH  13  14
ENDBRANCH  12  13
ENDBRANCH  11  12
ENDBRANCH   8  11
ENDBRANCH   1   7
BRANCH   5  22
HETATM   22  C   UNL     1      43.061 -10.020  12.666  1.00  0.00    -0.003 A 
HETATM   23  C   UNL     1      42.648 -10.380  13.959  1.00  0.00     0.053 A 
HETATM   24  C   UNL     1      42.104  -9.401  14.767  1.00  0.00     0.106 A 
HETATM   25  C   UNL     1      41.962  -8.101  14.344  1.00  0.00     0.105 A 
HETATM   26  O   UNL     1      41.654  -9.586  16.038  1.00  0.00    -0.323 OA
HETATM   27  O   UNL     1      41.407  -7.304  15.294  1.00  0.00    -0.323 OA
HETATM   28  C   UNL     1      42.352  -7.706  13.085  1.00  0.00     0.040 A 
HETATM   29  C   UNL     1      41.210  -8.252  16.364  1.00  0.00     0.352 A 
HETATM   30  C   UNL     1      42.904  -8.678  12.242  1.00  0.00     0.017 A 
ENDBRANCH   5  22
TORSDOF 8
ENDMDL
MODEL 2
REMARK VINA RESULT:      -8.3      1.330      1.615
REMARK  8 active torsions:
REMARK  status: ('A' for Active; 'I' for Inactive)
REMARK    1  A    between atoms: C_5  and  O_6 
REMARK    2  A    between atoms: O_6  and  C_7 
REMARK    3  A    between atoms: C_7  and  C_8 
REMARK    4  A    between atoms: C_8  and  C_9 
REMARK    5  A    between atoms: C_9  and  C_10 
REMARK    6  A    between atoms: C_10  and  N_11 
REMARK       I    between atoms: N_11  and  C_12 
REMARK    7  A    between atoms: C_12  and  C_13 
REMARK    8  A    between atoms: C_17  and  C_18 
ROOT
HETATM    1  C   UNL     1      44.166 -11.485  10.487  1.00  0.00     0.120 A 
HETATM    2  N   UNL     1      43.934 -12.444  11.432  1.00  0.00    -0.272 N 
HETATM    3  H   UNL     1      44.237 -13.413  11.402  1.00  0.00     0.189 HD
HETATM    4  N   UNL     1      43.224 -12.019  12.487  1.00  0.00    -0.174 NA
HETATM    5  C   UNL     1      42.992 -10.720  12.240  1.00  0.00     0.089 A 
HETATM    6  C   UNL     1      43.561 -10.349  10.988  1.00  0.00     0.071 A 
ENDROOT
BRANCH   1   7
HETATM    7  C   UNL     1      44.901 -11.773   9.287  1.00  0.00     0.270 C 
HETATM    8  N   UNL     1      44.533 -12.919   8.633  1.00  0.00    -0.345 N 
HETATM    9  H   UNL     1      43.772 -13.484   8.977  1.00  0.00     0.163 HD
HETATM   10  O   UNL     1      45.798 -11.040   8.878  1.00  0.00    -0.266 OA
BRANCH   8  11
HETATM   11  C   UNL     1      45.170 -13.302   7.402  1.00  0.00     0.217 C 
BRANCH  11  12
HETATM   12  C   UNL     1      44.712 -14.699   7.015  1.00  0.00    -0.085 C 
BRANCH  12  13
HETATM   13  C   UNL     1      44.320 -15.898   6.682  1.00  0.00    -0.078 C 
BRANCH  13  14
HETATM   14  C   UNL     1      43.862 -17.294   6.295  1.00  0.00     0.269 C 
BRANCH  14  15
HETATM   15  O   UNL     1      43.510 -17.288   4.915  1.00  0.00    -0.338 OA
BRANCH  15  16
HETATM   16  C   UNL     1      43.848 -18.393   4.191  1.00  0.00     0.087 A 
HETATM   17  C   UNL     1      44.588 -19.361   4.863  1.00  0.00     0.152 A 
HETATM   18  N   UNL     1      45.015 -20.524   4.314  1.00  0.00    -0.270 NA
HETATM   19  C   UNL     1      44.685 -20.735   3.024  1.00  0.00     0.116 A 
HETATM   20  C   UNL     1      43.950 -19.838   2.264  1.00  0.00     0.022 A 
HETATM   21  C   UNL     1      43.527 -18.649   2.860  1.00  0.00     0.040 A 
ENDBRANCH  15  16
ENDBRANCH  14  15
ENDBRANCH  13  14
ENDBRANCH  12  13
ENDBRANCH  11  12
ENDBRANCH   8  11
ENDBRANCH   1   7
BRANCH   5  22
HETATM   22  C   UNL     1      42.242  -9.878  13.178  1.00  0.00    -0.003 A 
HETATM   23  C   UNL     1      41.003  -9.326  12.815  1.00  0.00     0.053 A 
HETATM   24  C   UNL     1      40.340  -8.544  13.740  1.00  0.00     0.106 A 
HETATM   25  C   UNL     1      40.855  -8.297  14.990  1.00  0.00     0.105 A 
HETATM   26  O   UNL     1      39.138  -7.937  13.544  1.00  0.00    -0.323 OA
HETATM   27  O   UNL     1      40.043  -7.505  15.739  1.00  0.00    -0.323 OA
HETATM   28  C   UNL     1      42.066  -8.816  15.386  1.00  0.00     0.040 A 
HETATM   29  C   UNL     1      38.959  -7.277  14.816  1.00  0.00     0.352 A 
HETATM   30  C   UNL     1      42.763  -9.611  14.467  1.00  0.00     0.017 A 
ENDBRANCH   5  22
TORSDOF 8
ENDMDL
MODEL 3
REMARK VINA RESULT:      -8.0      3.332     12.157
REMARK  8 active torsions:
REMARK  status: ('A' for Active; 'I' for Inactive)
REMARK    1  A    between atoms: C_5  and  O_6 
REMARK    2  A    between atoms: O_6  and  C_7 
REMARK    3  A    between atoms: C_7  and  C_8 
REMARK    4  A    between atoms: C_8  and  C_9 
REMARK    5  A    between atoms: C_9  and  C_10 
REMARK    6  A    between atoms: C_10  and  N_11 
REMARK       I    between atoms: N_11  and  C_12 
REMARK    7  A    between atoms: C_12  and  C_13 
REMARK    8  A    between atoms: C_17  and  C_18 
ROOT
HETATM    1  C   UNL     1      41.970 -14.852   5.663  1.00  0.00     0.120 A 
HETATM    2  N   UNL     1      42.775 -15.224   6.702  1.00  0.00    -0.272 N 
HETATM    3  H   UNL     1      42.918 -14.718   7.571  1.00  0.00     0.189 HD
HETATM    4  N   UNL     1      43.429 -16.378   6.507  1.00  0.00    -0.174 NA
HETATM    5  C   UNL     1      43.027 -16.798   5.297  1.00  0.00     0.089 A 
HETATM    6  C   UNL     1      42.115 -15.861   4.731  1.00  0.00     0.071 A 
ENDROOT
BRANCH   1   7
HETATM    7  C   UNL     1      41.205 -13.637   5.700  1.00  0.00     0.270 C 
HETATM    8  N   UNL     1      40.035 -13.701   6.413  1.00  0.00    -0.345 N 
HETATM    9  H   UNL     1      39.774 -14.548   6.893  1.00  0.00     0.163 HD
HETATM   10  O   UNL     1      41.575 -12.613   5.133  1.00  0.00    -0.266 OA
BRANCH   8  11
HETATM   11  C   UNL     1      39.194 -12.544   6.553  1.00  0.00     0.217 C 
BRANCH  11  12
HETATM   12  C   UNL     1      39.555 -11.816   7.838  1.00  0.00    -0.085 C 
BRANCH  12  13
HETATM   13  C   UNL     1      39.864 -11.191   8.940  1.00  0.00    -0.078 C 
BRANCH  13  14
HETATM   14  C   UNL     1      40.224 -10.462  10.224  1.00  0.00     0.269 C 
BRANCH  14  15
HETATM   15  O   UNL     1      41.559 -10.807  10.581  1.00  0.00    -0.338 OA
BRANCH  15  16
HETATM   16  C   UNL     1      41.968 -10.458  11.834  1.00  0.00     0.087 A 
HETATM   17  C   UNL     1      41.082 -10.745  12.868  1.00  0.00     0.152 A 
HETATM   18  N   UNL     1      41.311 -10.475  14.177  1.00  0.00    -0.270 NA
HETATM   19  C   UNL     1      42.488  -9.887  14.470  1.00  0.00     0.116 A 
HETATM   20  C   UNL     1      43.440  -9.560  13.518  1.00  0.00     0.022 A 
HETATM   21  C   UNL     1      43.173  -9.851  12.179  1.00  0.00     0.040 A 
ENDBRANCH  15  16
ENDBRANCH  14  15
ENDBRANCH  13  14
ENDBRANCH  12  13
ENDBRANCH  11  12
ENDBRANCH   8  11
ENDBRANCH   1   7
BRANCH   5  22
HETATM   22  C   UNL     1      43.514 -18.052   4.715  1.00  0.00    -0.003 A 
HETATM   23  C   UNL     1      43.015 -18.515   3.486  1.00  0.00     0.053 A 
HETATM   24  C   UNL     1      43.513 -19.702   2.984  1.00  0.00     0.106 A 
HETATM   25  C   UNL     1      44.472 -20.429   3.647  1.00  0.00     0.105 A 
HETATM   26  O   UNL     1      43.133 -20.286   1.815  1.00  0.00    -0.323 OA
HETATM   27  O   UNL     1      44.820 -21.560   2.979  1.00  0.00    -0.323 OA
HETATM   28  C   UNL     1      44.987 -20.013   4.853  1.00  0.00     0.040 A 
HETATM   29  C   UNL     1      43.965 -21.466   1.821  1.00  0.00     0.352 A 
HETATM   30  C   UNL     1      44.499 -18.815   5.388  1.00  0.00     0.017 A 
ENDBRANCH   5  22
TORSDOF 8
ENDMDL
MODEL 4
REMARK VINA RESULT:      -7.9      3.003     12.311
REMARK  8 active torsions:
REMARK  status: ('A' for Active; 'I' for Inactive)
REMARK    1  A    between atoms: C_5  and  O_6 
REMARK    2  A    between atoms: O_6  and  C_7 
REMARK    3  A    between atoms: C_7  and  C_8 
REMARK    4  A    between atoms: C_8  and  C_9 
REMARK    5  A    between atoms: C_9  and  C_10 
REMARK    6  A    between atoms: C_10  and  N_11 
REMARK       I    between atoms: N_11  and  C_12 
REMARK    7  A    between atoms: C_12  and  C_13 
REMARK    8  A    between atoms: C_17  and  C_18 
ROOT
HETATM    1  C   UNL     1      42.993 -15.115   4.585  1.00  0.00     0.120 A 
HETATM    2  N   UNL     1      43.489 -15.643   5.742  1.00  0.00    -0.272 N 
HETATM    3  H   UNL     1      43.614 -15.158   6.627  1.00  0.00     0.189 HD
HETATM    4  N   UNL     1      43.844 -16.932   5.654  1.00  0.00    -0.174 NA
HETATM    5  C   UNL     1      43.552 -17.279   4.390  1.00  0.00     0.089 A 
HETATM    6  C   UNL     1      43.022 -16.161   3.684  1.00  0.00     0.071 A 
ENDROOT
BRANCH   1   7
HETATM    7  C   UNL     1      42.575 -13.743   4.500  1.00  0.00     0.270 C 
HETATM    8  N   UNL     1      41.815 -13.295   5.549  1.00  0.00    -0.345 N 
HETATM    9  H   UNL     1      41.607 -13.902   6.328  1.00  0.00     0.163 HD
HETATM   10  O   UNL     1      42.879 -13.023   3.553  1.00  0.00    -0.266 OA
BRANCH   8  11
HETATM   11  C   UNL     1      41.360 -11.932   5.600  1.00  0.00     0.217 C 
BRANCH  11  12
HETATM   12  C   UNL     1      41.772 -11.316   6.928  1.00  0.00    -0.085 C 
BRANCH  12  13
HETATM   13  C   UNL     1      42.125 -10.789   8.067  1.00  0.00    -0.078 C 
BRANCH  13  14
HETATM   14  C   UNL     1      42.538 -10.173   9.393  1.00  0.00     0.269 C 
BRANCH  14  15
HETATM   15  O   UNL     1      42.393 -11.158  10.413  1.00  0.00    -0.338 OA
BRANCH  15  16
HETATM   16  C   UNL     1      42.453 -10.718  11.703  1.00  0.00     0.087 A 
HETATM   17  C   UNL     1      41.426 -11.142  12.541  1.00  0.00     0.152 A 
HETATM   18  N   UNL     1      41.314 -10.811  13.851  1.00  0.00    -0.270 NA
HETATM   19  C   UNL     1      42.279 -10.016  14.353  1.00  0.00     0.116 A 
HETATM   20  C   UNL     1      43.345  -9.539  13.606  1.00  0.00     0.022 A 
HETATM   21  C   UNL     1      43.430  -9.898  12.260  1.00  0.00     0.040 A 
ENDBRANCH  15  16
ENDBRANCH  14  15
ENDBRANCH  13  14
ENDBRANCH  12  13
ENDBRANCH  11  12
ENDBRANCH   8  11
ENDBRANCH   1   7
BRANCH   5  22
HETATM   22  C   UNL     1      43.786 -18.638   3.889  1.00  0.00    -0.003 A 
HETATM   23  C   UNL     1      44.325 -19.629   4.726  1.00  0.00     0.053 A 
HETATM   24  C   UNL     1      44.521 -20.891   4.201  1.00  0.00     0.106 A 
HETATM   25  C   UNL     1      44.203 -21.197   2.899  1.00  0.00     0.105 A 
HETATM   26  O   UNL     1      45.034 -21.956   4.875  1.00  0.00    -0.323 OA
HETATM   27  O   UNL     1      44.475 -22.493   2.589  1.00  0.00    -0.323 OA
HETATM   28  C   UNL     1      43.675 -20.256   2.045  1.00  0.00     0.040 A 
HETATM   29  C   UNL     1      45.005 -22.967   3.844  1.00  0.00     0.352 A 
HETATM   30  C   UNL     1      43.469 -18.966   2.549  1.00  0.00     0.017 A 
ENDBRANCH   5  22
TORSDOF 8
ENDMDL
MODEL 5
REMARK VINA RESULT:      -7.9      3.418     11.662
REMARK  8 active torsions:
REMARK  status: ('A' for Active; 'I' for Inactive)
REMARK    1  A    between atoms: C_5  and  O_6 
REMARK    2  A    between atoms: O_6  and  C_7 
REMARK    3  A    between atoms: C_7  and  C_8 
REMARK    4  A    between atoms: C_8  and  C_9 
REMARK    5  A    between atoms: C_9  and  C_10 
REMARK    6  A    between atoms: C_10  and  N_11 
REMARK       I    between atoms: N_11  and  C_12 
REMARK    7  A    between atoms: C_12  and  C_13 
REMARK    8  A    between atoms: C_17  and  C_18 
ROOT
HETATM    1  C   UNL     1      41.690 -15.253   5.292  1.00  0.00     0.120 A 
HETATM    2  N   UNL     1      42.624 -15.432   6.273  1.00  0.00    -0.272 N 
HETATM    3  H   UNL     1      42.811 -14.810   7.054  1.00  0.00     0.189 HD
HETATM    4  N   UNL     1      43.347 -16.554   6.149  1.00  0.00    -0.174 NA
HETATM    5  C   UNL     1      42.861 -17.152   5.049  1.00  0.00     0.089 A 
HETATM    6  C   UNL     1      41.824 -16.361   4.478  1.00  0.00     0.071 A 
ENDROOT
BRANCH   1   7
HETATM    7  C   UNL     1      40.836 -14.099   5.266  1.00  0.00     0.270 C 
HETATM    8  N   UNL     1      40.105 -13.884   6.406  1.00  0.00    -0.345 N 
HETATM    9  H   UNL     1      40.206 -14.494   7.202  1.00  0.00     0.163 HD
HETATM   10  O   UNL     1      40.767 -13.357   4.290  1.00  0.00    -0.266 OA
BRANCH   8  11
HETATM   11  C   UNL     1      39.235 -12.745   6.519  1.00  0.00     0.217 C 
BRANCH  11  12
HETATM   12  C   UNL     1      39.956 -11.638   7.273  1.00  0.00    -0.085 C 
BRANCH  12  13
HETATM   13  C   UNL     1      40.574 -10.689   7.918  1.00  0.00    -0.078 C 
BRANCH  13  14
HETATM   14  C   UNL     1      41.294  -9.582   8.670  1.00  0.00     0.269 C 
BRANCH  14  15
HETATM   15  O   UNL     1      42.691  -9.857   8.650  1.00  0.00    -0.338 OA
BRANCH  15  16
HETATM   16  C   UNL     1      43.163 -10.704   9.609  1.00  0.00     0.087 A 
HETATM   17  C   UNL     1      44.098 -11.645   9.186  1.00  0.00     0.152 A 
HETATM   18  N   UNL     1      44.680 -12.568   9.990  1.00  0.00    -0.270 NA
HETATM   19  C   UNL     1      44.310 -12.552  11.286  1.00  0.00     0.116 A 
HETATM   20  C   UNL     1      43.390 -11.658  11.810  1.00  0.00     0.022 A 
HETATM   21  C   UNL     1      42.809 -10.720  10.955  1.00  0.00     0.040 A 
ENDBRANCH  15  16
ENDBRANCH  14  15
ENDBRANCH  13  14
ENDBRANCH  12  13
ENDBRANCH  11  12
ENDBRANCH   8  11
ENDBRANCH   1   7
BRANCH   5  22
HETATM   22  C   UNL     1      43.389 -18.435   4.572  1.00  0.00    -0.003 A 
HETATM   23  C   UNL     1      43.203 -18.836   3.239  1.00  0.00     0.053 A 
HETATM   24  C   UNL     1      43.725 -20.053   2.845  1.00  0.00     0.106 A 
HETATM   25  C   UNL     1      44.412 -20.868   3.712  1.00  0.00     0.105 A 
HETATM   26  O   UNL     1      43.629 -20.586   1.597  1.00  0.00    -0.323 OA
HETATM   27  O   UNL     1      44.838 -22.015   3.120  1.00  0.00    -0.323 OA
HETATM   28  C   UNL     1      44.615 -20.514   5.026  1.00  0.00     0.040 A 
HETATM   29  C   UNL     1      44.335 -21.832   1.781  1.00  0.00     0.352 A 
HETATM   30  C   UNL     1      44.095 -19.287   5.456  1.00  0.00     0.017 A 
ENDBRANCH   5  22
TORSDOF 8
ENDMDL
MODEL 6
REMARK VINA RESULT:      -7.9      3.425     11.415
REMARK  8 active torsions:
REMARK  status: ('A' for Active; 'I' for Inactive)
REMARK    1  A    between atoms: C_5  and  O_6 
REMARK    2  A    between atoms: O_6  and  C_7 
REMARK    3  A    between atoms: C_7  and  C_8 
REMARK    4  A    between atoms: C_8  and  C_9 
REMARK    5  A    between atoms: C_9  and  C_10 
REMARK    6  A    between atoms: C_10  and  N_11 
REMARK       I    between atoms: N_11  and  C_12 
REMARK    7  A    between atoms: C_12  and  C_13 
REMARK    8  A    between atoms: C_17  and  C_18 
ROOT
HETATM    1  C   UNL     1      40.636 -14.065   5.710  1.00  0.00     0.120 A 
HETATM    2  N   UNL     1      40.224 -15.142   6.442  1.00  0.00    -0.272 N 
HETATM    3  H   UNL     1      39.670 -15.122   7.293  1.00  0.00     0.189 HD
HETATM    4  N   UNL     1      40.621 -16.326   5.953  1.00  0.00    -0.174 NA
HETATM    5  C   UNL     1      41.309 -16.022   4.841  1.00  0.00     0.089 A 
HETATM    6  C   UNL     1      41.347 -14.610   4.658  1.00  0.00     0.071 A 
ENDROOT
BRANCH   1   7
HETATM    7  C   UNL     1      40.309 -12.721   6.097  1.00  0.00     0.270 C 
HETATM    8  N   UNL     1      39.802 -12.582   7.363  1.00  0.00    -0.345 N 
HETATM    9  H   UNL     1      39.708 -13.383   7.969  1.00  0.00     0.163 HD
HETATM   10  O   UNL     1      40.472 -11.765   5.344  1.00  0.00    -0.266 OA
BRANCH   8  11
HETATM   11  C   UNL     1      39.464 -11.284   7.882  1.00  0.00     0.217 C 
BRANCH  11  12
HETATM   12  C   UNL     1      39.926 -11.187   9.327  1.00  0.00    -0.085 C 
BRANCH  12  13
HETATM   13  C   UNL     1      40.322 -11.103  10.567  1.00  0.00    -0.078 C 
BRANCH  13  14
HETATM   14  C   UNL     1      40.783 -11.005  12.011  1.00  0.00     0.269 C 
BRANCH  14  15
HETATM   15  O   UNL     1      41.963 -10.209  12.056  1.00  0.00    -0.338 OA
BRANCH  15  16
HETATM   16  C   UNL     1      43.089 -10.748  11.506  1.00  0.00     0.087 A 
HETATM   17  C   UNL     1      43.403 -12.044  11.905  1.00  0.00     0.152 A 
HETATM   18  N   UNL     1      44.477 -12.746  11.469  1.00  0.00    -0.270 NA
HETATM   19  C   UNL     1      45.282 -12.122  10.586  1.00  0.00     0.116 A 
HETATM   20  C   UNL     1      45.060 -10.834  10.123  1.00  0.00     0.022 A 
HETATM   21  C   UNL     1      43.945 -10.139  10.593  1.00  0.00     0.040 A 
ENDBRANCH  15  16
ENDBRANCH  14  15
ENDBRANCH  13  14
ENDBRANCH  12  13
ENDBRANCH  11  12
ENDBRANCH   8  11
ENDBRANCH   1   7
BRANCH   5  22
HETATM   22  C   UNL     1      41.909 -17.060   3.997  1.00  0.00    -0.003 A 
HETATM   23  C   UNL     1      42.885 -17.930   4.512  1.00  0.00     0.053 A 
HETATM   24  C   UNL     1      43.413 -18.890   3.671  1.00  0.00     0.106 A 
HETATM   25  C   UNL     1      43.011 -19.015   2.363  1.00  0.00     0.105 A 
HETATM   26  O   UNL     1      44.363 -19.802   4.013  1.00  0.00    -0.323 OA
HETATM   27  O   UNL     1      43.656 -20.022   1.716  1.00  0.00    -0.323 OA
HETATM   28  C   UNL     1      42.060 -18.184   1.818  1.00  0.00     0.040 A 
HETATM   29  C   UNL     1      44.514 -20.514   2.766  1.00  0.00     0.352 A 
HETATM   30  C   UNL     1      41.509 -17.198   2.646  1.00  0.00     0.017 A 
ENDBRANCH   5  22
TORSDOF 8
ENDMDL
MODEL 7
REMARK VINA RESULT:      -7.8      8.928     12.477
REMARK  8 active torsions:
REMARK  status: ('A' for Active; 'I' for Inactive)
REMARK    1  A    between atoms: C_5  and  O_6 
REMARK    2  A    between atoms: O_6  and  C_7 
REMARK    3  A    between atoms: C_7  and  C_8 
REMARK    4  A    between atoms: C_8  and  C_9 
REMARK    5  A    between atoms: C_9  and  C_10 
REMARK    6  A    between atoms: C_10  and  N_11 
REMARK       I    between atoms: N_11  and  C_12 
REMARK    7  A    between atoms: C_12  and  C_13 
REMARK    8  A    between atoms: C_17  and  C_18 
ROOT
HETATM    1  C   UNL     1      42.888 -15.750   2.057  1.00  0.00     0.120 A 
HETATM    2  N   UNL     1      42.818 -16.320   0.817  1.00  0.00    -0.272 N 
HETATM    3  H   UNL     1      42.580 -15.853  -0.053  1.00  0.00     0.189 HD
HETATM    4  N   UNL     1      43.092 -17.632   0.796  1.00  0.00    -0.174 NA
HETATM    5  C   UNL     1      43.374 -17.941   2.071  1.00  0.00     0.089 A 
HETATM    6  C   UNL     1      43.249 -16.787   2.896  1.00  0.00     0.071 A 
ENDROOT
BRANCH   1   7
HETATM    7  C   UNL     1      42.614 -14.355   2.263  1.00  0.00     0.270 C 
HETATM    8  N   UNL     1      41.415 -13.914   1.767  1.00  0.00    -0.345 N 
HETATM    9  H   UNL     1      40.776 -14.555   1.322  1.00  0.00     0.163 HD
HETATM   10  O   UNL     1      43.400 -13.612   2.843  1.00  0.00    -0.266 OA
BRANCH   8  11
HETATM   11  C   UNL     1      41.007 -12.545   1.935  1.00  0.00     0.217 C 
BRANCH  11  12
HETATM   12  C   UNL     1      40.681 -11.949   0.575  1.00  0.00    -0.085 C 
BRANCH  12  13
HETATM   13  C   UNL     1      40.402 -11.438  -0.591  1.00  0.00    -0.078 C 
BRANCH  13  14
HETATM   14  C   UNL     1      40.077 -10.842  -1.951  1.00  0.00     0.269 C 
BRANCH  14  15
HETATM   15  O   UNL     1      40.727 -11.620  -2.952  1.00  0.00    -0.338 OA
BRANCH  15  16
HETATM   16  C   UNL     1      40.201 -12.852  -3.209  1.00  0.00     0.087 A 
HETATM   17  C   UNL     1      41.116 -13.855  -3.513  1.00  0.00     0.152 A 
HETATM   18  N   UNL     1      40.786 -15.139  -3.795  1.00  0.00    -0.270 NA
HETATM   19  C   UNL     1      39.472 -15.439  -3.773  1.00  0.00     0.116 A 
HETATM   20  C   UNL     1      38.480 -14.517  -3.481  1.00  0.00     0.022 A 
HETATM   21  C   UNL     1      38.853 -13.203  -3.195  1.00  0.00     0.040 A 
ENDBRANCH  15  16
ENDBRANCH  14  15
ENDBRANCH  13  14
ENDBRANCH  12  13
ENDBRANCH  11  12
ENDBRANCH   8  11
ENDBRANCH   1   7
BRANCH   5  22
HETATM   22  C   UNL     1      43.742 -19.304   2.471  1.00  0.00    -0.003 A 
HETATM   23  C   UNL     1      44.253 -19.563   3.753  1.00  0.00     0.053 A 
HETATM   24  C   UNL     1      44.580 -20.865   4.075  1.00  0.00     0.106 A 
HETATM   25  C   UNL     1      44.418 -21.900   3.185  1.00  0.00     0.105 A 
HETATM   26  O   UNL     1      45.087 -21.280   5.268  1.00  0.00    -0.323 OA
HETATM   27  O   UNL     1      44.800 -23.096   3.704  1.00  0.00    -0.323 OA
HETATM   28  C   UNL     1      43.923 -21.690   1.919  1.00  0.00     0.040 A 
HETATM   29  C   UNL     1      45.227 -22.696   5.023  1.00  0.00     0.352 A 
HETATM   30  C   UNL     1      43.586 -20.378   1.563  1.00  0.00     0.017 A 
ENDBRANCH   5  22
TORSDOF 8
ENDMDL
MODEL 8
REMARK VINA RESULT:      -7.6      9.806     12.929
REMARK  8 active torsions:
REMARK  status: ('A' for Active; 'I' for Inactive)
REMARK    1  A    between atoms: C_5  and  O_6 
REMARK    2  A    between atoms: O_6  and  C_7 
REMARK    3  A    between atoms: C_7  and  C_8 
REMARK    4  A    between atoms: C_8  and  C_9 
REMARK    5  A    between atoms: C_9  and  C_10 
REMARK    6  A    between atoms: C_10  and  N_11 
REMARK       I    between atoms: N_11  and  C_12 
REMARK    7  A    between atoms: C_12  and  C_13 
REMARK    8  A    between atoms: C_17  and  C_18 
ROOT
HETATM    1  C   UNL     1      41.665 -16.311   1.747  1.00  0.00     0.120 A 
HETATM    2  N   UNL     1      42.612 -16.460   0.774  1.00  0.00    -0.272 N 
HETATM    3  H   UNL     1      42.800 -15.821   0.007  1.00  0.00     0.189 HD
HETATM    4  N   UNL     1      43.338 -17.582   0.876  1.00  0.00    -0.174 NA
HETATM    5  C   UNL     1      42.865 -18.194   1.974  1.00  0.00     0.089 A 
HETATM    6  C   UNL     1      41.808 -17.430   2.545  1.00  0.00     0.071 A 
ENDROOT
BRANCH   1   7
HETATM    7  C   UNL     1      40.792 -15.171   1.782  1.00  0.00     0.270 C 
HETATM    8  N   UNL     1      39.539 -15.375   1.263  1.00  0.00    -0.345 N 
HETATM    9  H   UNL     1      39.269 -16.284   0.919  1.00  0.00     0.163 HD
HETATM   10  O   UNL     1      41.145 -14.090   2.244  1.00  0.00    -0.266 OA
BRANCH   8  11
HETATM   11  C   UNL     1      38.560 -14.323   1.267  1.00  0.00     0.217 C 
BRANCH  11  12
HETATM   12  C   UNL     1      38.285 -13.888  -0.163  1.00  0.00    -0.085 C 
BRANCH  12  13
HETATM   13  C   UNL     1      38.049 -13.515  -1.390  1.00  0.00    -0.078 C 
BRANCH  13  14
HETATM   14  C   UNL     1      37.772 -13.082  -2.820  1.00  0.00     0.269 C 
BRANCH  14  15
HETATM   15  O   UNL     1      38.807 -13.591  -3.655  1.00  0.00    -0.338 OA
BRANCH  15  16
HETATM   16  C   UNL     1      40.028 -12.990  -3.555  1.00  0.00     0.087 A 
HETATM   17  C   UNL     1      40.089 -11.660  -3.960  1.00  0.00     0.152 A 
HETATM   18  N   UNL     1      41.209 -10.897  -3.933  1.00  0.00    -0.270 NA
HETATM   19  C   UNL     1      42.329 -11.493  -3.478  1.00  0.00     0.116 A 
HETATM   20  C   UNL     1      42.377 -12.810  -3.050  1.00  0.00     0.022 A 
HETATM   21  C   UNL     1      41.206 -13.569  -3.091  1.00  0.00     0.040 A 
ENDBRANCH  15  16
ENDBRANCH  14  15
ENDBRANCH  13  14
ENDBRANCH  12  13
ENDBRANCH  11  12
ENDBRANCH   8  11
ENDBRANCH   1   7
BRANCH   5  22
HETATM   22  C   UNL     1      43.415 -19.470   2.443  1.00  0.00    -0.003 A 
HETATM   23  C   UNL     1      43.943 -19.593   3.738  1.00  0.00     0.053 A 
HETATM   24  C   UNL     1      44.444 -20.820   4.126  1.00  0.00     0.106 A 
HETATM   25  C   UNL     1      44.438 -21.909   3.288  1.00  0.00     0.105 A 
HETATM   26  O   UNL     1      44.990 -21.102   5.340  1.00  0.00    -0.323 OA
HETATM   27  O   UNL     1      44.977 -23.014   3.867  1.00  0.00    -0.323 OA
HETATM   28  C   UNL     1      43.932 -21.832   2.010  1.00  0.00     0.040 A 
HETATM   29  C   UNL     1      45.329 -22.495   5.166  1.00  0.00     0.352 A 
HETATM   30  C   UNL     1      43.420 -20.599   1.588  1.00  0.00     0.017 A 
ENDBRANCH   5  22
TORSDOF 8
ENDMDL
MODEL 9
REMARK VINA RESULT:      -7.5      3.516     12.115
REMARK  8 active torsions:
REMARK  status: ('A' for Active; 'I' for Inactive)
REMARK    1  A    between atoms: C_5  and  O_6 
REMARK    2  A    between atoms: O_6  and  C_7 
REMARK    3  A    between atoms: C_7  and  C_8 
REMARK    4  A    between atoms: C_8  and  C_9 
REMARK    5  A    between atoms: C_9  and  C_10 
REMARK    6  A    between atoms: C_10  and  N_11 
REMARK       I    between atoms: N_11  and  C_12 
REMARK    7  A    between atoms: C_12  and  C_13 
REMARK    8  A    between atoms: C_17  and  C_18 
ROOT
HETATM    1  C   UNL     1      41.680 -15.508   3.458  1.00  0.00     0.120 A 
HETATM    2  N   UNL     1      42.890 -15.268   2.871  1.00  0.00    -0.272 N 
HETATM    3  H   UNL     1      43.259 -14.366   2.587  1.00  0.00     0.189 HD
HETATM    4  N   UNL     1      43.629 -16.367   2.662  1.00  0.00    -0.174 NA
HETATM    5  C   UNL     1      42.886 -17.374   3.147  1.00  0.00     0.089 A 
HETATM    6  C   UNL     1      41.651 -16.875   3.649  1.00  0.00     0.071 A 
ENDROOT
BRANCH   1   7
HETATM    7  C   UNL     1      40.758 -14.444   3.745  1.00  0.00     0.270 C 
HETATM    8  N   UNL     1      40.458 -14.268   5.071  1.00  0.00    -0.345 N 
HETATM    9  H   UNL     1      40.896 -14.841   5.776  1.00  0.00     0.163 HD
HETATM   10  O   UNL     1      40.273 -13.743   2.861  1.00  0.00    -0.266 OA
BRANCH   8  11
HETATM   11  C   UNL     1      39.572 -13.217   5.492  1.00  0.00     0.217 C 
BRANCH  11  12
HETATM   12  C   UNL     1      40.366 -12.169   6.255  1.00  0.00    -0.085 C 
BRANCH  12  13
HETATM   13  C   UNL     1      41.048 -11.270   6.909  1.00  0.00    -0.078 C 
BRANCH  13  14
HETATM   14  C   UNL     1      41.842 -10.221   7.670  1.00  0.00     0.269 C 
BRANCH  14  15
HETATM   15  O   UNL     1      42.973 -10.853   8.263  1.00  0.00    -0.338 OA
BRANCH  15  16
HETATM   16  C   UNL     1      42.920 -11.069   9.609  1.00  0.00     0.087 A 
HETATM   17  C   UNL     1      44.007 -11.737  10.163  1.00  0.00     0.152 A 
HETATM   18  N   UNL     1      44.136 -12.041  11.478  1.00  0.00    -0.270 NA
HETATM   19  C   UNL     1      43.126 -11.659  12.283  1.00  0.00     0.116 A 
HETATM   20  C   UNL     1      41.998 -10.989  11.834  1.00  0.00     0.022 A 
HETATM   21  C   UNL     1      41.897 -10.691  10.474  1.00  0.00     0.040 A 
ENDBRANCH  15  16
ENDBRANCH  14  15
ENDBRANCH  13  14
ENDBRANCH  12  13
ENDBRANCH  11  12
ENDBRANCH   8  11
ENDBRANCH   1   7
BRANCH   5  22
HETATM   22  C   UNL     1      43.356 -18.763   3.116  1.00  0.00    -0.003 A 
HETATM   23  C   UNL     1      43.927 -19.354   4.255  1.00  0.00     0.053 A 
HETATM   24  C   UNL     1      44.349 -20.666   4.169  1.00  0.00     0.106 A 
HETATM   25  C   UNL     1      44.224 -21.398   3.013  1.00  0.00     0.105 A 
HETATM   26  O   UNL     1      44.923 -21.379   5.176  1.00  0.00    -0.323 OA
HETATM   27  O   UNL     1      44.701 -22.664   3.145  1.00  0.00    -0.323 OA
HETATM   28  C   UNL     1      43.672 -20.858   1.874  1.00  0.00     0.040 A 
HETATM   29  C   UNL     1      45.147 -22.644   4.517  1.00  0.00     0.352 A 
HETATM   30  C   UNL     1      43.238 -19.528   1.931  1.00  0.00     0.017 A 
ENDBRANCH   5  22
TORSDOF 8
ENDMDL
MODEL 10
REMARK VINA RESULT:      -7.3      3.306     12.466
REMARK  8 active torsions:
REMARK  status: ('A' for Active; 'I' for Inactive)
REMARK    1  A    between atoms: C_5  and  O_6 
REMARK    2  A    between atoms: O_6  and  C_7 
REMARK    3  A    between atoms: C_7  and  C_8 
REMARK    4  A    between atoms: C_8  and  C_9 
REMARK    5  A    between atoms: C_9  and  C_10 
REMARK    6  A    between atoms: C_10  and  N_11 
REMARK       I    between atoms: N_11  and  C_12 
REMARK    7  A    between atoms: C_12  and  C_13 
REMARK    8  A    between atoms: C_17  and  C_18 
ROOT
HETATM    1  C   UNL     1      43.009 -14.735   5.238  1.00  0.00     0.120 A 
HETATM    2  N   UNL     1      43.515 -15.252   6.396  1.00  0.00    -0.272 N 
HETATM    3  H   UNL     1      43.613 -14.770   7.285  1.00  0.00     0.189 HD
HETATM    4  N   UNL     1      43.921 -16.527   6.301  1.00  0.00    -0.174 NA
HETATM    5  C   UNL     1      43.655 -16.874   5.032  1.00  0.00     0.089 A 
HETATM    6  C   UNL     1      43.088 -15.773   4.330  1.00  0.00     0.071 A 
ENDROOT
BRANCH   1   7
HETATM    7  C   UNL     1      42.538 -13.380   5.160  1.00  0.00     0.270 C 
HETATM    8  N   UNL     1      42.075 -12.851   6.336  1.00  0.00    -0.345 N 
HETATM    9  H   UNL     1      42.106 -13.390   7.188  1.00  0.00     0.163 HD
HETATM   10  O   UNL     1      42.551 -12.742   4.111  1.00  0.00    -0.266 OA
BRANCH   8  11
HETATM   11  C   UNL     1      41.606 -11.493   6.399  1.00  0.00     0.217 C 
BRANCH  11  12
HETATM   12  C   UNL     1      41.828 -10.951   7.802  1.00  0.00    -0.085 C 
BRANCH  12  13
HETATM   13  C   UNL     1      42.019 -10.484   9.004  1.00  0.00    -0.078 C 
BRANCH  13  14
HETATM   14  C   UNL     1      42.242  -9.942  10.406  1.00  0.00     0.269 C 
BRANCH  14  15
HETATM   15  O   UNL     1      41.315 -10.570  11.287  1.00  0.00    -0.338 OA
BRANCH  15  16
HETATM   16  C   UNL     1      40.393  -9.763  11.885  1.00  0.00     0.087 A 
HETATM   17  C   UNL     1      39.113  -9.789  11.341  1.00  0.00     0.152 A 
HETATM   18  N   UNL     1      38.066  -9.059  11.798  1.00  0.00    -0.270 NA
HETATM   19  C   UNL     1      38.309  -8.260  12.855  1.00  0.00     0.116 A 
HETATM   20  C   UNL     1      39.546  -8.160  13.472  1.00  0.00     0.022 A 
HETATM   21  C   UNL     1      40.603  -8.924  12.977  1.00  0.00     0.040 A 
ENDBRANCH  15  16
ENDBRANCH  14  15
ENDBRANCH  13  14
ENDBRANCH  12  13
ENDBRANCH  11  12
ENDBRANCH   8  11
ENDBRANCH   1   7
BRANCH   5  22
HETATM   22  C   UNL     1      43.946 -18.219   4.523  1.00  0.00    -0.003 A 
HETATM   23  C   UNL     1      43.465 -18.633   3.271  1.00  0.00     0.053 A 
HETATM   24  C   UNL     1      43.773 -19.909   2.842  1.00  0.00     0.106 A 
HETATM   25  C   UNL     1      44.529 -20.771   3.599  1.00  0.00     0.105 A 
HETATM   26  O   UNL     1      43.382 -20.461   1.661  1.00  0.00    -0.323 OA
HETATM   27  O   UNL     1      44.712 -21.973   2.991  1.00  0.00    -0.323 OA
HETATM   28  C   UNL     1      45.019 -20.407   4.833  1.00  0.00     0.040 A 
HETATM   29  C   UNL     1      43.980 -21.771   1.765  1.00  0.00     0.352 A 
HETATM   30  C   UNL     1      44.720 -19.119   5.295  1.00  0.00     0.017 A 
ENDBRANCH   5  22
TORSDOF 8
ENDMDL
