MODEL 1
REMARK VINA RESULT:      -9.1      0.000      0.000
REMARK  7 active torsions:
REMARK  status: ('A' for Active; 'I' for Inactive)
REMARK    1  A    between atoms: C_2  and  N_3 
REMARK    2  A    between atoms: C_5  and  C_6 
REMARK    3  A    between atoms: C_6  and  N_7 
REMARK       I    between atoms: N_7  and  C_8 
REMARK    4  A    between atoms: C_8  and  C_9 
REMARK    5  A    between atoms: N_15  and  C_16 
REMARK    6  A    between atoms: C_16  and  C_17 
REMARK       I    between atoms: C_17  and  N_18 
REMARK    7  A    between atoms: N_18  and  C_19 
ROOT
HETATM    1  C   UNL     1      40.801 -12.458   5.423  1.00  0.00     0.081 C 
HETATM    2  S   UNL     1      41.346 -11.440   4.154  1.00  0.00    -0.063 SA
HETATM    3  C   UNL     1      41.368 -12.712   3.035  1.00  0.00     0.116 C 
HETATM    4  C   UNL     1      40.945 -13.899   3.592  1.00  0.00     0.075 C 
HETATM    5  C   UNL     1      41.045 -15.089   2.754  1.00  0.00     0.262 C 
HETATM    6  O   UNL     1      40.678 -16.205   3.115  1.00  0.00    -0.267 OA
HETATM    7  N   UNL     1      41.642 -14.867   1.518  1.00  0.00    -0.299 N 
HETATM    8  C   UNL     1      41.941 -13.595   1.071  1.00  0.00     0.214 C 
HETATM    9  N   UNL     1      41.814 -12.515   1.770  1.00  0.00    -0.235 NA
HETATM   10  C   UNL     1      40.519 -13.749   4.972  1.00  0.00    -0.021 C 
HETATM   11  C   UNL     1      39.965 -14.861   5.809  1.00  0.00     0.051 C 
ENDROOT
BRANCH   1  12
HETATM   12  C   UNL     1      40.786 -11.874   6.756  1.00  0.00     0.259 C 
HETATM   13  N   UNL     1      41.988 -11.439   7.272  1.00  0.00    -0.354 N 
HETATM   14  H   UNL     1      42.827 -11.846   6.870  1.00  0.00     0.162 HD
HETATM   15  O   UNL     1      39.760 -11.665   7.409  1.00  0.00    -0.267 OA
BRANCH  13  16
HETATM   16  C   UNL     1      42.094 -10.842   8.600  1.00  0.00     0.156 C 
BRANCH  16  17
HETATM   17  C   UNL     1      43.499 -10.903   9.268  1.00  0.00     0.206 C 
HETATM   18  N   UNL     1      43.972 -12.341   9.495  1.00  0.00    -0.066 N 
HETATM   19  H   UNL     1      43.144 -12.957   9.344  1.00  0.00     0.280 HD
HETATM   20  C   UNL     1      44.336 -12.482  10.953  1.00  0.00     0.235 C 
HETATM   21  C   UNL     1      43.513 -11.413  11.635  1.00  0.00     0.030 C 
HETATM   22  C   UNL     1      43.558 -10.258  10.654  1.00  0.00     0.036 C 
BRANCH  18  23
HETATM   23  C   UNL     1      45.015 -12.819   8.528  1.00  0.00     0.231 C 
HETATM   24  C   UNL     1      46.226 -11.905   8.554  1.00  0.00     0.034 C 
ENDBRANCH  18  23
ENDBRANCH  16  17
ENDBRANCH  13  16
ENDBRANCH   1  12
BRANCH   7  25
HETATM   25  C   UNL     1      42.019 -16.018   0.722  1.00  0.00     0.236 C 
BRANCH  25  26
HETATM   26  C   UNL     1      43.130 -16.810   1.397  1.00  0.00     0.240 C 
HETATM   27  N   UNL     1      42.770 -18.119   1.662  1.00  0.00    -0.326 N 
HETATM   28  H   UNL     1      41.984 -18.493   1.132  1.00  0.00     0.169 HD
HETATM   29  O   UNL     1      44.224 -16.297   1.607  1.00  0.00    -0.271 OA
BRANCH  27  30
HETATM   30  C   UNL     1      43.414 -19.009   2.544  1.00  0.00     0.036 A 
HETATM   31  C   UNL     1      43.578 -18.761   3.907  1.00  0.00     0.053 A 
HETATM   32  C   UNL     1      44.148 -19.731   4.741  1.00  0.00     0.042 A 
HETATM   33 CL   UNL     1      44.287 -19.367   6.425  1.00  0.00    -0.084 Cl
HETATM   34  C   UNL     1      44.571 -20.965   4.225  1.00  0.00    -0.040 A 
HETATM   35  C   UNL     1      45.162 -22.033   5.102  1.00  0.00     0.050 C 
HETATM   36  C   UNL     1      44.419 -21.201   2.853  1.00  0.00     0.011 A 
HETATM   37  C   UNL     1      43.842 -20.234   2.022  1.00  0.00     0.030 A 
ENDBRANCH  27  30
ENDBRANCH  25  26
ENDBRANCH   7  25
TORSDOF 7
ENDMDL
MODEL 2
REMARK VINA RESULT:      -8.9      2.087      2.579
REMARK  7 active torsions:
REMARK  status: ('A' for Active; 'I' for Inactive)
REMARK    1  A    between atoms: C_2  and  N_3 
REMARK    2  A    between atoms: C_5  and  C_6 
REMARK    3  A    between atoms: C_6  and  N_7 
REMARK       I    between atoms: N_7  and  C_8 
REMARK    4  A    between atoms: C_8  and  C_9 
REMARK    5  A    between atoms: N_15  and  C_16 
REMARK    6  A    between atoms: C_16  and  C_17 
REMARK       I    between atoms: C_17  and  N_18 
REMARK    7  A    between atoms: N_18  and  C_19 
ROOT
HETATM    1  C   UNL     1      40.613 -11.731   5.953  1.00  0.00     0.081 C 
HETATM    2  S   UNL     1      42.293 -11.997   6.183  1.00  0.00    -0.063 SA
HETATM    3  C   UNL     1      42.438 -12.850   4.725  1.00  0.00     0.116 C 
HETATM    4  C   UNL     1      41.242 -12.920   4.045  1.00  0.00     0.075 C 
HETATM    5  C   UNL     1      41.221 -13.741   2.839  1.00  0.00     0.262 C 
HETATM    6  O   UNL     1      40.230 -13.869   2.123  1.00  0.00    -0.267 OA
HETATM    7  N   UNL     1      42.411 -14.416   2.588  1.00  0.00    -0.299 N 
HETATM    8  C   UNL     1      43.554 -14.175   3.324  1.00  0.00     0.214 C 
HETATM    9  N   UNL     1      43.618 -13.413   4.367  1.00  0.00    -0.235 NA
HETATM   10  C   UNL     1      40.178 -12.188   4.707  1.00  0.00    -0.021 C 
HETATM   11  C   UNL     1      38.786 -12.051   4.168  1.00  0.00     0.051 C 
ENDROOT
BRANCH   1  12
HETATM   12  C   UNL     1      39.891 -11.159   7.080  1.00  0.00     0.259 C 
HETATM   13  N   UNL     1      40.235 -11.596   8.342  1.00  0.00    -0.354 N 
HETATM   14  H   UNL     1      40.697 -12.498   8.398  1.00  0.00     0.162 HD
HETATM   15  O   UNL     1      39.061 -10.252   6.982  1.00  0.00    -0.267 OA
BRANCH  13  16
HETATM   16  C   UNL     1      39.576 -11.097   9.544  1.00  0.00     0.156 C 
BRANCH  16  17
HETATM   17  C   UNL     1      40.504 -10.451  10.615  1.00  0.00     0.206 C 
HETATM   18  N   UNL     1      41.696 -11.344  10.965  1.00  0.00    -0.066 N 
HETATM   19  H   UNL     1      41.497 -12.284  10.558  1.00  0.00     0.280 HD
HETATM   20  C   UNL     1      41.708 -11.532  12.462  1.00  0.00     0.235 C 
HETATM   21  C   UNL     1      40.268 -11.315  12.864  1.00  0.00     0.030 C 
HETATM   22  C   UNL     1      39.817 -10.188  11.957  1.00  0.00     0.036 C 
BRANCH  18  23
HETATM   23  C   UNL     1      43.002 -10.912  10.365  1.00  0.00     0.231 C 
HETATM   24  C   UNL     1      43.873 -10.241  11.411  1.00  0.00     0.034 C 
ENDBRANCH  18  23
ENDBRANCH  16  17
ENDBRANCH  13  16
ENDBRANCH   1  12
BRANCH   7  25
HETATM   25  C   UNL     1      42.414 -15.447   1.570  1.00  0.00     0.236 C 
BRANCH  25  26
HETATM   26  C   UNL     1      42.282 -16.830   2.192  1.00  0.00     0.240 C 
HETATM   27  N   UNL     1      43.417 -17.219   2.879  1.00  0.00    -0.326 N 
HETATM   28  H   UNL     1      44.057 -16.477   3.161  1.00  0.00     0.169 HD
HETATM   29  O   UNL     1      41.232 -17.459   2.101  1.00  0.00    -0.271 OA
BRANCH  27  30
HETATM   30  C   UNL     1      43.752 -18.526   3.286  1.00  0.00     0.036 A 
HETATM   31  C   UNL     1      43.929 -19.588   2.398  1.00  0.00     0.053 A 
HETATM   32  C   UNL     1      44.350 -20.839   2.864  1.00  0.00     0.042 A 
HETATM   33 CL   UNL     1      44.582 -22.097   1.702  1.00  0.00    -0.084 Cl
HETATM   34  C   UNL     1      44.595 -21.054   4.229  1.00  0.00    -0.040 A 
HETATM   35  C   UNL     1      45.072 -22.379   4.752  1.00  0.00     0.050 C 
HETATM   36  C   UNL     1      44.399 -19.988   5.116  1.00  0.00     0.011 A 
HETATM   37  C   UNL     1      43.986 -18.736   4.648  1.00  0.00     0.030 A 
ENDBRANCH  27  30
ENDBRANCH  25  26
ENDBRANCH   7  25
TORSDOF 7
ENDMDL
MODEL 3
REMARK VINA RESULT:      -8.8      3.458      7.707
REMARK  7 active torsions:
REMARK  status: ('A' for Active; 'I' for Inactive)
REMARK    1  A    between atoms: C_2  and  N_3 
REMARK    2  A    between atoms: C_5  and  C_6 
REMARK    3  A    between atoms: C_6  and  N_7 
REMARK       I    between atoms: N_7  and  C_8 
REMARK    4  A    between atoms: C_8  and  C_9 
REMARK    5  A    between atoms: N_15  and  C_16 
REMARK    6  A    between atoms: C_16  and  C_17 
REMARK       I    between atoms: C_17  and  N_18 
REMARK    7  A    between atoms: N_18  and  C_19 
ROOT
HETATM    1  C   UNL     1      39.793 -12.814   1.393  1.00  0.00     0.081 C 
HETATM    2  S   UNL     1      38.869 -12.502   2.805  1.00  0.00    -0.063 SA
HETATM    3  C   UNL     1      40.068 -13.131   3.825  1.00  0.00     0.116 C 
HETATM    4  C   UNL     1      41.175 -13.554   3.123  1.00  0.00     0.075 C 
HETATM    5  C   UNL     1      42.217 -14.230   3.887  1.00  0.00     0.262 C 
HETATM    6  O   UNL     1      43.268 -14.633   3.393  1.00  0.00    -0.267 OA
HETATM    7  N   UNL     1      41.902 -14.431   5.227  1.00  0.00    -0.299 N 
HETATM    8  C   UNL     1      40.779 -13.872   5.803  1.00  0.00     0.214 C 
HETATM    9  N   UNL     1      39.863 -13.221   5.162  1.00  0.00    -0.235 NA
HETATM   10  C   UNL     1      41.070 -13.290   1.699  1.00  0.00    -0.021 C 
HETATM   11  C   UNL     1      42.145 -13.598   0.702  1.00  0.00     0.051 C 
ENDROOT
BRANCH   1  12
HETATM   12  C   UNL     1      39.112 -12.620   0.122  1.00  0.00     0.259 C 
HETATM   13  N   UNL     1      38.732 -13.749  -0.573  1.00  0.00    -0.354 N 
HETATM   14  H   UNL     1      39.230 -14.605  -0.353  1.00  0.00     0.162 HD
HETATM   15  O   UNL     1      38.778 -11.519  -0.324  1.00  0.00    -0.267 OA
BRANCH  13  16
HETATM   16  C   UNL     1      38.048 -13.676  -1.860  1.00  0.00     0.156 C 
BRANCH  16  17
HETATM   17  C   UNL     1      38.946 -13.825  -3.123  1.00  0.00     0.206 C 
HETATM   18  N   UNL     1      40.192 -14.671  -2.852  1.00  0.00    -0.066 N 
HETATM   19  H   UNL     1      40.264 -14.777  -1.817  1.00  0.00     0.280 HD
HETATM   20  C   UNL     1      41.397 -13.865  -3.273  1.00  0.00     0.235 C 
HETATM   21  C   UNL     1      40.927 -12.433  -3.170  1.00  0.00     0.030 C 
HETATM   22  C   UNL     1      39.493 -12.500  -3.658  1.00  0.00     0.036 C 
BRANCH  18  23
HETATM   23  C   UNL     1      40.135 -16.067  -3.401  1.00  0.00     0.231 C 
HETATM   24  C   UNL     1      38.895 -16.254  -4.255  1.00  0.00     0.034 C 
ENDBRANCH  18  23
ENDBRANCH  16  17
ENDBRANCH  13  16
ENDBRANCH   1  12
BRANCH   7  25
HETATM   25  C   UNL     1      42.749 -15.311   6.007  1.00  0.00     0.236 C 
BRANCH  25  26
HETATM   26  C   UNL     1      42.631 -16.751   5.526  1.00  0.00     0.240 C 
HETATM   27  N   UNL     1      43.843 -17.285   5.130  1.00  0.00    -0.326 N 
HETATM   28  H   UNL     1      44.682 -16.820   5.476  1.00  0.00     0.169 HD
HETATM   29  O   UNL     1      41.552 -17.335   5.562  1.00  0.00    -0.271 OA
BRANCH  27  30
HETATM   30  C   UNL     1      44.042 -18.443   4.351  1.00  0.00     0.036 A 
HETATM   31  C   UNL     1      44.468 -19.662   4.877  1.00  0.00     0.053 A 
HETATM   32  C   UNL     1      44.557 -20.795   4.059  1.00  0.00     0.042 A 
HETATM   33 CL   UNL     1      45.059 -22.280   4.789  1.00  0.00    -0.084 Cl
HETATM   34  C   UNL     1      44.228 -20.727   2.698  1.00  0.00    -0.040 A 
HETATM   35  C   UNL     1      44.290 -21.934   1.803  1.00  0.00     0.050 C 
HETATM   36  C   UNL     1      43.816 -19.496   2.172  1.00  0.00     0.011 A 
HETATM   37  C   UNL     1      43.721 -18.366   2.992  1.00  0.00     0.030 A 
ENDBRANCH  27  30
ENDBRANCH  25  26
ENDBRANCH   7  25
TORSDOF 7
ENDMDL
MODEL 4
REMARK VINA RESULT:      -8.7      1.151      1.416
REMARK  7 active torsions:
REMARK  status: ('A' for Active; 'I' for Inactive)
REMARK    1  A    between atoms: C_2  and  N_3 
REMARK    2  A    between atoms: C_5  and  C_6 
REMARK    3  A    between atoms: C_6  and  N_7 
REMARK       I    between atoms: N_7  and  C_8 
REMARK    4  A    between atoms: C_8  and  C_9 
REMARK    5  A    between atoms: N_15  and  C_16 
REMARK    6  A    between atoms: C_16  and  C_17 
REMARK       I    between atoms: C_17  and  N_18 
REMARK    7  A    between atoms: N_18  and  C_19 
ROOT
HETATM    1  C   UNL     1      40.464 -11.832   5.675  1.00  0.00     0.081 C 
HETATM    2  S   UNL     1      41.016 -10.784   4.434  1.00  0.00    -0.063 SA
HETATM    3  C   UNL     1      41.036 -12.028   3.283  1.00  0.00     0.116 C 
HETATM    4  C   UNL     1      40.608 -13.227   3.809  1.00  0.00     0.075 C 
HETATM    5  C   UNL     1      40.706 -14.396   2.942  1.00  0.00     0.262 C 
HETATM    6  O   UNL     1      40.335 -15.520   3.273  1.00  0.00    -0.267 OA
HETATM    7  N   UNL     1      41.307 -14.145   1.713  1.00  0.00    -0.299 N 
HETATM    8  C   UNL     1      41.611 -12.863   1.299  1.00  0.00     0.214 C 
HETATM    9  N   UNL     1      41.487 -11.800   2.025  1.00  0.00    -0.235 NA
HETATM   10  C   UNL     1      40.179 -13.111   5.191  1.00  0.00    -0.021 C 
HETATM   11  C   UNL     1      39.620 -14.242   5.999  1.00  0.00     0.051 C 
ENDROOT
BRANCH   1  12
HETATM   12  C   UNL     1      40.448 -11.283   7.023  1.00  0.00     0.259 C 
HETATM   13  N   UNL     1      41.651 -11.211   7.694  1.00  0.00    -0.354 N 
HETATM   14  H   UNL     1      42.385 -11.834   7.374  1.00  0.00     0.162 HD
HETATM   15  O   UNL     1      39.449 -10.799   7.562  1.00  0.00    -0.267 OA
BRANCH  13  16
HETATM   16  C   UNL     1      41.754 -10.683   9.051  1.00  0.00     0.156 C 
BRANCH  16  17
HETATM   17  C   UNL     1      43.179 -10.683   9.678  1.00  0.00     0.206 C 
HETATM   18  N   UNL     1      43.729 -12.098   9.869  1.00  0.00    -0.066 N 
HETATM   19  H   UNL     1      42.929 -12.752   9.731  1.00  0.00     0.280 HD
HETATM   20  C   UNL     1      44.140 -12.242  11.314  1.00  0.00     0.235 C 
HETATM   21  C   UNL     1      43.284 -11.227  12.036  1.00  0.00     0.030 C 
HETATM   22  C   UNL     1      43.244 -10.057  11.073  1.00  0.00     0.036 C 
BRANCH  18  23
HETATM   23  C   UNL     1      44.767 -12.508   8.866  1.00  0.00     0.231 C 
HETATM   24  C   UNL     1      45.971 -11.587   8.937  1.00  0.00     0.034 C 
ENDBRANCH  18  23
ENDBRANCH  16  17
ENDBRANCH  13  16
ENDBRANCH   1  12
BRANCH   7  25
HETATM   25  C   UNL     1      41.682 -15.276   0.888  1.00  0.00     0.236 C 
BRANCH  25  26
HETATM   26  C   UNL     1      42.744 -16.125   1.575  1.00  0.00     0.240 C 
HETATM   27  N   UNL     1      42.463 -17.478   1.525  1.00  0.00    -0.326 N 
HETATM   28  H   UNL     1      41.800 -17.781   0.812  1.00  0.00     0.169 HD
HETATM   29  O   UNL     1      43.746 -15.604   2.054  1.00  0.00    -0.271 OA
BRANCH  27  30
HETATM   30  C   UNL     1      43.043 -18.490   2.316  1.00  0.00     0.036 A 
HETATM   31  C   UNL     1      43.479 -19.712   1.804  1.00  0.00     0.053 A 
HETATM   32  C   UNL     1      44.129 -20.636   2.632  1.00  0.00     0.042 A 
HETATM   33 CL   UNL     1      44.673 -22.115   1.920  1.00  0.00    -0.084 Cl
HETATM   34  C   UNL     1      44.349 -20.357   3.989  1.00  0.00    -0.040 A 
HETATM   35  C   UNL     1      45.067 -21.319   4.893  1.00  0.00     0.050 C 
HETATM   36  C   UNL     1      43.893 -19.134   4.499  1.00  0.00     0.011 A 
HETATM   37  C   UNL     1      43.251 -18.209   3.670  1.00  0.00     0.030 A 
ENDBRANCH  27  30
ENDBRANCH  25  26
ENDBRANCH   7  25
TORSDOF 7
ENDMDL
MODEL 5
REMARK VINA RESULT:      -8.6      1.849      2.333
REMARK  7 active torsions:
REMARK  status: ('A' for Active; 'I' for Inactive)
REMARK    1  A    between atoms: C_2  and  N_3 
REMARK    2  A    between atoms: C_5  and  C_6 
REMARK    3  A    between atoms: C_6  and  N_7 
REMARK       I    between atoms: N_7  and  C_8 
REMARK    4  A    between atoms: C_8  and  C_9 
REMARK    5  A    between atoms: N_15  and  C_16 
REMARK    6  A    between atoms: C_16  and  C_17 
REMARK       I    between atoms: C_17  and  N_18 
REMARK    7  A    between atoms: N_18  and  C_19 
ROOT
HETATM    1  C   UNL     1      41.500 -11.772   6.498  1.00  0.00     0.081 C 
HETATM    2  S   UNL     1      40.017 -11.823   5.636  1.00  0.00    -0.063 SA
HETATM    3  C   UNL     1      40.548 -13.086   4.639  1.00  0.00     0.116 C 
HETATM    4  C   UNL     1      41.824 -13.496   4.959  1.00  0.00     0.075 C 
HETATM    5  C   UNL     1      42.432 -14.492   4.082  1.00  0.00     0.262 C 
HETATM    6  O   UNL     1      43.551 -14.964   4.266  1.00  0.00    -0.267 OA
HETATM    7  N   UNL     1      41.654 -14.831   2.980  1.00  0.00    -0.299 N 
HETATM    8  C   UNL     1      40.353 -14.390   2.843  1.00  0.00     0.214 C 
HETATM    9  N   UNL     1      39.768 -13.548   3.631  1.00  0.00    -0.235 NA
HETATM   10  C   UNL     1      42.365 -12.797   6.110  1.00  0.00    -0.021 C 
HETATM   11  C   UNL     1      43.710 -13.074   6.710  1.00  0.00     0.051 C 
ENDROOT
BRANCH   1  12
HETATM   12  C   UNL     1      41.670 -10.661   7.422  1.00  0.00     0.259 C 
HETATM   13  N   UNL     1      41.609 -10.941   8.771  1.00  0.00    -0.354 N 
HETATM   14  H   UNL     1      41.125 -11.793   9.035  1.00  0.00     0.162 HD
HETATM   15  O   UNL     1      41.951  -9.510   7.077  1.00  0.00    -0.267 OA
BRANCH  13  16
HETATM   16  C   UNL     1      41.762  -9.906   9.788  1.00  0.00     0.156 C 
BRANCH  16  17
HETATM   17  C   UNL     1      42.918 -10.116  10.811  1.00  0.00     0.206 C 
HETATM   18  N   UNL     1      43.167 -11.596  11.109  1.00  0.00    -0.066 N 
HETATM   19  H   UNL     1      42.356 -12.122  10.718  1.00  0.00     0.280 HD
HETATM   20  C   UNL     1      43.102 -11.782  12.605  1.00  0.00     0.235 C 
HETATM   21  C   UNL     1      42.233 -10.638  13.074  1.00  0.00     0.030 C 
HETATM   22  C   UNL     1      42.657  -9.488  12.181  1.00  0.00     0.036 C 
BRANCH  18  23
HETATM   23  C   UNL     1      44.383 -12.174  10.446  1.00  0.00     0.231 C 
HETATM   24  C   UNL     1      45.273 -11.069   9.907  1.00  0.00     0.034 C 
ENDBRANCH  18  23
ENDBRANCH  16  17
ENDBRANCH  13  16
ENDBRANCH   1  12
BRANCH   7  25
HETATM   25  C   UNL     1      42.266 -15.610   1.922  1.00  0.00     0.236 C 
BRANCH  25  26
HETATM   26  C   UNL     1      42.239 -17.096   2.251  1.00  0.00     0.240 C 
HETATM   27  N   UNL     1      43.117 -17.437   3.263  1.00  0.00    -0.326 N 
HETATM   28  H   UNL     1      43.434 -16.679   3.868  1.00  0.00     0.169 HD
HETATM   29  O   UNL     1      41.457 -17.848   1.679  1.00  0.00    -0.271 OA
BRANCH  27  30
HETATM   30  C   UNL     1      43.572 -18.731   3.586  1.00  0.00     0.036 A 
HETATM   31  C   UNL     1      43.816 -19.722   2.635  1.00  0.00     0.053 A 
HETATM   32  C   UNL     1      44.354 -20.956   3.019  1.00  0.00     0.042 A 
HETATM   33 CL   UNL     1      44.661 -22.123   1.780  1.00  0.00    -0.084 Cl
HETATM   34  C   UNL     1      44.650 -21.226   4.363  1.00  0.00    -0.040 A 
HETATM   35  C   UNL     1      45.252 -22.532   4.798  1.00  0.00     0.050 C 
HETATM   36  C   UNL     1      44.387 -20.232   5.315  1.00  0.00     0.011 A 
HETATM   37  C   UNL     1      43.858 -18.996   4.929  1.00  0.00     0.030 A 
ENDBRANCH  27  30
ENDBRANCH  25  26
ENDBRANCH   7  25
TORSDOF 7
ENDMDL
MODEL 6
REMARK VINA RESULT:      -8.2      5.258      7.316
REMARK  7 active torsions:
REMARK  status: ('A' for Active; 'I' for Inactive)
REMARK    1  A    between atoms: C_2  and  N_3 
REMARK    2  A    between atoms: C_5  and  C_6 
REMARK    3  A    between atoms: C_6  and  N_7 
REMARK       I    between atoms: N_7  and  C_8 
REMARK    4  A    between atoms: C_8  and  C_9 
REMARK    5  A    between atoms: N_15  and  C_16 
REMARK    6  A    between atoms: C_16  and  C_17 
REMARK       I    between atoms: C_17  and  N_18 
REMARK    7  A    between atoms: N_18  and  C_19 
ROOT
HETATM    1  C   UNL     1      37.429 -11.016   1.999  1.00  0.00     0.081 C 
HETATM    2  S   UNL     1      37.153 -11.989   0.613  1.00  0.00    -0.063 SA
HETATM    3  C   UNL     1      38.465 -13.003   0.965  1.00  0.00     0.116 C 
HETATM    4  C   UNL     1      39.102 -12.639   2.131  1.00  0.00     0.075 C 
HETATM    5  C   UNL     1      40.324 -13.364   2.464  1.00  0.00     0.262 C 
HETATM    6  O   UNL     1      40.976 -13.161   3.486  1.00  0.00    -0.267 OA
HETATM    7  N   UNL     1      40.725 -14.279   1.496  1.00  0.00    -0.299 N 
HETATM    8  C   UNL     1      39.929 -14.590   0.412  1.00  0.00     0.214 C 
HETATM    9  N   UNL     1      38.815 -14.002   0.118  1.00  0.00    -0.235 NA
HETATM   10  C   UNL     1      38.451 -11.529   2.802  1.00  0.00    -0.021 C 
HETATM   11  C   UNL     1      38.896 -10.957   4.114  1.00  0.00     0.051 C 
ENDROOT
BRANCH   1  12
HETATM   12  C   UNL     1      36.643  -9.796   2.097  1.00  0.00     0.259 C 
HETATM   13  N   UNL     1      35.305  -9.926   2.405  1.00  0.00    -0.354 N 
HETATM   14  H   UNL     1      34.881 -10.827   2.209  1.00  0.00     0.162 HD
HETATM   15  O   UNL     1      37.114  -8.659   2.011  1.00  0.00    -0.267 OA
BRANCH  13  16
HETATM   16  C   UNL     1      34.419  -8.773   2.525  1.00  0.00     0.156 C 
BRANCH  16  17
HETATM   17  C   UNL     1      32.989  -9.062   3.070  1.00  0.00     0.206 C 
HETATM   18  N   UNL     1      32.971 -10.226   4.063  1.00  0.00    -0.066 N 
HETATM   19  H   UNL     1      33.895 -10.702   3.984  1.00  0.00     0.280 HD
HETATM   20  C   UNL     1      31.945 -11.224   3.584  1.00  0.00     0.235 C 
HETATM   21  C   UNL     1      31.863 -10.972   2.096  1.00  0.00     0.030 C 
HETATM   22  C   UNL     1      31.981  -9.464   1.991  1.00  0.00     0.036 C 
BRANCH  18  23
HETATM   23  C   UNL     1      32.844  -9.822   5.502  1.00  0.00     0.231 C 
HETATM   24  C   UNL     1      31.957  -8.598   5.637  1.00  0.00     0.034 C 
ENDBRANCH  18  23
ENDBRANCH  16  17
ENDBRANCH  13  16
ENDBRANCH   1  12
BRANCH   7  25
HETATM   25  C   UNL     1      42.048 -14.860   1.608  1.00  0.00     0.236 C 
BRANCH  25  26
HETATM   26  C   UNL     1      42.005 -16.175   2.376  1.00  0.00     0.240 C 
HETATM   27  N   UNL     1      43.254 -16.591   2.796  1.00  0.00    -0.326 N 
HETATM   28  H   UNL     1      43.983 -15.880   2.837  1.00  0.00     0.169 HD
HETATM   29  O   UNL     1      40.934 -16.727   2.609  1.00  0.00    -0.271 OA
BRANCH  27  30
HETATM   30  C   UNL     1      43.611 -17.883   3.232  1.00  0.00     0.036 A 
HETATM   31  C   UNL     1      43.631 -19.001   2.398  1.00  0.00     0.053 A 
HETATM   32  C   UNL     1      44.083 -20.236   2.878  1.00  0.00     0.042 A 
HETATM   33 CL   UNL     1      44.111 -21.568   1.776  1.00  0.00    -0.084 Cl
HETATM   34  C   UNL     1      44.517 -20.378   4.203  1.00  0.00    -0.040 A 
HETATM   35  C   UNL     1      45.031 -21.686   4.736  1.00  0.00     0.050 C 
HETATM   36  C   UNL     1      44.479 -19.255   5.041  1.00  0.00     0.011 A 
HETATM   37  C   UNL     1      44.035 -18.020   4.558  1.00  0.00     0.030 A 
ENDBRANCH  27  30
ENDBRANCH  25  26
ENDBRANCH   7  25
TORSDOF 7
ENDMDL
MODEL 7
REMARK VINA RESULT:      -8.2      2.937      9.464
REMARK  7 active torsions:
REMARK  status: ('A' for Active; 'I' for Inactive)
REMARK    1  A    between atoms: C_2  and  N_3 
REMARK    2  A    between atoms: C_5  and  C_6 
REMARK    3  A    between atoms: C_6  and  N_7 
REMARK       I    between atoms: N_7  and  C_8 
REMARK    4  A    between atoms: C_8  and  C_9 
REMARK    5  A    between atoms: N_15  and  C_16 
REMARK    6  A    between atoms: C_16  and  C_17 
REMARK       I    between atoms: C_17  and  N_18 
REMARK    7  A    between atoms: N_18  and  C_19 
ROOT
HETATM    1  C   UNL     1      42.376 -15.285   2.870  1.00  0.00     0.081 C 
HETATM    2  S   UNL     1      42.187 -13.943   1.818  1.00  0.00    -0.063 SA
HETATM    3  C   UNL     1      41.799 -12.896   3.093  1.00  0.00     0.116 C 
HETATM    4  C   UNL     1      41.832 -13.534   4.314  1.00  0.00     0.075 C 
HETATM    5  C   UNL     1      41.389 -12.760   5.469  1.00  0.00     0.262 C 
HETATM    6  O   UNL     1      41.393 -13.196   6.619  1.00  0.00    -0.267 OA
HETATM    7  N   UNL     1      40.909 -11.493   5.157  1.00  0.00    -0.299 N 
HETATM    8  C   UNL     1      41.018 -10.965   3.886  1.00  0.00     0.214 C 
HETATM    9  N   UNL     1      41.455 -11.607   2.851  1.00  0.00    -0.235 NA
HETATM   10  C   UNL     1      42.260 -14.917   4.212  1.00  0.00    -0.021 C 
HETATM   11  C   UNL     1      42.435 -15.834   5.384  1.00  0.00     0.051 C 
ENDROOT
BRANCH   1  12
HETATM   12  C   UNL     1      42.545 -16.583   2.234  1.00  0.00     0.259 C 
HETATM   13  N   UNL     1      43.772 -17.199   2.365  1.00  0.00    -0.354 N 
HETATM   14  H   UNL     1      44.560 -16.597   2.581  1.00  0.00     0.162 HD
HETATM   15  O   UNL     1      41.639 -17.200   1.667  1.00  0.00    -0.267 OA
BRANCH  13  16
HETATM   16  C   UNL     1      44.056 -18.500   1.767  1.00  0.00     0.156 C 
BRANCH  16  17
HETATM   17  C   UNL     1      43.594 -19.744   2.581  1.00  0.00     0.206 C 
HETATM   18  N   UNL     1      44.758 -20.437   3.293  1.00  0.00    -0.066 N 
HETATM   19  H   UNL     1      45.635 -20.039   2.893  1.00  0.00     0.280 HD
HETATM   20  C   UNL     1      44.741 -21.892   2.894  1.00  0.00     0.235 C 
HETATM   21  C   UNL     1      44.039 -21.892   1.556  1.00  0.00     0.030 C 
HETATM   22  C   UNL     1      42.958 -20.844   1.729  1.00  0.00     0.036 C 
BRANCH  18  23
HETATM   23  C   UNL     1      44.833 -20.181   4.770  1.00  0.00     0.231 C 
HETATM   24  C   UNL     1      44.617 -21.467   5.546  1.00  0.00     0.034 C 
ENDBRANCH  18  23
ENDBRANCH  16  17
ENDBRANCH  13  16
ENDBRANCH   1  12
BRANCH   7  25
HETATM   25  C   UNL     1      40.214 -10.749   6.188  1.00  0.00     0.236 C 
BRANCH  25  26
HETATM   26  C   UNL     1      41.195 -10.162   7.194  1.00  0.00     0.240 C 
HETATM   27  N   UNL     1      41.215 -10.855   8.390  1.00  0.00    -0.326 N 
HETATM   28  H   UNL     1      40.848 -11.806   8.373  1.00  0.00     0.169 HD
HETATM   29  O   UNL     1      41.902  -9.206   6.892  1.00  0.00    -0.271 OA
BRANCH  27  30
HETATM   30  C   UNL     1      41.748 -10.408   9.616  1.00  0.00     0.036 A 
HETATM   31  C   UNL     1      41.014  -9.684  10.556  1.00  0.00     0.053 A 
HETATM   32  C   UNL     1      41.580  -9.351  11.793  1.00  0.00     0.042 A 
HETATM   33 CL   UNL     1      40.599  -8.483  12.921  1.00  0.00    -0.084 Cl
HETATM   34  C   UNL     1      42.893  -9.729  12.109  1.00  0.00    -0.040 A 
HETATM   35  C   UNL     1      43.515  -9.406  13.439  1.00  0.00     0.050 C 
HETATM   36  C   UNL     1      43.629 -10.441  11.154  1.00  0.00     0.011 A 
HETATM   37  C   UNL     1      43.060 -10.781   9.922  1.00  0.00     0.030 A 
ENDBRANCH  27  30
ENDBRANCH  25  26
ENDBRANCH   7  25
TORSDOF 7
ENDMDL
MODEL 8
REMARK VINA RESULT:      -8.0      3.707      7.134
REMARK  7 active torsions:
REMARK  status: ('A' for Active; 'I' for Inactive)
REMARK    1  A    between atoms: C_2  and  N_3 
REMARK    2  A    between atoms: C_5  and  C_6 
REMARK    3  A    between atoms: C_6  and  N_7 
REMARK       I    between atoms: N_7  and  C_8 
REMARK    4  A    between atoms: C_8  and  C_9 
REMARK    5  A    between atoms: N_15  and  C_16 
REMARK    6  A    between atoms: C_16  and  C_17 
REMARK       I    between atoms: C_17  and  N_18 
REMARK    7  A    between atoms: N_18  and  C_19 
ROOT
HETATM    1  C   UNL     1      41.481 -14.038   2.999  1.00  0.00     0.081 C 
HETATM    2  S   UNL     1      40.042 -14.708   3.652  1.00  0.00    -0.063 SA
HETATM    3  C   UNL     1      40.849 -15.320   5.010  1.00  0.00     0.116 C 
HETATM    4  C   UNL     1      42.191 -15.008   5.000  1.00  0.00     0.075 C 
HETATM    5  C   UNL     1      43.008 -15.595   6.057  1.00  0.00     0.262 C 
HETATM    6  O   UNL     1      44.212 -15.378   6.182  1.00  0.00    -0.267 OA
HETATM    7  N   UNL     1      42.320 -16.468   6.891  1.00  0.00    -0.299 N 
HETATM    8  C   UNL     1      40.948 -16.614   6.822  1.00  0.00     0.214 C 
HETATM    9  N   UNL     1      40.189 -16.067   5.929  1.00  0.00    -0.235 NA
HETATM   10  C   UNL     1      42.563 -14.175   3.871  1.00  0.00    -0.021 C 
HETATM   11  C   UNL     1      43.944 -13.643   3.634  1.00  0.00     0.051 C 
ENDROOT
BRANCH   1  12
HETATM   12  C   UNL     1      41.391 -13.512   1.645  1.00  0.00     0.259 C 
HETATM   13  N   UNL     1      40.931 -12.220   1.496  1.00  0.00    -0.354 N 
HETATM   14  H   UNL     1      40.376 -11.846   2.258  1.00  0.00     0.162 HD
HETATM   15  O   UNL     1      41.780 -14.113   0.641  1.00  0.00    -0.267 OA
BRANCH  13  16
HETATM   16  C   UNL     1      40.795 -11.590   0.186  1.00  0.00     0.156 C 
BRANCH  16  17
HETATM   17  C   UNL     1      39.419 -11.770  -0.520  1.00  0.00     0.206 C 
HETATM   18  N   UNL     1      39.106 -13.238  -0.818  1.00  0.00    -0.066 N 
HETATM   19  H   UNL     1      39.992 -13.770  -0.670  1.00  0.00     0.280 HD
HETATM   20  C   UNL     1      38.791 -13.354  -2.289  1.00  0.00     0.235 C 
HETATM   21  C   UNL     1      39.510 -12.176  -2.906  1.00  0.00     0.030 C 
HETATM   22  C   UNL     1      39.322 -11.076  -1.880  1.00  0.00     0.036 C 
BRANCH  18  23
HETATM   23  C   UNL     1      38.099 -13.865   0.102  1.00  0.00     0.231 C 
HETATM   24  C   UNL     1      37.321 -12.797   0.848  1.00  0.00     0.034 C 
ENDBRANCH  18  23
ENDBRANCH  16  17
ENDBRANCH  13  16
ENDBRANCH   1  12
BRANCH   7  25
HETATM   25  C   UNL     1      43.087 -17.293   7.804  1.00  0.00     0.236 C 
BRANCH  25  26
HETATM   26  C   UNL     1      43.559 -18.570   7.123  1.00  0.00     0.240 C 
HETATM   27  N   UNL     1      44.031 -18.350   5.842  1.00  0.00    -0.326 N 
HETATM   28  H   UNL     1      44.303 -17.395   5.612  1.00  0.00     0.169 HD
HETATM   29  O   UNL     1      43.546 -19.639   7.723  1.00  0.00    -0.271 OA
BRANCH  27  30
HETATM   30  C   UNL     1      44.235 -19.320   4.840  1.00  0.00     0.036 A 
HETATM   31  C   UNL     1      44.588 -20.643   5.108  1.00  0.00     0.053 A 
HETATM   32  C   UNL     1      44.685 -21.575   4.068  1.00  0.00     0.042 A 
HETATM   33 CL   UNL     1      45.093 -23.204   4.480  1.00  0.00    -0.084 Cl
HETATM   34  C   UNL     1      44.439 -21.200   2.739  1.00  0.00    -0.040 A 
HETATM   35  C   UNL     1      44.512 -22.186   1.608  1.00  0.00     0.050 C 
HETATM   36  C   UNL     1      44.102 -19.866   2.475  1.00  0.00     0.011 A 
HETATM   37  C   UNL     1      43.997 -18.937   3.516  1.00  0.00     0.030 A 
ENDBRANCH  27  30
ENDBRANCH  25  26
ENDBRANCH   7  25
TORSDOF 7
ENDMDL
MODEL 9
REMARK VINA RESULT:      -7.9      2.077      2.966
REMARK  7 active torsions:
REMARK  status: ('A' for Active; 'I' for Inactive)
REMARK    1  A    between atoms: C_2  and  N_3 
REMARK    2  A    between atoms: C_5  and  C_6 
REMARK    3  A    between atoms: C_6  and  N_7 
REMARK       I    between atoms: N_7  and  C_8 
REMARK    4  A    between atoms: C_8  and  C_9 
REMARK    5  A    between atoms: N_15  and  C_16 
REMARK    6  A    between atoms: C_16  and  C_17 
REMARK       I    between atoms: C_17  and  N_18 
REMARK    7  A    between atoms: N_18  and  C_19 
ROOT
HETATM    1  C   UNL     1      41.054 -10.942   6.149  1.00  0.00     0.081 C 
HETATM    2  S   UNL     1      41.349 -10.009   4.739  1.00  0.00    -0.063 SA
HETATM    3  C   UNL     1      40.800 -11.240   3.712  1.00  0.00     0.116 C 
HETATM    4  C   UNL     1      40.369 -12.344   4.413  1.00  0.00     0.075 C 
HETATM    5  C   UNL     1      39.994 -13.515   3.626  1.00  0.00     0.262 C 
HETATM    6  O   UNL     1      39.567 -14.556   4.121  1.00  0.00    -0.267 OA
HETATM    7  N   UNL     1      40.208 -13.374   2.259  1.00  0.00    -0.299 N 
HETATM    8  C   UNL     1      40.572 -12.166   1.699  1.00  0.00     0.214 C 
HETATM    9  N   UNL     1      40.860 -11.096   2.366  1.00  0.00    -0.235 NA
HETATM   10  C   UNL     1      40.425 -12.152   5.851  1.00  0.00    -0.021 C 
HETATM   11  C   UNL     1      39.971 -13.167   6.856  1.00  0.00     0.051 C 
ENDROOT
BRANCH   1  12
HETATM   12  C   UNL     1      41.555 -10.395   7.401  1.00  0.00     0.259 C 
HETATM   13  N   UNL     1      42.481 -11.145   8.096  1.00  0.00    -0.354 N 
HETATM   14  H   UNL     1      42.499 -12.140   7.896  1.00  0.00     0.162 HD
HETATM   15  O   UNL     1      41.273  -9.272   7.828  1.00  0.00    -0.267 OA
BRANCH  13  16
HETATM   16  C   UNL     1      43.048 -10.699   9.364  1.00  0.00     0.156 C 
BRANCH  16  17
HETATM   17  C   UNL     1      42.246 -11.075  10.644  1.00  0.00     0.206 C 
HETATM   18  N   UNL     1      41.412  -9.905  11.172  1.00  0.00    -0.066 N 
HETATM   19  H   UNL     1      41.742  -9.052  10.671  1.00  0.00     0.280 HD
HETATM   20  C   UNL     1      41.771  -9.702  12.623  1.00  0.00     0.235 C 
HETATM   21  C   UNL     1      43.167 -10.270  12.733  1.00  0.00     0.030 C 
HETATM   22  C   UNL     1      43.122 -11.486  11.829  1.00  0.00     0.036 C 
BRANCH  18  23
HETATM   23  C   UNL     1      39.942 -10.002  10.885  1.00  0.00     0.231 C 
HETATM   24  C   UNL     1      39.135  -9.733  12.141  1.00  0.00     0.034 C 
ENDBRANCH  18  23
ENDBRANCH  16  17
ENDBRANCH  13  16
ENDBRANCH   1  12
BRANCH   7  25
HETATM   25  C   UNL     1      40.111 -14.556   1.425  1.00  0.00     0.236 C 
BRANCH  25  26
HETATM   26  C   UNL     1      41.342 -15.438   1.582  1.00  0.00     0.240 C 
HETATM   27  N   UNL     1      41.046 -16.684   2.104  1.00  0.00    -0.326 N 
HETATM   28  H   UNL     1      40.075 -16.989   2.034  1.00  0.00     0.169 HD
HETATM   29  O   UNL     1      42.444 -15.044   1.215  1.00  0.00    -0.271 OA
BRANCH  27  30
HETATM   30  C   UNL     1      41.955 -17.602   2.667  1.00  0.00     0.036 A 
HETATM   31  C   UNL     1      42.392 -18.754   2.012  1.00  0.00     0.053 A 
HETATM   32  C   UNL     1      43.366 -19.573   2.595  1.00  0.00     0.042 A 
HETATM   33 CL   UNL     1      43.884 -20.965   1.709  1.00  0.00    -0.084 Cl
HETATM   34  C   UNL     1      43.916 -19.261   3.847  1.00  0.00    -0.040 A 
HETATM   35  C   UNL     1      44.980 -20.110   4.482  1.00  0.00     0.050 C 
HETATM   36  C   UNL     1      43.460 -18.112   4.506  1.00  0.00     0.011 A 
HETATM   37  C   UNL     1      42.492 -17.289   3.920  1.00  0.00     0.030 A 
ENDBRANCH  27  30
ENDBRANCH  25  26
ENDBRANCH   7  25
TORSDOF 7
ENDMDL
MODEL 10
REMARK VINA RESULT:      -7.9      2.096      3.181
REMARK  7 active torsions:
REMARK  status: ('A' for Active; 'I' for Inactive)
REMARK    1  A    between atoms: C_2  and  N_3 
REMARK    2  A    between atoms: C_5  and  C_6 
REMARK    3  A    between atoms: C_6  and  N_7 
REMARK       I    between atoms: N_7  and  C_8 
REMARK    4  A    between atoms: C_8  and  C_9 
REMARK    5  A    between atoms: N_15  and  C_16 
REMARK    6  A    between atoms: C_16  and  C_17 
REMARK       I    between atoms: C_17  and  N_18 
REMARK    7  A    between atoms: N_18  and  C_19 
ROOT
HETATM    1  C   UNL     1      39.665 -10.426   6.468  1.00  0.00     0.081 C 
HETATM    2  S   UNL     1      40.080  -9.140   5.410  1.00  0.00    -0.063 SA
HETATM    3  C   UNL     1      40.201 -10.174   4.073  1.00  0.00     0.116 C 
HETATM    4  C   UNL     1      39.908 -11.480   4.400  1.00  0.00     0.075 C 
HETATM    5  C   UNL     1      40.105 -12.477   3.353  1.00  0.00     0.262 C 
HETATM    6  O   UNL     1      39.858 -13.672   3.500  1.00  0.00    -0.267 OA
HETATM    7  N   UNL     1      40.650 -11.971   2.178  1.00  0.00    -0.299 N 
HETATM    8  C   UNL     1      40.813 -10.615   1.976  1.00  0.00     0.214 C 
HETATM    9  N   UNL     1      40.597  -9.701   2.865  1.00  0.00    -0.235 NA
HETATM   10  C   UNL     1      39.501 -11.633   5.785  1.00  0.00    -0.021 C 
HETATM   11  C   UNL     1      39.077 -12.931   6.401  1.00  0.00     0.051 C 
ENDROOT
BRANCH   1  12
HETATM   12  C   UNL     1      39.623 -10.105   7.887  1.00  0.00     0.259 C 
HETATM   13  N   UNL     1      40.825  -9.864   8.519  1.00  0.00    -0.354 N 
HETATM   14  H   UNL     1      41.654 -10.247   8.077  1.00  0.00     0.162 HD
HETATM   15  O   UNL     1      38.583  -9.950   8.532  1.00  0.00    -0.267 OA
BRANCH  13  16
HETATM   16  C   UNL     1      40.904  -9.537   9.939  1.00  0.00     0.156 C 
BRANCH  16  17
HETATM   17  C   UNL     1      41.699 -10.539  10.829  1.00  0.00     0.206 C 
HETATM   18  N   UNL     1      42.199  -9.895  12.123  1.00  0.00    -0.066 N 
HETATM   19  H   UNL     1      42.076  -8.865  12.014  1.00  0.00     0.280 HD
HETATM   20  C   UNL     1      43.688 -10.129  12.209  1.00  0.00     0.235 C 
HETATM   21  C   UNL     1      44.109 -10.309  10.769  1.00  0.00     0.030 C 
HETATM   22  C   UNL     1      42.961 -11.094  10.165  1.00  0.00     0.036 C 
BRANCH  18  23
HETATM   23  C   UNL     1      41.423 -10.268  13.352  1.00  0.00     0.231 C 
HETATM   24  C   UNL     1      42.312 -10.221  14.580  1.00  0.00     0.034 C 
ENDBRANCH  18  23
ENDBRANCH  16  17
ENDBRANCH  13  16
ENDBRANCH   1  12
BRANCH   7  25
HETATM   25  C   UNL     1      41.120 -12.910   1.179  1.00  0.00     0.236 C 
BRANCH  25  26
HETATM   26  C   UNL     1      42.189 -13.830   1.753  1.00  0.00     0.240 C 
HETATM   27  N   UNL     1      41.999 -15.154   1.405  1.00  0.00    -0.326 N 
HETATM   28  H   UNL     1      41.402 -15.334   0.597  1.00  0.00     0.169 HD
HETATM   29  O   UNL     1      43.124 -13.372   2.402  1.00  0.00    -0.271 OA
BRANCH  27  30
HETATM   30  C   UNL     1      42.592 -16.280   2.011  1.00  0.00     0.036 A 
HETATM   31  C   UNL     1      42.272 -16.722   3.295  1.00  0.00     0.053 A 
HETATM   32  C   UNL     1      42.835 -17.901   3.799  1.00  0.00     0.042 A 
HETATM   33 CL   UNL     1      42.365 -18.405   5.385  1.00  0.00    -0.084 Cl
HETATM   34  C   UNL     1      43.734 -18.655   3.032  1.00  0.00    -0.040 A 
HETATM   35  C   UNL     1      44.332 -19.937   3.539  1.00  0.00     0.050 C 
HETATM   36  C   UNL     1      44.063 -18.196   1.750  1.00  0.00     0.011 A 
HETATM   37  C   UNL     1      43.495 -17.023   1.244  1.00  0.00     0.030 A 
ENDBRANCH  27  30
ENDBRANCH  25  26
ENDBRANCH   7  25
TORSDOF 7
ENDMDL
