MODEL 1
REMARK VINA RESULT:      -8.6      0.000      0.000
REMARK  5 active torsions:
REMARK  status: ('A' for Active; 'I' for Inactive)
REMARK    1  A    between atoms: C_2  and  C_3 
REMARK    2  A    between atoms: C_11  and  N_12 
REMARK       I    between atoms: N_12  and  C_13 
REMARK    3  A    between atoms: C_13  and  C_14 
REMARK    4  A    between atoms: C_16  and  O_17 
REMARK    5  A    between atoms: O_17  and  C_18 
ROOT
HETATM    1  N   UNL     1      44.192 -14.586   7.354  1.00  0.00    -0.323 N 
HETATM    2  C   UNL     1      45.126 -13.569   7.275  1.00  0.00     0.256 C 
HETATM    3  O   UNL     1      45.976 -13.424   6.403  1.00  0.00    -0.267 OA
HETATM    4  H   UNL     1      43.595 -14.616   8.167  1.00  0.00     0.169 HD
ENDROOT
BRANCH   1   5
HETATM    5  C   UNL     1      44.047 -15.674   6.463  1.00  0.00     0.035 A 
HETATM    6  C   UNL     1      43.301 -15.627   5.286  1.00  0.00     0.030 A 
HETATM    7  C   UNL     1      43.242 -16.736   4.429  1.00  0.00     0.016 A 
HETATM    8  C   UNL     1      43.924 -17.919   4.734  1.00  0.00    -0.005 A 
HETATM    9  C   UNL     1      44.649 -17.971   5.931  1.00  0.00     0.016 A 
HETATM   10  C   UNL     1      44.714 -16.861   6.784  1.00  0.00     0.030 A 
BRANCH   8  11
HETATM   11  C   UNL     1      43.895 -19.070   3.825  1.00  0.00     0.088 A 
HETATM   12  N   UNL     1      44.577 -20.199   4.090  1.00  0.00    -0.175 NA
HETATM   13  N   UNL     1      44.324 -21.006   3.049  1.00  0.00    -0.289 N 
HETATM   14  H   UNL     1      44.746 -21.929   3.045  1.00  0.00     0.188 HD
HETATM   15  C   UNL     1      43.513 -20.449   2.112  1.00  0.00     0.111 A 
HETATM   16  C   UNL     1      43.212 -19.195   2.580  1.00  0.00     0.053 A 
ENDBRANCH   8  11
ENDBRANCH   1   5
BRANCH   2  17
HETATM   17  C   UNL     1      45.103 -12.573   8.383  1.00  0.00     0.037 A 
HETATM   18  C   UNL     1      43.915 -12.435   9.102  1.00  0.00     0.075 A 
HETATM   19  C   UNL     1      43.887 -11.537  10.147  1.00  0.00     0.165 A 
HETATM   20  N   UNL     1      44.938 -10.775  10.513  1.00  0.00    -0.237 NA
HETATM   21  C   UNL     1      46.078 -10.934   9.809  1.00  0.00     0.120 A 
HETATM   22  C   UNL     1      46.216 -11.816   8.748  1.00  0.00     0.036 A 
BRANCH  19  23
HETATM   23  O   UNL     1      42.696 -11.435  10.841  1.00  0.00    -0.329 OA
BRANCH  23  24
HETATM   24  C   UNL     1      42.792 -11.419  12.279  1.00  0.00     0.130 C 
HETATM   25  C   UNL     1      43.200 -10.081  12.951  1.00  0.00     0.032 C 
HETATM   26  C   UNL     1      42.159 -10.385  14.044  1.00  0.00     0.005 C 
HETATM   27  C   UNL     1      41.431 -11.262  13.010  1.00  0.00     0.032 C 
ENDBRANCH  23  24
ENDBRANCH  19  23
ENDBRANCH   2  17
TORSDOF 5
ENDMDL
MODEL 2
REMARK VINA RESULT:      -8.1      7.068      9.718
REMARK  5 active torsions:
REMARK  status: ('A' for Active; 'I' for Inactive)
REMARK    1  A    between atoms: C_2  and  C_3 
REMARK    2  A    between atoms: C_11  and  N_12 
REMARK       I    between atoms: N_12  and  C_13 
REMARK    3  A    between atoms: C_13  and  C_14 
REMARK    4  A    between atoms: C_16  and  O_17 
REMARK    5  A    between atoms: O_17  and  C_18 
ROOT
HETATM    1  N   UNL     1      42.656 -15.953   1.539  1.00  0.00    -0.323 N 
HETATM    2  C   UNL     1      41.382 -15.428   1.660  1.00  0.00     0.256 C 
HETATM    3  O   UNL     1      40.463 -15.887   2.329  1.00  0.00    -0.267 OA
HETATM    4  H   UNL     1      43.293 -15.504   0.898  1.00  0.00     0.169 HD
ENDROOT
BRANCH   1   5
HETATM    5  C   UNL     1      43.145 -17.136   2.139  1.00  0.00     0.035 A 
HETATM    6  C   UNL     1      43.516 -17.237   3.480  1.00  0.00     0.030 A 
HETATM    7  C   UNL     1      43.950 -18.459   4.014  1.00  0.00     0.016 A 
HETATM    8  C   UNL     1      44.027 -19.607   3.217  1.00  0.00    -0.005 A 
HETATM    9  C   UNL     1      43.680 -19.494   1.865  1.00  0.00     0.016 A 
HETATM   10  C   UNL     1      43.241 -18.274   1.333  1.00  0.00     0.030 A 
BRANCH   8  11
HETATM   11  C   UNL     1      44.447 -20.896   3.778  1.00  0.00     0.088 A 
HETATM   12  N   UNL     1      44.457 -22.020   3.039  1.00  0.00    -0.175 NA
HETATM   13  N   UNL     1      44.877 -22.979   3.877  1.00  0.00    -0.289 N 
HETATM   14  H   UNL     1      44.962 -23.925   3.519  1.00  0.00     0.188 HD
HETATM   15  C   UNL     1      45.134 -22.530   5.134  1.00  0.00     0.111 A 
HETATM   16  C   UNL     1      44.868 -21.184   5.108  1.00  0.00     0.053 A 
ENDBRANCH   8  11
ENDBRANCH   1   5
BRANCH   2  17
HETATM   17  C   UNL     1      41.106 -14.195   0.869  1.00  0.00     0.037 A 
HETATM   18  C   UNL     1      40.331 -14.329  -0.284  1.00  0.00     0.075 A 
HETATM   19  C   UNL     1      40.045 -13.192  -1.011  1.00  0.00     0.165 A 
HETATM   20  N   UNL     1      40.478 -11.959  -0.681  1.00  0.00    -0.237 NA
HETATM   21  C   UNL     1      41.217 -11.856   0.444  1.00  0.00     0.120 A 
HETATM   22  C   UNL     1      41.552 -12.931   1.251  1.00  0.00     0.036 A 
BRANCH  19  23
HETATM   23  O   UNL     1      39.268 -13.363  -2.141  1.00  0.00    -0.329 OA
BRANCH  23  24
HETATM   24  C   UNL     1      39.046 -14.722  -2.567  1.00  0.00     0.130 C 
HETATM   25  C   UNL     1      37.903 -14.969  -3.587  1.00  0.00     0.032 C 
HETATM   26  C   UNL     1      38.828 -15.984  -4.283  1.00  0.00     0.005 C 
HETATM   27  C   UNL     1      40.014 -15.213  -3.676  1.00  0.00     0.032 C 
ENDBRANCH  23  24
ENDBRANCH  19  23
ENDBRANCH   2  17
TORSDOF 5
ENDMDL
MODEL 3
REMARK VINA RESULT:      -7.9      7.088      8.776
REMARK  5 active torsions:
REMARK  status: ('A' for Active; 'I' for Inactive)
REMARK    1  A    between atoms: C_2  and  C_3 
REMARK    2  A    between atoms: C_11  and  N_12 
REMARK       I    between atoms: N_12  and  C_13 
REMARK    3  A    between atoms: C_13  and  C_14 
REMARK    4  A    between atoms: C_16  and  O_17 
REMARK    5  A    between atoms: O_17  and  C_18 
ROOT
HETATM    1  N   UNL     1      42.498 -15.976   1.687  1.00  0.00    -0.323 N 
HETATM    2  C   UNL     1      41.167 -15.669   1.469  1.00  0.00     0.256 C 
HETATM    3  O   UNL     1      40.200 -16.357   1.774  1.00  0.00    -0.267 OA
HETATM    4  H   UNL     1      43.195 -15.343   1.322  1.00  0.00     0.169 HD
ENDROOT
BRANCH   1   5
HETATM    5  C   UNL     1      43.010 -17.153   2.279  1.00  0.00     0.035 A 
HETATM    6  C   UNL     1      43.171 -17.331   3.653  1.00  0.00     0.030 A 
HETATM    7  C   UNL     1      43.644 -18.547   4.169  1.00  0.00     0.016 A 
HETATM    8  C   UNL     1      43.971 -19.610   3.320  1.00  0.00    -0.005 A 
HETATM    9  C   UNL     1      43.834 -19.417   1.939  1.00  0.00     0.016 A 
HETATM   10  C   UNL     1      43.356 -18.205   1.425  1.00  0.00     0.030 A 
BRANCH   8  11
HETATM   11  C   UNL     1      44.432 -20.897   3.854  1.00  0.00     0.088 A 
HETATM   12  N   UNL     1      44.419 -22.018   3.111  1.00  0.00    -0.175 NA
HETATM   13  N   UNL     1      44.891 -22.975   3.923  1.00  0.00    -0.289 N 
HETATM   14  H   UNL     1      44.969 -23.918   3.558  1.00  0.00     0.188 HD
HETATM   15  C   UNL     1      45.204 -22.527   5.168  1.00  0.00     0.111 A 
HETATM   16  C   UNL     1      44.922 -21.185   5.161  1.00  0.00     0.053 A 
ENDBRANCH   8  11
ENDBRANCH   1   5
BRANCH   2  17
HETATM   17  C   UNL     1      40.900 -14.382   0.766  1.00  0.00     0.037 A 
HETATM   18  C   UNL     1      41.969 -13.500   0.607  1.00  0.00     0.075 A 
HETATM   19  C   UNL     1      41.743 -12.317  -0.065  1.00  0.00     0.165 A 
HETATM   20  N   UNL     1      40.547 -11.956  -0.571  1.00  0.00    -0.237 NA
HETATM   21  C   UNL     1      39.531 -12.831  -0.412  1.00  0.00     0.120 A 
HETATM   22  C   UNL     1      39.654 -14.049   0.236  1.00  0.00     0.036 A 
BRANCH  19  23
HETATM   23  O   UNL     1      42.828 -11.474  -0.210  1.00  0.00    -0.329 OA
BRANCH  23  24
HETATM   24  C   UNL     1      42.560 -10.178  -0.782  1.00  0.00     0.130 C 
HETATM   25  C   UNL     1      43.441  -8.993  -0.303  1.00  0.00     0.032 C 
HETATM   26  C   UNL     1      43.460  -8.499  -1.762  1.00  0.00     0.005 C 
HETATM   27  C   UNL     1      43.187  -9.954  -2.185  1.00  0.00     0.032 C 
ENDBRANCH  23  24
ENDBRANCH  19  23
ENDBRANCH   2  17
TORSDOF 5
ENDMDL
MODEL 4
REMARK VINA RESULT:      -7.8      2.525      3.377
REMARK  5 active torsions:
REMARK  status: ('A' for Active; 'I' for Inactive)
REMARK    1  A    between atoms: C_2  and  C_3 
REMARK    2  A    between atoms: C_11  and  N_12 
REMARK       I    between atoms: N_12  and  C_13 
REMARK    3  A    between atoms: C_13  and  C_14 
REMARK    4  A    between atoms: C_16  and  O_17 
REMARK    5  A    between atoms: O_17  and  C_18 
ROOT
HETATM    1  N   UNL     1      41.905 -14.930   5.530  1.00  0.00    -0.323 N 
HETATM    2  C   UNL     1      42.269 -13.631   5.223  1.00  0.00     0.256 C 
HETATM    3  O   UNL     1      43.095 -13.283   4.387  1.00  0.00    -0.267 OA
HETATM    4  H   UNL     1      41.257 -15.071   6.291  1.00  0.00     0.169 HD
ENDROOT
BRANCH   1   5
HETATM    5  C   UNL     1      42.429 -16.113   4.962  1.00  0.00     0.035 A 
HETATM    6  C   UNL     1      43.518 -16.815   5.481  1.00  0.00     0.030 A 
HETATM    7  C   UNL     1      43.953 -18.008   4.886  1.00  0.00     0.016 A 
HETATM    8  C   UNL     1      43.311 -18.523   3.754  1.00  0.00    -0.005 A 
HETATM    9  C   UNL     1      42.236 -17.801   3.220  1.00  0.00     0.016 A 
HETATM   10  C   UNL     1      41.798 -16.612   3.818  1.00  0.00     0.030 A 
BRANCH   8  11
HETATM   11  C   UNL     1      43.739 -19.789   3.147  1.00  0.00     0.088 A 
HETATM   12  N   UNL     1      44.630 -20.598   3.750  1.00  0.00    -0.175 NA
HETATM   13  N   UNL     1      44.780 -21.631   2.909  1.00  0.00    -0.289 N 
HETATM   14  H   UNL     1      45.418 -22.375   3.172  1.00  0.00     0.188 HD
HETATM   15  C   UNL     1      44.031 -21.528   1.779  1.00  0.00     0.111 A 
HETATM   16  C   UNL     1      43.341 -20.348   1.898  1.00  0.00     0.053 A 
ENDBRANCH   8  11
ENDBRANCH   1   5
BRANCH   2  17
HETATM   17  C   UNL     1      41.602 -12.561   6.018  1.00  0.00     0.037 A 
HETATM   18  C   UNL     1      42.395 -11.820   6.894  1.00  0.00     0.075 A 
HETATM   19  C   UNL     1      41.797 -10.808   7.616  1.00  0.00     0.165 A 
HETATM   20  N   UNL     1      40.488 -10.497   7.532  1.00  0.00    -0.237 NA
HETATM   21  C   UNL     1      39.745 -11.222   6.669  1.00  0.00     0.120 A 
HETATM   22  C   UNL     1      40.248 -12.252   5.890  1.00  0.00     0.036 A 
BRANCH  19  23
HETATM   23  O   UNL     1      42.615 -10.091   8.467  1.00  0.00    -0.329 OA
BRANCH  23  24
HETATM   24  C   UNL     1      43.053 -10.771   9.660  1.00  0.00     0.130 C 
HETATM   25  C   UNL     1      44.579 -10.804   9.941  1.00  0.00     0.032 C 
HETATM   26  C   UNL     1      44.247 -10.571  11.427  1.00  0.00     0.005 C 
HETATM   27  C   UNL     1      42.927  -9.931  10.960  1.00  0.00     0.032 C 
ENDBRANCH  23  24
ENDBRANCH  19  23
ENDBRANCH   2  17
TORSDOF 5
ENDMDL
MODEL 5
REMARK VINA RESULT:      -7.7      6.609      8.615
REMARK  5 active torsions:
REMARK  status: ('A' for Active; 'I' for Inactive)
REMARK    1  A    between atoms: C_2  and  C_3 
REMARK    2  A    between atoms: C_11  and  N_12 
REMARK       I    between atoms: N_12  and  C_13 
REMARK    3  A    between atoms: C_13  and  C_14 
REMARK    4  A    between atoms: C_16  and  O_17 
REMARK    5  A    between atoms: O_17  and  C_18 
ROOT
HETATM    1  N   UNL     1      42.783 -15.535   2.491  1.00  0.00    -0.323 N 
HETATM    2  C   UNL     1      41.501 -15.043   2.318  1.00  0.00     0.256 C 
HETATM    3  O   UNL     1      40.457 -15.680   2.400  1.00  0.00    -0.267 OA
HETATM    4  H   UNL     1      43.555 -14.907   2.328  1.00  0.00     0.169 HD
ENDROOT
BRANCH   1   5
HETATM    5  C   UNL     1      43.145 -16.873   2.769  1.00  0.00     0.035 A 
HETATM    6  C   UNL     1      43.372 -17.841   1.791  1.00  0.00     0.030 A 
HETATM    7  C   UNL     1      43.774 -19.138   2.144  1.00  0.00     0.016 A 
HETATM    8  C   UNL     1      43.952 -19.496   3.485  1.00  0.00    -0.005 A 
HETATM    9  C   UNL     1      43.696 -18.528   4.465  1.00  0.00     0.016 A 
HETATM   10  C   UNL     1      43.301 -17.231   4.112  1.00  0.00     0.030 A 
BRANCH   8  11
HETATM   11  C   UNL     1      44.406 -20.840   3.860  1.00  0.00     0.088 A 
HETATM   12  N   UNL     1      44.444 -21.848   2.969  1.00  0.00    -0.175 NA
HETATM   13  N   UNL     1      44.891 -22.904   3.665  1.00  0.00    -0.289 N 
HETATM   14  H   UNL     1      45.000 -23.788   3.178  1.00  0.00     0.188 HD
HETATM   15  C   UNL     1      45.138 -22.630   4.973  1.00  0.00     0.111 A 
HETATM   16  C   UNL     1      44.837 -21.302   5.137  1.00  0.00     0.053 A 
ENDBRANCH   8  11
ENDBRANCH   1   5
BRANCH   2  17
HETATM   17  C   UNL     1      41.398 -13.597   1.970  1.00  0.00     0.037 A 
HETATM   18  C   UNL     1      42.164 -13.135   0.899  1.00  0.00     0.075 A 
HETATM   19  C   UNL     1      42.058 -11.806   0.550  1.00  0.00     0.165 A 
HETATM   20  N   UNL     1      41.265 -10.921   1.186  1.00  0.00    -0.237 NA
HETATM   21  C   UNL     1      40.527 -11.395   2.212  1.00  0.00     0.120 A 
HETATM   22  C   UNL     1      40.551 -12.714   2.638  1.00  0.00     0.036 A 
BRANCH  19  23
HETATM   23  O   UNL     1      42.825 -11.387  -0.521  1.00  0.00    -0.329 OA
BRANCH  23  24
HETATM   24  C   UNL     1      42.167 -11.345  -1.803  1.00  0.00     0.130 C 
HETATM   25  C   UNL     1      42.724 -10.351  -2.856  1.00  0.00     0.032 C 
HETATM   26  C   UNL     1      42.490 -11.441  -3.918  1.00  0.00     0.005 C 
HETATM   27  C   UNL     1      42.594 -12.473  -2.781  1.00  0.00     0.032 C 
ENDBRANCH  23  24
ENDBRANCH  19  23
ENDBRANCH   2  17
TORSDOF 5
ENDMDL
MODEL 6
REMARK VINA RESULT:      -7.7      7.627      9.970
REMARK  5 active torsions:
REMARK  status: ('A' for Active; 'I' for Inactive)
REMARK    1  A    between atoms: C_2  and  C_3 
REMARK    2  A    between atoms: C_11  and  N_12 
REMARK       I    between atoms: N_12  and  C_13 
REMARK    3  A    between atoms: C_13  and  C_14 
REMARK    4  A    between atoms: C_16  and  O_17 
REMARK    5  A    between atoms: O_17  and  C_18 
ROOT
HETATM    1  N   UNL     1      42.175 -16.131  -0.068  1.00  0.00    -0.323 N 
HETATM    2  C   UNL     1      41.741 -14.818  -0.012  1.00  0.00     0.256 C 
HETATM    3  O   UNL     1      41.632 -14.128   0.995  1.00  0.00    -0.267 OA
HETATM    4  H   UNL     1      42.151 -16.598  -0.962  1.00  0.00     0.169 HD
ENDROOT
BRANCH   1   5
HETATM    5  C   UNL     1      42.552 -16.945   1.024  1.00  0.00     0.035 A 
HETATM    6  C   UNL     1      41.716 -17.249   2.098  1.00  0.00     0.030 A 
HETATM    7  C   UNL     1      42.148 -18.103   3.124  1.00  0.00     0.016 A 
HETATM    8  C   UNL     1      43.429 -18.667   3.100  1.00  0.00    -0.005 A 
HETATM    9  C   UNL     1      44.274 -18.336   2.034  1.00  0.00     0.016 A 
HETATM   10  C   UNL     1      43.840 -17.489   1.006  1.00  0.00     0.030 A 
BRANCH   8  11
HETATM   11  C   UNL     1      43.874 -19.589   4.152  1.00  0.00     0.088 A 
HETATM   12  N   UNL     1      43.611 -19.360   5.452  1.00  0.00    -0.175 NA
HETATM   13  N   UNL     1      44.174 -20.388   6.102  1.00  0.00    -0.289 N 
HETATM   14  H   UNL     1      44.093 -20.418   7.113  1.00  0.00     0.188 HD
HETATM   15  C   UNL     1      44.800 -21.275   5.283  1.00  0.00     0.111 A 
HETATM   16  C   UNL     1      44.625 -20.791   4.011  1.00  0.00     0.053 A 
ENDBRANCH   8  11
ENDBRANCH   1   5
BRANCH   2  17
HETATM   17  C   UNL     1      41.344 -14.205  -1.311  1.00  0.00     0.037 A 
HETATM   18  C   UNL     1      42.027 -13.059  -1.719  1.00  0.00     0.075 A 
HETATM   19  C   UNL     1      41.688 -12.497  -2.932  1.00  0.00     0.165 A 
HETATM   20  N   UNL     1      40.728 -12.983  -3.745  1.00  0.00    -0.237 NA
HETATM   21  C   UNL     1      40.089 -14.098  -3.331  1.00  0.00     0.120 A 
HETATM   22  C   UNL     1      40.359 -14.747  -2.137  1.00  0.00     0.036 A 
BRANCH  19  23
HETATM   23  O   UNL     1      42.391 -11.369  -3.307  1.00  0.00    -0.329 OA
BRANCH  23  24
HETATM   24  C   UNL     1      42.331 -10.246  -2.404  1.00  0.00     0.130 C 
HETATM   25  C   UNL     1      43.626  -9.887  -1.628  1.00  0.00     0.032 C 
HETATM   26  C   UNL     1      43.283  -8.405  -1.866  1.00  0.00     0.005 C 
HETATM   27  C   UNL     1      42.472  -8.862  -3.092  1.00  0.00     0.032 C 
ENDBRANCH  23  24
ENDBRANCH  19  23
ENDBRANCH   2  17
TORSDOF 5
ENDMDL
MODEL 7
REMARK VINA RESULT:      -7.4      7.890     11.538
REMARK  5 active torsions:
REMARK  status: ('A' for Active; 'I' for Inactive)
REMARK    1  A    between atoms: C_2  and  C_3 
REMARK    2  A    between atoms: C_11  and  N_12 
REMARK       I    between atoms: N_12  and  C_13 
REMARK    3  A    between atoms: C_13  and  C_14 
REMARK    4  A    between atoms: C_16  and  O_17 
REMARK    5  A    between atoms: O_17  and  C_18 
ROOT
HETATM    1  N   UNL     1      42.076 -14.549  -0.681  1.00  0.00    -0.323 N 
HETATM    2  C   UNL     1      41.016 -14.838   0.159  1.00  0.00     0.256 C 
HETATM    3  O   UNL     1      39.915 -14.298   0.158  1.00  0.00    -0.267 OA
HETATM    4  H   UNL     1      42.949 -15.029  -0.522  1.00  0.00     0.169 HD
ENDROOT
BRANCH   1   5
HETATM    5  C   UNL     1      42.111 -13.558  -1.689  1.00  0.00     0.035 A 
HETATM    6  C   UNL     1      41.526 -13.702  -2.948  1.00  0.00     0.030 A 
HETATM    7  C   UNL     1      41.565 -12.655  -3.880  1.00  0.00     0.016 A 
HETATM    8  C   UNL     1      42.195 -11.443  -3.577  1.00  0.00    -0.005 A 
HETATM    9  C   UNL     1      42.806 -11.314  -2.323  1.00  0.00     0.016 A 
HETATM   10  C   UNL     1      42.761 -12.357  -1.388  1.00  0.00     0.030 A 
BRANCH   8  11
HETATM   11  C   UNL     1      42.209 -10.331  -4.535  1.00  0.00     0.088 A 
HETATM   12  N   UNL     1      42.193 -10.542  -5.864  1.00  0.00    -0.175 NA
HETATM   13  N   UNL     1      42.225  -9.316  -6.406  1.00  0.00    -0.289 N 
HETATM   14  H   UNL     1      42.217  -9.239  -7.418  1.00  0.00     0.188 HD
HETATM   15  C   UNL     1      42.269  -8.314  -5.488  1.00  0.00     0.111 A 
HETATM   16  C   UNL     1      42.259  -8.934  -4.264  1.00  0.00     0.053 A 
ENDBRANCH   8  11
ENDBRANCH   1   5
BRANCH   2  17
HETATM   17  C   UNL     1      41.262 -15.893   1.182  1.00  0.00     0.037 A 
HETATM   18  C   UNL     1      42.159 -16.911   0.856  1.00  0.00     0.075 A 
HETATM   19  C   UNL     1      42.418 -17.879   1.803  1.00  0.00     0.165 A 
HETATM   20  N   UNL     1      41.848 -17.908   3.024  1.00  0.00    -0.237 NA
HETATM   21  C   UNL     1      40.992 -16.907   3.319  1.00  0.00     0.120 A 
HETATM   22  C   UNL     1      40.671 -15.881   2.445  1.00  0.00     0.036 A 
BRANCH  19  23
HETATM   23  O   UNL     1      43.317 -18.865   1.446  1.00  0.00    -0.329 OA
BRANCH  23  24
HETATM   24  C   UNL     1      43.354 -20.035   2.289  1.00  0.00     0.130 C 
HETATM   25  C   UNL     1      43.589 -21.403   1.596  1.00  0.00     0.032 C 
HETATM   26  C   UNL     1      44.497 -21.777   2.782  1.00  0.00     0.005 C 
HETATM   27  C   UNL     1      44.712 -20.269   3.002  1.00  0.00     0.032 C 
ENDBRANCH  23  24
ENDBRANCH  19  23
ENDBRANCH   2  17
TORSDOF 5
ENDMDL
MODEL 8
REMARK VINA RESULT:      -7.3      8.421      9.514
REMARK  5 active torsions:
REMARK  status: ('A' for Active; 'I' for Inactive)
REMARK    1  A    between atoms: C_2  and  C_3 
REMARK    2  A    between atoms: C_11  and  N_12 
REMARK       I    between atoms: N_12  and  C_13 
REMARK    3  A    between atoms: C_13  and  C_14 
REMARK    4  A    between atoms: C_16  and  O_17 
REMARK    5  A    between atoms: O_17  and  C_18 
ROOT
HETATM    1  N   UNL     1      41.620 -15.312   0.547  1.00  0.00    -0.323 N 
HETATM    2  C   UNL     1      41.115 -15.078  -0.719  1.00  0.00     0.256 C 
HETATM    3  O   UNL     1      41.096 -15.869  -1.655  1.00  0.00    -0.267 OA
HETATM    4  H   UNL     1      41.630 -14.544   1.201  1.00  0.00     0.169 HD
ENDROOT
BRANCH   1   5
HETATM    5  C   UNL     1      42.237 -16.498   1.007  1.00  0.00     0.035 A 
HETATM    6  C   UNL     1      43.612 -16.647   1.185  1.00  0.00     0.030 A 
HETATM    7  C   UNL     1      44.146 -17.842   1.688  1.00  0.00     0.016 A 
HETATM    8  C   UNL     1      43.315 -18.918   2.020  1.00  0.00    -0.005 A 
HETATM    9  C   UNL     1      41.937 -18.774   1.814  1.00  0.00     0.016 A 
HETATM   10  C   UNL     1      41.403 -17.578   1.316  1.00  0.00     0.030 A 
BRANCH   8  11
HETATM   11  C   UNL     1      43.863 -20.159   2.580  1.00  0.00     0.088 A 
HETATM   12  N   UNL     1      44.452 -20.190   3.790  1.00  0.00    -0.175 NA
HETATM   13  N   UNL     1      44.832 -21.465   3.955  1.00  0.00    -0.289 N 
HETATM   14  H   UNL     1      45.304 -21.717   4.817  1.00  0.00     0.188 HD
HETATM   15  C   UNL     1      44.523 -22.266   2.901  1.00  0.00     0.111 A 
HETATM   16  C   UNL     1      43.893 -21.455   1.991  1.00  0.00     0.053 A 
ENDBRANCH   8  11
ENDBRANCH   1   5
BRANCH   2  17
HETATM   17  C   UNL     1      40.571 -13.712  -0.963  1.00  0.00     0.037 A 
HETATM   18  C   UNL     1      41.448 -12.747  -1.458  1.00  0.00     0.075 A 
HETATM   19  C   UNL     1      40.951 -11.486  -1.714  1.00  0.00     0.165 A 
HETATM   20  N   UNL     1      39.668 -11.126  -1.505  1.00  0.00    -0.237 NA
HETATM   21  C   UNL     1      38.838 -12.081  -1.035  1.00  0.00     0.120 A 
HETATM   22  C   UNL     1      39.232 -13.380  -0.755  1.00  0.00     0.036 A 
BRANCH  19  23
HETATM   23  O   UNL     1      41.847 -10.560  -2.212  1.00  0.00    -0.329 OA
BRANCH  23  24
HETATM   24  C   UNL     1      42.535  -9.747  -1.240  1.00  0.00     0.130 C 
HETATM   25  C   UNL     1      44.085  -9.720  -1.306  1.00  0.00     0.032 C 
HETATM   26  C   UNL     1      44.010  -8.213  -1.001  1.00  0.00     0.005 C 
HETATM   27  C   UNL     1      42.588  -8.236  -1.591  1.00  0.00     0.032 C 
ENDBRANCH  23  24
ENDBRANCH  19  23
ENDBRANCH   2  17
TORSDOF 5
ENDMDL
MODEL 9
REMARK VINA RESULT:      -7.2      6.989      9.905
REMARK  5 active torsions:
REMARK  status: ('A' for Active; 'I' for Inactive)
REMARK    1  A    between atoms: C_2  and  C_3 
REMARK    2  A    between atoms: C_11  and  N_12 
REMARK       I    between atoms: N_12  and  C_13 
REMARK    3  A    between atoms: C_13  and  C_14 
REMARK    4  A    between atoms: C_16  and  O_17 
REMARK    5  A    between atoms: O_17  and  C_18 
ROOT
HETATM    1  N   UNL     1      41.962 -16.043  -0.185  1.00  0.00    -0.323 N 
HETATM    2  C   UNL     1      41.410 -16.522   0.990  1.00  0.00     0.256 C 
HETATM    3  O   UNL     1      40.294 -16.268   1.429  1.00  0.00    -0.267 OA
HETATM    4  H   UNL     1      42.920 -16.285  -0.389  1.00  0.00     0.169 HD
ENDROOT
BRANCH   1   5
HETATM    5  C   UNL     1      41.362 -15.147  -1.099  1.00  0.00     0.035 A 
HETATM    6  C   UNL     1      40.748 -15.538  -2.288  1.00  0.00     0.030 A 
HETATM    7  C   UNL     1      40.134 -14.592  -3.123  1.00  0.00     0.016 A 
HETATM    8  C   UNL     1      40.126 -13.233  -2.789  1.00  0.00    -0.005 A 
HETATM    9  C   UNL     1      40.769 -12.843  -1.607  1.00  0.00     0.016 A 
HETATM   10  C   UNL     1      41.377 -13.788  -0.770  1.00  0.00     0.030 A 
BRANCH   8  11
HETATM   11  C   UNL     1      39.456 -12.244  -3.639  1.00  0.00     0.088 A 
HETATM   12  N   UNL     1      40.139 -11.479  -4.510  1.00  0.00    -0.175 NA
HETATM   13  N   UNL     1      39.212 -10.703  -5.088  1.00  0.00    -0.289 N 
HETATM   14  H   UNL     1      39.514 -10.039  -5.793  1.00  0.00     0.188 HD
HETATM   15  C   UNL     1      37.952 -10.922  -4.626  1.00  0.00     0.111 A 
HETATM   16  C   UNL     1      38.070 -11.916  -3.687  1.00  0.00     0.053 A 
ENDBRANCH   8  11
ENDBRANCH   1   5
BRANCH   2  17
HETATM   17  C   UNL     1      42.283 -17.412   1.807  1.00  0.00     0.037 A 
HETATM   18  C   UNL     1      41.952 -17.583   3.151  1.00  0.00     0.075 A 
HETATM   19  C   UNL     1      42.735 -18.424   3.913  1.00  0.00     0.165 A 
HETATM   20  N   UNL     1      43.809 -19.087   3.438  1.00  0.00    -0.237 NA
HETATM   21  C   UNL     1      44.102 -18.913   2.132  1.00  0.00     0.120 A 
HETATM   22  C   UNL     1      43.375 -18.099   1.278  1.00  0.00     0.036 A 
BRANCH  19  23
HETATM   23  O   UNL     1      42.371 -18.575   5.237  1.00  0.00    -0.329 OA
BRANCH  23  24
HETATM   24  C   UNL     1      43.278 -18.032   6.217  1.00  0.00     0.130 C 
HETATM   25  C   UNL     1      42.654 -17.291   7.430  1.00  0.00     0.032 C 
HETATM   26  C   UNL     1      43.724 -17.962   8.310  1.00  0.00     0.005 C 
HETATM   27  C   UNL     1      43.809 -19.068   7.243  1.00  0.00     0.032 C 
ENDBRANCH  23  24
ENDBRANCH  19  23
ENDBRANCH   2  17
TORSDOF 5
ENDMDL
MODEL 10
REMARK VINA RESULT:      -7.2      6.778      9.829
REMARK  5 active torsions:
REMARK  status: ('A' for Active; 'I' for Inactive)
REMARK    1  A    between atoms: C_2  and  C_3 
REMARK    2  A    between atoms: C_11  and  N_12 
REMARK       I    between atoms: N_12  and  C_13 
REMARK    3  A    between atoms: C_13  and  C_14 
REMARK    4  A    between atoms: C_16  and  O_17 
REMARK    5  A    between atoms: O_17  and  C_18 
ROOT
HETATM    1  N   UNL     1      41.705 -14.072   1.712  1.00  0.00    -0.323 N 
HETATM    2  C   UNL     1      40.546 -14.340   2.419  1.00  0.00     0.256 C 
HETATM    3  O   UNL     1      39.415 -13.959   2.139  1.00  0.00    -0.267 OA
HETATM    4  H   UNL     1      42.579 -14.397   2.098  1.00  0.00     0.169 HD
ENDROOT
BRANCH   1   5
HETATM    5  C   UNL     1      41.821 -13.285   0.544  1.00  0.00     0.035 A 
HETATM    6  C   UNL     1      42.081 -11.914   0.547  1.00  0.00     0.030 A 
HETATM    7  C   UNL     1      42.227 -11.209  -0.657  1.00  0.00     0.016 A 
HETATM    8  C   UNL     1      42.111 -11.859  -1.891  1.00  0.00    -0.005 A 
HETATM    9  C   UNL     1      41.822 -13.229  -1.889  1.00  0.00     0.016 A 
HETATM   10  C   UNL     1      41.682 -13.935  -0.686  1.00  0.00     0.030 A 
BRANCH   8  11
HETATM   11  C   UNL     1      42.297 -11.134  -3.153  1.00  0.00     0.088 A 
HETATM   12  N   UNL     1      42.393 -11.777  -4.331  1.00  0.00    -0.175 NA
HETATM   13  N   UNL     1      42.567 -10.807  -5.240  1.00  0.00    -0.289 N 
HETATM   14  H   UNL     1      42.662 -11.073  -6.214  1.00  0.00     0.188 HD
HETATM   15  C   UNL     1      42.596  -9.557  -4.704  1.00  0.00     0.111 A 
HETATM   16  C   UNL     1      42.423  -9.729  -3.354  1.00  0.00     0.053 A 
ENDBRANCH   8  11
ENDBRANCH   1   5
BRANCH   2  17
HETATM   17  C   UNL     1      40.710 -15.151   3.658  1.00  0.00     0.037 A 
HETATM   18  C   UNL     1      41.264 -16.425   3.527  1.00  0.00     0.075 A 
HETATM   19  C   UNL     1      41.446 -17.176   4.669  1.00  0.00     0.165 A 
HETATM   20  N   UNL     1      41.113 -16.758   5.906  1.00  0.00    -0.237 NA
HETATM   21  C   UNL     1      40.588 -15.518   6.007  1.00  0.00     0.120 A 
HETATM   22  C   UNL     1      40.373 -14.678   4.926  1.00  0.00     0.036 A 
BRANCH  19  23
HETATM   23  O   UNL     1      42.005 -18.429   4.500  1.00  0.00    -0.329 OA
BRANCH  23  24
HETATM   24  C   UNL     1      43.193 -18.496   3.686  1.00  0.00     0.130 C 
HETATM   25  C   UNL     1      44.285 -19.515   4.106  1.00  0.00     0.032 C 
HETATM   26  C   UNL     1      44.481 -19.827   2.610  1.00  0.00     0.005 C 
HETATM   27  C   UNL     1      43.037 -19.339   2.392  1.00  0.00     0.032 C 
ENDBRANCH  23  24
ENDBRANCH  19  23
ENDBRANCH   2  17
TORSDOF 5
ENDMDL
