MODEL 1
REMARK VINA RESULT:      -8.8      0.000      0.000
REMARK  4 active torsions:
REMARK  status: ('A' for Active; 'I' for Inactive)
REMARK    1  A    between atoms: O_2  and  C_3 
REMARK    2  A    between atoms: C_8  and  C_9 
REMARK    3  A    between atoms: N_11  and  C_12 
REMARK    4  A    between atoms: C_12  and  C_13 
ROOT
HETATM    1  C   UNL     1      39.538 -15.378   2.197  1.00  0.00     0.069 A 
HETATM    2  C   UNL     1      39.800 -14.679   3.373  1.00  0.00     0.056 A 
HETATM    3  C   UNL     1      40.745 -15.170   4.277  1.00  0.00     0.063 A 
HETATM    4  C   UNL     1      41.442 -16.355   4.037  1.00  0.00     0.074 A 
HETATM    5  N   UNL     1      42.384 -16.879   4.940  1.00  0.00    -0.234 NA
HETATM    6  C   UNL     1      42.617 -16.217   6.028  1.00  0.00     0.113 A 
HETATM    7  N   UNL     1      41.990 -15.035   6.325  1.00  0.00    -0.310 N 
HETATM    8  C   UNL     1      41.034 -14.459   5.531  1.00  0.00     0.259 A 
HETATM    9  O   UNL     1      40.450 -13.434   5.856  1.00  0.00    -0.267 OA
HETATM   10  C   UNL     1      41.175 -17.047   2.855  1.00  0.00     0.035 A 
HETATM   11  C   UNL     1      40.229 -16.564   1.938  1.00  0.00     0.039 A 
HETATM   12  H   UNL     1      42.166 -14.549   7.196  1.00  0.00     0.170 HD
ENDROOT
BRANCH   6  13
HETATM   13  C   UNL     1      43.613 -16.757   7.046  1.00  0.00     0.082 C 
HETATM   14  C   UNL     1      44.906 -17.187   6.377  1.00  0.00     0.139 C 
HETATM   15  N   UNL     1      44.656 -18.572   6.055  1.00  0.00    -0.347 N 
HETATM   16  C   UNL     1      43.719 -19.139   6.906  1.00  0.00     0.220 C 
HETATM   17  O   UNL     1      43.410 -20.316   6.969  1.00  0.00    -0.273 OA
HETATM   18  C   UNL     1      43.108 -18.029   7.731  1.00  0.00     0.117 C 
BRANCH  15  19
HETATM   19  C   UNL     1      45.522 -19.343   5.182  1.00  0.00     0.164 C 
BRANCH  19  20
HETATM   20  C   UNL     1      44.792 -19.970   4.024  1.00  0.00    -0.040 A 
HETATM   21  C   UNL     1      44.112 -19.163   3.100  1.00  0.00     0.009 A 
HETATM   22  C   UNL     1      43.456 -19.733   2.008  1.00  0.00     0.001 A 
HETATM   23  C   UNL     1      43.463 -21.116   1.837  1.00  0.00     0.000 A 
HETATM   24  C   UNL     1      44.119 -21.929   2.757  1.00  0.00     0.001 A 
HETATM   25  C   UNL     1      44.781 -21.361   3.848  1.00  0.00     0.009 A 
ENDBRANCH  19  20
ENDBRANCH  15  19
ENDBRANCH   6  13
BRANCH   1  26
HETATM   26  O   UNL     1      38.593 -14.805   1.393  1.00  0.00    -0.356 OA
HETATM   27  C   UNL     1      39.056 -13.959   0.348  1.00  0.00     0.210 C 
ENDBRANCH   1  26
TORSDOF 4
ENDMDL
MODEL 2
REMARK VINA RESULT:      -8.4      2.627      7.219
REMARK  4 active torsions:
REMARK  status: ('A' for Active; 'I' for Inactive)
REMARK    1  A    between atoms: O_2  and  C_3 
REMARK    2  A    between atoms: C_8  and  C_9 
REMARK    3  A    between atoms: N_11  and  C_12 
REMARK    4  A    between atoms: C_12  and  C_13 
ROOT
HETATM    1  C   UNL     1      44.547 -20.228   3.885  1.00  0.00     0.069 A 
HETATM    2  C   UNL     1      44.062 -19.220   4.715  1.00  0.00     0.056 A 
HETATM    3  C   UNL     1      43.144 -18.292   4.218  1.00  0.00     0.063 A 
HETATM    4  C   UNL     1      42.694 -18.343   2.897  1.00  0.00     0.074 A 
HETATM    5  N   UNL     1      41.785 -17.409   2.368  1.00  0.00    -0.234 NA
HETATM    6  C   UNL     1      41.343 -16.478   3.153  1.00  0.00     0.113 A 
HETATM    7  N   UNL     1      41.719 -16.376   4.466  1.00  0.00    -0.310 N 
HETATM    8  C   UNL     1      42.624 -17.212   5.067  1.00  0.00     0.259 A 
HETATM    9  O   UNL     1      42.984 -17.054   6.226  1.00  0.00    -0.267 OA
HETATM   10  C   UNL     1      43.183 -19.357   2.074  1.00  0.00     0.035 A 
HETATM   11  C   UNL     1      44.104 -20.297   2.561  1.00  0.00     0.039 A 
HETATM   12  H   UNL     1      41.385 -15.623   5.054  1.00  0.00     0.170 HD
ENDROOT
BRANCH   6  13
HETATM   13  C   UNL     1      40.373 -15.432   2.618  1.00  0.00     0.082 C 
HETATM   14  C   UNL     1      40.279 -15.491   1.104  1.00  0.00     0.139 C 
HETATM   15  N   UNL     1      41.317 -14.581   0.682  1.00  0.00    -0.347 N 
HETATM   16  C   UNL     1      41.582 -13.617   1.643  1.00  0.00     0.220 C 
HETATM   17  O   UNL     1      42.300 -12.640   1.518  1.00  0.00    -0.273 OA
HETATM   18  C   UNL     1      40.846 -14.006   2.906  1.00  0.00     0.117 C 
BRANCH  15  19
HETATM   19  C   UNL     1      41.770 -14.491  -0.694  1.00  0.00     0.164 C 
BRANCH  19  20
HETATM   20  C   UNL     1      40.665 -14.692  -1.697  1.00  0.00    -0.040 A 
HETATM   21  C   UNL     1      40.772 -15.698  -2.670  1.00  0.00     0.009 A 
HETATM   22  C   UNL     1      39.742 -15.910  -3.586  1.00  0.00     0.001 A 
HETATM   23  C   UNL     1      38.601 -15.111  -3.549  1.00  0.00     0.000 A 
HETATM   24  C   UNL     1      38.491 -14.097  -2.599  1.00  0.00     0.001 A 
HETATM   25  C   UNL     1      39.518 -13.886  -1.678  1.00  0.00     0.009 A 
ENDBRANCH  19  20
ENDBRANCH  15  19
ENDBRANCH   6  13
BRANCH   1  26
HETATM   26  O   UNL     1      45.441 -21.074   4.479  1.00  0.00    -0.356 OA
HETATM   27  C   UNL     1      44.917 -22.241   5.100  1.00  0.00     0.210 C 
ENDBRANCH   1  26
TORSDOF 4
ENDMDL
MODEL 3
REMARK VINA RESULT:      -8.3      2.489      4.261
REMARK  4 active torsions:
REMARK  status: ('A' for Active; 'I' for Inactive)
REMARK    1  A    between atoms: O_2  and  C_3 
REMARK    2  A    between atoms: C_8  and  C_9 
REMARK    3  A    between atoms: N_11  and  C_12 
REMARK    4  A    between atoms: C_12  and  C_13 
ROOT
HETATM    1  C   UNL     1      39.429 -12.231   5.437  1.00  0.00     0.069 A 
HETATM    2  C   UNL     1      39.429 -12.366   4.051  1.00  0.00     0.056 A 
HETATM    3  C   UNL     1      39.832 -13.571   3.470  1.00  0.00     0.063 A 
HETATM    4  C   UNL     1      40.242 -14.657   4.246  1.00  0.00     0.074 A 
HETATM    5  N   UNL     1      40.670 -15.873   3.684  1.00  0.00    -0.234 NA
HETATM    6  C   UNL     1      40.664 -15.983   2.395  1.00  0.00     0.113 A 
HETATM    7  N   UNL     1      40.253 -14.971   1.567  1.00  0.00    -0.310 N 
HETATM    8  C   UNL     1      39.852 -13.739   2.011  1.00  0.00     0.259 A 
HETATM    9  O   UNL     1      39.551 -12.837   1.240  1.00  0.00    -0.267 OA
HETATM   10  C   UNL     1      40.237 -14.513   5.634  1.00  0.00     0.035 A 
HETATM   11  C   UNL     1      39.833 -13.309   6.229  1.00  0.00     0.039 A 
HETATM   12  H   UNL     1      40.284 -15.068   0.559  1.00  0.00     0.170 HD
ENDROOT
BRANCH   6  13
HETATM   13  C   UNL     1      41.138 -17.275   1.741  1.00  0.00     0.082 C 
HETATM   14  C   UNL     1      41.738 -18.223   2.764  1.00  0.00     0.139 C 
HETATM   15  N   UNL     1      43.132 -17.847   2.772  1.00  0.00    -0.347 N 
HETATM   16  C   UNL     1      43.520 -17.278   1.569  1.00  0.00     0.220 C 
HETATM   17  O   UNL     1      44.656 -16.993   1.230  1.00  0.00    -0.273 OA
HETATM   18  C   UNL     1      42.275 -17.034   0.746  1.00  0.00     0.117 C 
BRANCH  15  19
HETATM   19  C   UNL     1      44.064 -18.316   3.779  1.00  0.00     0.164 C 
BRANCH  19  20
HETATM   20  C   UNL     1      44.296 -19.803   3.729  1.00  0.00    -0.040 A 
HETATM   21  C   UNL     1      44.625 -20.504   4.898  1.00  0.00     0.009 A 
HETATM   22  C   UNL     1      44.814 -21.886   4.867  1.00  0.00     0.001 A 
HETATM   23  C   UNL     1      44.689 -22.579   3.664  1.00  0.00     0.000 A 
HETATM   24  C   UNL     1      44.380 -21.891   2.493  1.00  0.00     0.001 A 
HETATM   25  C   UNL     1      44.185 -20.509   2.522  1.00  0.00     0.009 A 
ENDBRANCH  19  20
ENDBRANCH  15  19
ENDBRANCH   6  13
BRANCH   1  26
HETATM   26  O   UNL     1      39.020 -11.008   5.890  1.00  0.00    -0.356 OA
HETATM   27  C   UNL     1      39.067  -9.926   4.969  1.00  0.00     0.210 C 
ENDBRANCH   1  26
TORSDOF 4
ENDMDL
MODEL 4
REMARK VINA RESULT:      -8.1      2.606      4.605
REMARK  4 active torsions:
REMARK  status: ('A' for Active; 'I' for Inactive)
REMARK    1  A    between atoms: O_2  and  C_3 
REMARK    2  A    between atoms: C_8  and  C_9 
REMARK    3  A    between atoms: N_11  and  C_12 
REMARK    4  A    between atoms: C_12  and  C_13 
ROOT
HETATM    1  C   UNL     1      41.054 -11.158   6.719  1.00  0.00     0.069 A 
HETATM    2  C   UNL     1      42.079 -12.054   6.425  1.00  0.00     0.056 A 
HETATM    3  C   UNL     1      41.784 -13.265   5.795  1.00  0.00     0.063 A 
HETATM    4  C   UNL     1      40.476 -13.610   5.448  1.00  0.00     0.074 A 
HETATM    5  N   UNL     1      40.152 -14.831   4.830  1.00  0.00    -0.234 NA
HETATM    6  C   UNL     1      41.116 -15.653   4.562  1.00  0.00     0.113 A 
HETATM    7  N   UNL     1      42.427 -15.376   4.850  1.00  0.00    -0.310 N 
HETATM    8  C   UNL     1      42.843 -14.234   5.482  1.00  0.00     0.259 A 
HETATM    9  O   UNL     1      44.016 -14.047   5.779  1.00  0.00    -0.267 OA
HETATM   10  C   UNL     1      39.457 -12.705   5.744  1.00  0.00     0.035 A 
HETATM   11  C   UNL     1      39.740 -11.485   6.376  1.00  0.00     0.039 A 
HETATM   12  H   UNL     1      43.162 -16.046   4.659  1.00  0.00     0.170 HD
ENDROOT
BRANCH   6  13
HETATM   13  C   UNL     1      40.810 -16.996   3.912  1.00  0.00     0.082 C 
HETATM   14  C   UNL     1      41.995 -17.939   4.010  1.00  0.00     0.139 C 
HETATM   15  N   UNL     1      42.736 -17.651   2.805  1.00  0.00    -0.347 N 
HETATM   16  C   UNL     1      41.918 -17.156   1.802  1.00  0.00     0.220 C 
HETATM   17  O   UNL     1      42.228 -16.956   0.640  1.00  0.00    -0.273 OA
HETATM   18  C   UNL     1      40.563 -16.866   2.408  1.00  0.00     0.117 C 
BRANCH  15  19
HETATM   19  C   UNL     1      44.084 -18.138   2.578  1.00  0.00     0.164 C 
BRANCH  19  20
HETATM   20  C   UNL     1      44.217 -19.627   2.763  1.00  0.00    -0.040 A 
HETATM   21  C   UNL     1      44.775 -20.142   3.942  1.00  0.00     0.009 A 
HETATM   22  C   UNL     1      44.877 -21.520   4.135  1.00  0.00     0.001 A 
HETATM   23  C   UNL     1      44.435 -22.396   3.146  1.00  0.00     0.000 A 
HETATM   24  C   UNL     1      43.896 -21.896   1.963  1.00  0.00     0.001 A 
HETATM   25  C   UNL     1      43.787 -20.518   1.769  1.00  0.00     0.009 A 
ENDBRANCH  19  20
ENDBRANCH  15  19
ENDBRANCH   6  13
BRANCH   1  26
HETATM   26  O   UNL     1      41.462 -10.010   7.339  1.00  0.00    -0.356 OA
HETATM   27  C   UNL     1      42.094 -10.145   8.605  1.00  0.00     0.210 C 
ENDBRANCH   1  26
TORSDOF 4
ENDMDL
MODEL 5
REMARK VINA RESULT:      -8.0      1.831      6.090
REMARK  4 active torsions:
REMARK  status: ('A' for Active; 'I' for Inactive)
REMARK    1  A    between atoms: O_2  and  C_3 
REMARK    2  A    between atoms: C_8  and  C_9 
REMARK    3  A    between atoms: N_11  and  C_12 
REMARK    4  A    between atoms: C_12  and  C_13 
ROOT
HETATM    1  C   UNL     1      44.586 -19.993   4.698  1.00  0.00     0.069 A 
HETATM    2  C   UNL     1      44.326 -19.405   5.934  1.00  0.00     0.056 A 
HETATM    3  C   UNL     1      43.593 -18.218   5.998  1.00  0.00     0.063 A 
HETATM    4  C   UNL     1      43.109 -17.594   4.847  1.00  0.00     0.074 A 
HETATM    5  N   UNL     1      42.385 -16.388   4.885  1.00  0.00    -0.234 NA
HETATM    6  C   UNL     1      42.151 -15.855   6.041  1.00  0.00     0.113 A 
HETATM    7  N   UNL     1      42.572 -16.419   7.216  1.00  0.00    -0.310 N 
HETATM    8  C   UNL     1      43.313 -17.570   7.287  1.00  0.00     0.259 A 
HETATM    9  O   UNL     1      43.725 -18.013   8.350  1.00  0.00    -0.267 OA
HETATM   10  C   UNL     1      43.372 -18.191   3.614  1.00  0.00     0.035 A 
HETATM   11  C   UNL     1      44.106 -19.384   3.536  1.00  0.00     0.039 A 
HETATM   12  H   UNL     1      42.404 -15.969   8.108  1.00  0.00     0.170 HD
ENDROOT
BRANCH   6  13
HETATM   13  C   UNL     1      41.388 -14.539   6.129  1.00  0.00     0.082 C 
HETATM   14  C   UNL     1      40.094 -14.598   5.337  1.00  0.00     0.139 C 
HETATM   15  N   UNL     1      40.498 -14.146   4.027  1.00  0.00    -0.347 N 
HETATM   16  C   UNL     1      41.613 -13.324   4.085  1.00  0.00     0.220 C 
HETATM   17  O   UNL     1      42.096 -12.684   3.166  1.00  0.00    -0.273 OA
HETATM   18  C   UNL     1      42.160 -13.381   5.493  1.00  0.00     0.117 C 
BRANCH  15  19
HETATM   19  C   UNL     1      39.645 -14.266   2.859  1.00  0.00     0.164 C 
BRANCH  19  20
HETATM   20  C   UNL     1      40.256 -15.092   1.759  1.00  0.00    -0.040 A 
HETATM   21  C   UNL     1      40.591 -14.497   0.534  1.00  0.00     0.009 A 
HETATM   22  C   UNL     1      41.183 -15.249  -0.481  1.00  0.00     0.001 A 
HETATM   23  C   UNL     1      41.434 -16.605  -0.287  1.00  0.00     0.000 A 
HETATM   24  C   UNL     1      41.090 -17.212   0.918  1.00  0.00     0.001 A 
HETATM   25  C   UNL     1      40.502 -16.462   1.938  1.00  0.00     0.009 A 
ENDBRANCH  19  20
ENDBRANCH  15  19
ENDBRANCH   6  13
BRANCH   1  26
HETATM   26  O   UNL     1      45.315 -21.148   4.760  1.00  0.00    -0.356 OA
HETATM   27  C   UNL     1      44.602 -22.372   4.643  1.00  0.00     0.210 C 
ENDBRANCH   1  26
TORSDOF 4
ENDMDL
MODEL 6
REMARK VINA RESULT:      -8.0      2.398      4.022
REMARK  4 active torsions:
REMARK  status: ('A' for Active; 'I' for Inactive)
REMARK    1  A    between atoms: O_2  and  C_3 
REMARK    2  A    between atoms: C_8  and  C_9 
REMARK    3  A    between atoms: N_11  and  C_12 
REMARK    4  A    between atoms: C_12  and  C_13 
ROOT
HETATM    1  C   UNL     1      38.810 -13.457  -0.927  1.00  0.00     0.069 A 
HETATM    2  C   UNL     1      40.041 -13.038  -0.427  1.00  0.00     0.056 A 
HETATM    3  C   UNL     1      40.327 -13.187   0.932  1.00  0.00     0.063 A 
HETATM    4  C   UNL     1      39.405 -13.749   1.817  1.00  0.00     0.074 A 
HETATM    5  N   UNL     1      39.662 -13.892   3.192  1.00  0.00    -0.234 NA
HETATM    6  C   UNL     1      40.811 -13.499   3.641  1.00  0.00     0.113 A 
HETATM    7  N   UNL     1      41.777 -12.960   2.831  1.00  0.00    -0.310 N 
HETATM    8  C   UNL     1      41.613 -12.745   1.488  1.00  0.00     0.259 A 
HETATM    9  O   UNL     1      42.474 -12.204   0.807  1.00  0.00    -0.267 OA
HETATM   10  C   UNL     1      38.176 -14.168   1.307  1.00  0.00     0.035 A 
HETATM   11  C   UNL     1      37.877 -14.025  -0.056  1.00  0.00     0.039 A 
HETATM   12  H   UNL     1      42.657 -12.631   3.208  1.00  0.00     0.170 HD
ENDROOT
BRANCH   6  13
HETATM   13  C   UNL     1      41.126 -13.615   5.126  1.00  0.00     0.082 C 
HETATM   14  C   UNL     1      42.529 -14.152   5.352  1.00  0.00     0.139 C 
HETATM   15  N   UNL     1      42.323 -15.580   5.398  1.00  0.00    -0.347 N 
HETATM   16  C   UNL     1      41.037 -15.904   5.805  1.00  0.00     0.220 C 
HETATM   17  O   UNL     1      40.615 -17.016   6.071  1.00  0.00    -0.273 OA
HETATM   18  C   UNL     1      40.223 -14.630   5.830  1.00  0.00     0.117 C 
BRANCH  15  19
HETATM   19  C   UNL     1      43.417 -16.532   5.353  1.00  0.00     0.164 C 
BRANCH  19  20
HETATM   20  C   UNL     1      43.522 -17.255   4.036  1.00  0.00    -0.040 A 
HETATM   21  C   UNL     1      43.546 -18.657   4.004  1.00  0.00     0.009 A 
HETATM   22  C   UNL     1      43.616 -19.337   2.787  1.00  0.00     0.001 A 
HETATM   23  C   UNL     1      43.675 -18.621   1.592  1.00  0.00     0.000 A 
HETATM   24  C   UNL     1      43.671 -17.229   1.613  1.00  0.00     0.001 A 
HETATM   25  C   UNL     1      43.596 -16.546   2.829  1.00  0.00     0.009 A 
ENDBRANCH  19  20
ENDBRANCH  15  19
ENDBRANCH   6  13
BRANCH   1  26
HETATM   26  O   UNL     1      38.643 -13.257  -2.268  1.00  0.00    -0.356 OA
HETATM   27  C   UNL     1      39.149 -14.258  -3.142  1.00  0.00     0.210 C 
ENDBRANCH   1  26
TORSDOF 4
ENDMDL
MODEL 7
REMARK VINA RESULT:      -8.0      2.743      3.680
REMARK  4 active torsions:
REMARK  status: ('A' for Active; 'I' for Inactive)
REMARK    1  A    between atoms: O_2  and  C_3 
REMARK    2  A    between atoms: C_8  and  C_9 
REMARK    3  A    between atoms: N_11  and  C_12 
REMARK    4  A    between atoms: C_12  and  C_13 
ROOT
HETATM    1  C   UNL     1      41.346 -14.612  -1.661  1.00  0.00     0.069 A 
HETATM    2  C   UNL     1      41.702 -13.493  -0.911  1.00  0.00     0.056 A 
HETATM    3  C   UNL     1      41.783 -13.586   0.480  1.00  0.00     0.063 A 
HETATM    4  C   UNL     1      41.513 -14.780   1.151  1.00  0.00     0.074 A 
HETATM    5  N   UNL     1      41.570 -14.894   2.552  1.00  0.00    -0.234 NA
HETATM    6  C   UNL     1      41.903 -13.846   3.234  1.00  0.00     0.113 A 
HETATM    7  N   UNL     1      42.206 -12.645   2.647  1.00  0.00    -0.310 N 
HETATM    8  C   UNL     1      42.146 -12.420   1.297  1.00  0.00     0.259 A 
HETATM    9  O   UNL     1      42.363 -11.318   0.812  1.00  0.00    -0.267 OA
HETATM   10  C   UNL     1      41.159 -15.896   0.392  1.00  0.00     0.035 A 
HETATM   11  C   UNL     1      41.075 -15.816  -1.006  1.00  0.00     0.039 A 
HETATM   12  H   UNL     1      42.435 -11.830   3.202  1.00  0.00     0.170 HD
ENDROOT
BRANCH   6  13
HETATM   13  C   UNL     1      41.958 -13.916   4.755  1.00  0.00     0.082 C 
HETATM   14  C   UNL     1      43.242 -14.573   5.231  1.00  0.00     0.139 C 
HETATM   15  N   UNL     1      42.885 -15.970   5.291  1.00  0.00    -0.347 N 
HETATM   16  C   UNL     1      41.524 -16.148   5.488  1.00  0.00     0.220 C 
HETATM   17  O   UNL     1      40.952 -17.200   5.717  1.00  0.00    -0.273 OA
HETATM   18  C   UNL     1      40.852 -14.803   5.332  1.00  0.00     0.117 C 
BRANCH  15  19
HETATM   19  C   UNL     1      43.868 -17.024   5.463  1.00  0.00     0.164 C 
BRANCH  19  20
HETATM   20  C   UNL     1      43.908 -17.994   4.312  1.00  0.00    -0.040 A 
HETATM   21  C   UNL     1      43.602 -17.558   3.014  1.00  0.00     0.009 A 
HETATM   22  C   UNL     1      43.664 -18.443   1.937  1.00  0.00     0.001 A 
HETATM   23  C   UNL     1      44.019 -19.774   2.148  1.00  0.00     0.000 A 
HETATM   24  C   UNL     1      44.307 -20.222   3.435  1.00  0.00     0.001 A 
HETATM   25  C   UNL     1      44.251 -19.338   4.514  1.00  0.00     0.009 A 
ENDBRANCH  19  20
ENDBRANCH  15  19
ENDBRANCH   6  13
BRANCH   1  26
HETATM   26  O   UNL     1      41.295 -14.399  -3.010  1.00  0.00    -0.356 OA
HETATM   27  C   UNL     1      40.011 -14.398  -3.620  1.00  0.00     0.210 C 
ENDBRANCH   1  26
TORSDOF 4
ENDMDL
MODEL 8
REMARK VINA RESULT:      -7.9      2.665      3.586
REMARK  4 active torsions:
REMARK  status: ('A' for Active; 'I' for Inactive)
REMARK    1  A    between atoms: O_2  and  C_3 
REMARK    2  A    between atoms: C_8  and  C_9 
REMARK    3  A    between atoms: N_11  and  C_12 
REMARK    4  A    between atoms: C_12  and  C_13 
ROOT
HETATM    1  C   UNL     1      38.623 -10.776   4.318  1.00  0.00     0.069 A 
HETATM    2  C   UNL     1      39.461 -10.807   5.430  1.00  0.00     0.056 A 
HETATM    3  C   UNL     1      40.536 -11.698   5.466  1.00  0.00     0.063 A 
HETATM    4  C   UNL     1      40.799 -12.572   4.410  1.00  0.00     0.074 A 
HETATM    5  N   UNL     1      41.863 -13.491   4.431  1.00  0.00    -0.234 NA
HETATM    6  C   UNL     1      42.634 -13.506   5.471  1.00  0.00     0.113 A 
HETATM    7  N   UNL     1      42.455 -12.663   6.538  1.00  0.00    -0.310 N 
HETATM    8  C   UNL     1      41.430 -11.759   6.631  1.00  0.00     0.259 A 
HETATM    9  O   UNL     1      41.265 -11.065   7.625  1.00  0.00    -0.267 OA
HETATM   10  C   UNL     1      39.956 -12.533   3.299  1.00  0.00     0.035 A 
HETATM   11  C   UNL     1      38.874 -11.642   3.250  1.00  0.00     0.039 A 
HETATM   12  H   UNL     1      43.051 -12.713   7.354  1.00  0.00     0.170 HD
ENDROOT
BRANCH   6  13
HETATM   13  C   UNL     1      43.787 -14.498   5.548  1.00  0.00     0.082 C 
HETATM   14  C   UNL     1      43.529 -15.711   4.671  1.00  0.00     0.139 C 
HETATM   15  N   UNL     1      42.842 -16.613   5.564  1.00  0.00    -0.347 N 
HETATM   16  C   UNL     1      43.166 -16.373   6.891  1.00  0.00     0.220 C 
HETATM   17  O   UNL     1      42.855 -17.056   7.852  1.00  0.00    -0.273 OA
HETATM   18  C   UNL     1      43.953 -15.084   6.952  1.00  0.00     0.117 C 
BRANCH  15  19
HETATM   19  C   UNL     1      42.175 -17.816   5.102  1.00  0.00     0.164 C 
BRANCH  19  20
HETATM   20  C   UNL     1      43.070 -18.720   4.297  1.00  0.00    -0.040 A 
HETATM   21  C   UNL     1      44.070 -19.469   4.934  1.00  0.00     0.009 A 
HETATM   22  C   UNL     1      44.886 -20.331   4.199  1.00  0.00     0.001 A 
HETATM   23  C   UNL     1      44.718 -20.443   2.821  1.00  0.00     0.000 A 
HETATM   24  C   UNL     1      43.740 -19.691   2.174  1.00  0.00     0.001 A 
HETATM   25  C   UNL     1      42.919 -18.831   2.907  1.00  0.00     0.009 A 
ENDBRANCH  19  20
ENDBRANCH  15  19
ENDBRANCH   6  13
BRANCH   1  26
HETATM   26  O   UNL     1      37.605  -9.868   4.397  1.00  0.00    -0.356 OA
HETATM   27  C   UNL     1      37.077  -9.376   3.172  1.00  0.00     0.210 C 
ENDBRANCH   1  26
TORSDOF 4
ENDMDL
MODEL 9
REMARK VINA RESULT:      -7.9      2.837      7.586
REMARK  4 active torsions:
REMARK  status: ('A' for Active; 'I' for Inactive)
REMARK    1  A    between atoms: O_2  and  C_3 
REMARK    2  A    between atoms: C_8  and  C_9 
REMARK    3  A    between atoms: N_11  and  C_12 
REMARK    4  A    between atoms: C_12  and  C_13 
ROOT
HETATM    1  C   UNL     1      44.265 -19.721   4.176  1.00  0.00     0.069 A 
HETATM    2  C   UNL     1      43.319 -18.921   4.812  1.00  0.00     0.056 A 
HETATM    3  C   UNL     1      42.457 -18.127   4.051  1.00  0.00     0.063 A 
HETATM    4  C   UNL     1      42.517 -18.109   2.657  1.00  0.00     0.074 A 
HETATM    5  N   UNL     1      41.672 -17.305   1.870  1.00  0.00    -0.234 NA
HETATM    6  C   UNL     1      40.798 -16.567   2.476  1.00  0.00     0.113 A 
HETATM    7  N   UNL     1      40.662 -16.547   3.840  1.00  0.00    -0.310 N 
HETATM    8  C   UNL     1      41.456 -17.265   4.695  1.00  0.00     0.259 A 
HETATM    9  O   UNL     1      41.348 -17.176   5.911  1.00  0.00    -0.267 OA
HETATM   10  C   UNL     1      43.466 -18.916   2.029  1.00  0.00     0.035 A 
HETATM   11  C   UNL     1      44.336 -19.719   2.781  1.00  0.00     0.039 A 
HETATM   12  H   UNL     1      39.991 -15.940   4.294  1.00  0.00     0.170 HD
ENDROOT
BRANCH   6  13
HETATM   13  C   UNL     1      39.876 -15.664   1.667  1.00  0.00     0.082 C 
HETATM   14  C   UNL     1      40.616 -15.015   0.510  1.00  0.00     0.139 C 
HETATM   15  N   UNL     1      41.116 -13.793   1.094  1.00  0.00    -0.347 N 
HETATM   16  C   UNL     1      40.336 -13.372   2.160  1.00  0.00     0.220 C 
HETATM   17  O   UNL     1      40.426 -12.312   2.755  1.00  0.00    -0.273 OA
HETATM   18  C   UNL     1      39.361 -14.480   2.488  1.00  0.00     0.117 C 
BRANCH  15  19
HETATM   19  C   UNL     1      42.097 -12.953   0.432  1.00  0.00     0.164 C 
BRANCH  19  20
HETATM   20  C   UNL     1      41.686 -12.538  -0.956  1.00  0.00    -0.040 A 
HETATM   21  C   UNL     1      42.471 -12.900  -2.060  1.00  0.00     0.009 A 
HETATM   22  C   UNL     1      42.083 -12.544  -3.352  1.00  0.00     0.001 A 
HETATM   23  C   UNL     1      40.915 -11.812  -3.552  1.00  0.00     0.000 A 
HETATM   24  C   UNL     1      40.136 -11.431  -2.462  1.00  0.00     0.001 A 
HETATM   25  C   UNL     1      40.519 -11.790  -1.168  1.00  0.00     0.009 A 
ENDBRANCH  19  20
ENDBRANCH  15  19
ENDBRANCH   6  13
BRANCH   1  26
HETATM   26  O   UNL     1      45.054 -20.450   5.021  1.00  0.00    -0.356 OA
HETATM   27  C   UNL     1      44.721 -21.820   5.201  1.00  0.00     0.210 C 
ENDBRANCH   1  26
TORSDOF 4
ENDMDL
MODEL 10
REMARK VINA RESULT:      -7.9      2.191      6.120
REMARK  4 active torsions:
REMARK  status: ('A' for Active; 'I' for Inactive)
REMARK    1  A    between atoms: O_2  and  C_3 
REMARK    2  A    between atoms: C_8  and  C_9 
REMARK    3  A    between atoms: N_11  and  C_12 
REMARK    4  A    between atoms: C_12  and  C_13 
ROOT
HETATM    1  C   UNL     1      44.503 -21.543   3.261  1.00  0.00     0.069 A 
HETATM    2  C   UNL     1      43.910 -20.347   2.861  1.00  0.00     0.056 A 
HETATM    3  C   UNL     1      43.668 -19.343   3.801  1.00  0.00     0.063 A 
HETATM    4  C   UNL     1      44.005 -19.503   5.147  1.00  0.00     0.074 A 
HETATM    5  N   UNL     1      43.755 -18.514   6.115  1.00  0.00    -0.234 NA
HETATM    6  C   UNL     1      43.204 -17.408   5.728  1.00  0.00     0.113 A 
HETATM    7  N   UNL     1      42.866 -17.167   4.421  1.00  0.00    -0.310 N 
HETATM    8  C   UNL     1      43.035 -18.076   3.410  1.00  0.00     0.259 A 
HETATM    9  O   UNL     1      42.665 -17.850   2.266  1.00  0.00    -0.267 OA
HETATM   10  C   UNL     1      44.600 -20.702   5.537  1.00  0.00     0.035 A 
HETATM   11  C   UNL     1      44.850 -21.718   4.603  1.00  0.00     0.039 A 
HETATM   12  H   UNL     1      42.409 -16.307   4.145  1.00  0.00     0.170 HD
ENDROOT
BRANCH   6  13
HETATM   13  C   UNL     1      42.895 -16.317   6.744  1.00  0.00     0.082 C 
HETATM   14  C   UNL     1      41.863 -15.340   6.209  1.00  0.00     0.139 C 
HETATM   15  N   UNL     1      42.675 -14.343   5.553  1.00  0.00    -0.347 N 
HETATM   16  C   UNL     1      43.948 -14.273   6.097  1.00  0.00     0.220 C 
HETATM   17  O   UNL     1      44.803 -13.440   5.848  1.00  0.00    -0.273 OA
HETATM   18  C   UNL     1      44.115 -15.442   7.041  1.00  0.00     0.117 C 
BRANCH  15  19
HETATM   19  C   UNL     1      42.117 -13.329   4.678  1.00  0.00     0.164 C 
BRANCH  19  20
HETATM   20  C   UNL     1      41.543 -13.892   3.405  1.00  0.00    -0.040 A 
HETATM   21  C   UNL     1      42.381 -14.157   2.312  1.00  0.00     0.009 A 
HETATM   22  C   UNL     1      41.863 -14.705   1.137  1.00  0.00     0.001 A 
HETATM   23  C   UNL     1      40.501 -14.982   1.040  1.00  0.00     0.000 A 
HETATM   24  C   UNL     1      39.655 -14.707   2.112  1.00  0.00     0.001 A 
HETATM   25  C   UNL     1      40.171 -14.163   3.290  1.00  0.00     0.009 A 
ENDBRANCH  19  20
ENDBRANCH  15  19
ENDBRANCH   6  13
BRANCH   1  26
HETATM   26  O   UNL     1      44.686 -22.451   2.256  1.00  0.00    -0.356 OA
HETATM   27  C   UNL     1      44.065 -22.172   1.008  1.00  0.00     0.210 C 
ENDBRANCH   1  26
TORSDOF 4
ENDMDL
