MODEL 1
REMARK VINA RESULT:      -8.3      0.000      0.000
REMARK  10 active torsions:
REMARK  status: ('A' for Active; 'I' for Inactive)
REMARK    1  A    between atoms: C_2  and  N_3 
REMARK    2  A    between atoms: N_3  and  N_4 
REMARK       I    between atoms: N_4  and  C_5 
REMARK    3  A    between atoms: C_5  and  C_6 
REMARK    4  A    between atoms: C_7  and  N_8 
REMARK    5  A    between atoms: C_14  and  C_15 
REMARK       I    between atoms: C_15  and  N_16 
REMARK    6  A    between atoms: N_16  and  C_17 
REMARK    7  A    between atoms: C_17  and  C_18 
REMARK    8  A    between atoms: C_18  and  C_19 
REMARK    9  A    between atoms: C_21  and  O_22 
REMARK   10  A    between atoms: C_24  and  O_25 
ROOT
HETATM    1  C   UNL     1      44.486 -15.728   6.601  1.00  0.00     0.070 C 
HETATM    2  C   UNL     1      44.338 -14.224   6.674  1.00  0.00     0.027 C 
HETATM    3  C   UNL     1      43.841 -13.507   5.644  1.00  0.00     0.100 C 
ENDROOT
BRANCH   2   4
HETATM    4  N   UNL     1      44.737 -13.666   7.882  1.00  0.00    -0.302 N 
HETATM    5  H   UNL     1      45.747 -13.499   7.978  1.00  0.00     0.186 HD
BRANCH   4   6
HETATM    6  N   UNL     1      43.964 -12.782   8.637  1.00  0.00    -0.266 N 
HETATM    7  C   UNL     1      44.657 -11.772   9.287  1.00  0.00     0.271 C 
HETATM    8  O   UNL     1      45.750 -11.349   8.925  1.00  0.00    -0.266 OA
HETATM    9  H   UNL     1      43.166 -13.192   9.123  1.00  0.00     0.190 HD
BRANCH   7  10
HETATM   10  C   UNL     1      43.981 -11.227  10.495  1.00  0.00     0.054 A 
HETATM   11  C   UNL     1      43.777 -12.003  11.656  1.00  0.00     0.021 A 
HETATM   12  C   UNL     1      43.001 -11.458  12.688  1.00  0.00     0.024 A 
HETATM   13  C   UNL     1      42.556 -10.134  12.628  1.00  0.00     0.002 A 
HETATM   14  C   UNL     1      42.848  -9.346  11.517  1.00  0.00     0.001 A 
HETATM   15  C   UNL     1      43.553  -9.892  10.447  1.00  0.00     0.019 A 
BRANCH  11  16
HETATM   16  N   UNL     1      44.156 -13.363  11.743  1.00  0.00    -0.302 NA
HETATM   17  H   UNL     1      44.335 -13.768  10.821  1.00  0.00     0.124 HD
HETATM   18  H   UNL     1      44.972 -13.502  12.337  1.00  0.00     0.124 HD
ENDBRANCH  11  16
ENDBRANCH   7  10
ENDBRANCH   4   6
ENDBRANCH   2   4
BRANCH   3  19
HETATM   19  C   UNL     1      43.361 -14.061   4.347  1.00  0.00     0.243 C 
HETATM   20  N   UNL     1      42.062 -14.509   4.414  1.00  0.00    -0.357 N 
HETATM   21  H   UNL     1      41.532 -14.407   5.268  1.00  0.00     0.162 HD
HETATM   22  O   UNL     1      44.045 -14.127   3.336  1.00  0.00    -0.269 OA
BRANCH  20  23
HETATM   23  C   UNL     1      41.392 -15.080   3.260  1.00  0.00     0.127 C 
BRANCH  23  24
HETATM   24  C   UNL     1      40.864 -16.494   3.521  1.00  0.00     0.058 C 
BRANCH  24  25
HETATM   25  C   UNL     1      41.923 -17.539   3.269  1.00  0.00    -0.054 A 
HETATM   26  C   UNL     1      42.738 -17.994   4.318  1.00  0.00     0.046 A 
HETATM   27  C   UNL     1      43.749 -18.936   4.085  1.00  0.00     0.102 A 
HETATM   28  C   UNL     1      43.949 -19.434   2.782  1.00  0.00     0.101 A 
HETATM   29  C   UNL     1      43.128 -18.988   1.741  1.00  0.00     0.040 A 
HETATM   30  C   UNL     1      42.126 -18.046   1.983  1.00  0.00     0.010 A 
BRANCH  27  31
HETATM   31  O   UNL     1      44.594 -19.422   5.052  1.00  0.00    -0.353 OA
HETATM   32  C   UNL     1      44.016 -20.127   6.141  1.00  0.00     0.210 C 
ENDBRANCH  27  31
BRANCH  28  33
HETATM   33  O   UNL     1      44.963 -20.349   2.632  1.00  0.00    -0.353 OA
HETATM   34  C   UNL     1      44.605 -21.674   2.269  1.00  0.00     0.210 C 
ENDBRANCH  28  33
ENDBRANCH  24  25
ENDBRANCH  23  24
ENDBRANCH  20  23
ENDBRANCH   3  19
TORSDOF 10
ENDMDL
MODEL 2
REMARK VINA RESULT:      -8.3      1.386      1.585
REMARK  10 active torsions:
REMARK  status: ('A' for Active; 'I' for Inactive)
REMARK    1  A    between atoms: C_2  and  N_3 
REMARK    2  A    between atoms: N_3  and  N_4 
REMARK       I    between atoms: N_4  and  C_5 
REMARK    3  A    between atoms: C_5  and  C_6 
REMARK    4  A    between atoms: C_7  and  N_8 
REMARK    5  A    between atoms: C_14  and  C_15 
REMARK       I    between atoms: C_15  and  N_16 
REMARK    6  A    between atoms: N_16  and  C_17 
REMARK    7  A    between atoms: C_17  and  C_18 
REMARK    8  A    between atoms: C_18  and  C_19 
REMARK    9  A    between atoms: C_21  and  O_22 
REMARK   10  A    between atoms: C_24  and  O_25 
ROOT
HETATM    1  C   UNL     1      42.291 -15.398   6.156  1.00  0.00     0.070 C 
HETATM    2  C   UNL     1      43.400 -14.400   5.906  1.00  0.00     0.027 C 
HETATM    3  C   UNL     1      43.699 -13.965   4.663  1.00  0.00     0.100 C 
ENDROOT
BRANCH   2   4
HETATM    4  N   UNL     1      44.056 -13.973   7.053  1.00  0.00    -0.302 N 
HETATM    5  H   UNL     1      45.064 -14.174   7.086  1.00  0.00     0.186 HD
BRANCH   4   6
HETATM    6  N   UNL     1      43.702 -12.839   7.788  1.00  0.00    -0.266 N 
HETATM    7  C   UNL     1      44.538 -12.516   8.845  1.00  0.00     0.271 C 
HETATM    8  O   UNL     1      45.717 -12.847   8.913  1.00  0.00    -0.266 OA
HETATM    9  H   UNL     1      42.701 -12.687   7.917  1.00  0.00     0.190 HD
BRANCH   7  10
HETATM   10  C   UNL     1      43.894 -11.731   9.934  1.00  0.00     0.054 A 
HETATM   11  C   UNL     1      43.906 -12.161  11.278  1.00  0.00     0.021 A 
HETATM   12  C   UNL     1      43.150 -11.438  12.210  1.00  0.00     0.024 A 
HETATM   13  C   UNL     1      42.512 -10.247  11.848  1.00  0.00     0.002 A 
HETATM   14  C   UNL     1      42.589  -9.782  10.537  1.00  0.00     0.001 A 
HETATM   15  C   UNL     1      43.273 -10.525   9.577  1.00  0.00     0.019 A 
BRANCH  11  16
HETATM   16  N   UNL     1      44.488 -13.385  11.684  1.00  0.00    -0.302 NA
HETATM   17  H   UNL     1      43.882 -13.897  12.331  1.00  0.00     0.124 HD
HETATM   18  H   UNL     1      44.724 -13.984  10.896  1.00  0.00     0.124 HD
ENDBRANCH  11  16
ENDBRANCH   7  10
ENDBRANCH   4   6
ENDBRANCH   2   4
BRANCH   3  19
HETATM   19  C   UNL     1      43.000 -14.361   3.408  1.00  0.00     0.243 C 
HETATM   20  N   UNL     1      43.484 -15.536   2.884  1.00  0.00    -0.357 N 
HETATM   21  H   UNL     1      44.209 -16.048   3.366  1.00  0.00     0.162 HD
HETATM   22  O   UNL     1      42.104 -13.710   2.890  1.00  0.00    -0.269 OA
BRANCH  20  23
HETATM   23  C   UNL     1      42.939 -16.110   1.667  1.00  0.00     0.127 C 
BRANCH  23  24
HETATM   24  C   UNL     1      42.157 -17.403   1.921  1.00  0.00     0.058 C 
BRANCH  24  25
HETATM   25  C   UNL     1      42.997 -18.430   2.641  1.00  0.00    -0.054 A 
HETATM   26  C   UNL     1      43.250 -18.304   4.016  1.00  0.00     0.046 A 
HETATM   27  C   UNL     1      44.061 -19.232   4.685  1.00  0.00     0.102 A 
HETATM   28  C   UNL     1      44.627 -20.305   3.968  1.00  0.00     0.101 A 
HETATM   29  C   UNL     1      44.363 -20.434   2.600  1.00  0.00     0.040 A 
HETATM   30  C   UNL     1      43.558 -19.502   1.942  1.00  0.00     0.010 A 
BRANCH  27  31
HETATM   31  O   UNL     1      44.365 -19.174   6.023  1.00  0.00    -0.353 OA
HETATM   32  C   UNL     1      45.044 -18.020   6.496  1.00  0.00     0.210 C 
ENDBRANCH  27  31
BRANCH  28  33
HETATM   33  O   UNL     1      45.414 -21.168   4.690  1.00  0.00    -0.353 OA
HETATM   34  C   UNL     1      44.915 -22.477   4.920  1.00  0.00     0.210 C 
ENDBRANCH  28  33
ENDBRANCH  24  25
ENDBRANCH  23  24
ENDBRANCH  20  23
ENDBRANCH   3  19
TORSDOF 10
ENDMDL
MODEL 3
REMARK VINA RESULT:      -8.3      1.998      3.348
REMARK  10 active torsions:
REMARK  status: ('A' for Active; 'I' for Inactive)
REMARK    1  A    between atoms: C_2  and  N_3 
REMARK    2  A    between atoms: N_3  and  N_4 
REMARK       I    between atoms: N_4  and  C_5 
REMARK    3  A    between atoms: C_5  and  C_6 
REMARK    4  A    between atoms: C_7  and  N_8 
REMARK    5  A    between atoms: C_14  and  C_15 
REMARK       I    between atoms: C_15  and  N_16 
REMARK    6  A    between atoms: N_16  and  C_17 
REMARK    7  A    between atoms: C_17  and  C_18 
REMARK    8  A    between atoms: C_18  and  C_19 
REMARK    9  A    between atoms: C_21  and  O_22 
REMARK   10  A    between atoms: C_24  and  O_25 
ROOT
HETATM    1  C   UNL     1      43.648 -14.235   5.520  1.00  0.00     0.070 C 
HETATM    2  C   UNL     1      43.987 -14.550   6.960  1.00  0.00     0.027 C 
HETATM    3  C   UNL     1      43.715 -15.754   7.509  1.00  0.00     0.100 C 
ENDROOT
BRANCH   2   4
HETATM    4  N   UNL     1      44.607 -13.512   7.643  1.00  0.00    -0.302 N 
HETATM    5  H   UNL     1      45.411 -13.087   7.164  1.00  0.00     0.186 HD
BRANCH   4   6
HETATM    6  N   UNL     1      43.947 -12.623   8.495  1.00  0.00    -0.266 N 
HETATM    7  C   UNL     1      44.755 -11.733   9.187  1.00  0.00     0.271 C 
HETATM    8  O   UNL     1      45.868 -11.383   8.811  1.00  0.00    -0.266 OA
HETATM    9  H   UNL     1      43.133 -12.997   8.984  1.00  0.00     0.190 HD
BRANCH   7  10
HETATM   10  C   UNL     1      44.176 -11.226  10.461  1.00  0.00     0.054 A 
HETATM   11  C   UNL     1      43.933 -12.071  11.565  1.00  0.00     0.021 A 
HETATM   12  C   UNL     1      43.251 -11.539  12.667  1.00  0.00     0.024 A 
HETATM   13  C   UNL     1      42.940 -10.177  12.730  1.00  0.00     0.002 A 
HETATM   14  C   UNL     1      43.273  -9.333  11.673  1.00  0.00     0.001 A 
HETATM   15  C   UNL     1      43.884  -9.856  10.535  1.00  0.00     0.019 A 
BRANCH  11  16
HETATM   16  N   UNL     1      44.177 -13.464  11.530  1.00  0.00    -0.302 NA
HETATM   17  H   UNL     1      45.176 -13.674  11.464  1.00  0.00     0.124 HD
HETATM   18  H   UNL     1      43.782 -13.948  12.335  1.00  0.00     0.124 HD
ENDBRANCH  11  16
ENDBRANCH   7  10
ENDBRANCH   4   6
ENDBRANCH   2   4
BRANCH   3  19
HETATM   19  C   UNL     1      43.091 -16.911   6.807  1.00  0.00     0.243 C 
HETATM   20  N   UNL     1      44.023 -17.732   6.216  1.00  0.00    -0.357 N 
HETATM   21  H   UNL     1      45.009 -17.539   6.318  1.00  0.00     0.162 HD
HETATM   22  O   UNL     1      41.887 -17.106   6.748  1.00  0.00    -0.269 OA
BRANCH  20  23
HETATM   23  C   UNL     1      43.634 -18.925   5.487  1.00  0.00     0.127 C 
BRANCH  23  24
HETATM   24  C   UNL     1      44.318 -19.034   4.120  1.00  0.00     0.058 C 
BRANCH  24  25
HETATM   25  C   UNL     1      43.566 -18.266   3.060  1.00  0.00    -0.054 A 
HETATM   26  C   UNL     1      42.309 -17.708   3.341  1.00  0.00     0.046 A 
HETATM   27  C   UNL     1      41.587 -17.027   2.352  1.00  0.00     0.102 A 
HETATM   28  C   UNL     1      42.131 -16.900   1.058  1.00  0.00     0.101 A 
HETATM   29  C   UNL     1      43.389 -17.446   0.783  1.00  0.00     0.040 A 
HETATM   30  C   UNL     1      44.098 -18.127   1.775  1.00  0.00     0.010 A 
BRANCH  27  31
HETATM   31  O   UNL     1      40.350 -16.463   2.543  1.00  0.00    -0.353 OA
HETATM   32  C   UNL     1      40.275 -15.291   3.341  1.00  0.00     0.210 C 
ENDBRANCH  27  31
BRANCH  28  33
HETATM   33  O   UNL     1      41.362 -16.225   0.141  1.00  0.00    -0.353 OA
HETATM   34  C   UNL     1      41.694 -14.871  -0.127  1.00  0.00     0.210 C 
ENDBRANCH  28  33
ENDBRANCH  24  25
ENDBRANCH  23  24
ENDBRANCH  20  23
ENDBRANCH   3  19
TORSDOF 10
ENDMDL
MODEL 4
REMARK VINA RESULT:      -8.0      2.621     10.565
REMARK  10 active torsions:
REMARK  status: ('A' for Active; 'I' for Inactive)
REMARK    1  A    between atoms: C_2  and  N_3 
REMARK    2  A    between atoms: N_3  and  N_4 
REMARK       I    between atoms: N_4  and  C_5 
REMARK    3  A    between atoms: C_5  and  C_6 
REMARK    4  A    between atoms: C_7  and  N_8 
REMARK    5  A    between atoms: C_14  and  C_15 
REMARK       I    between atoms: C_15  and  N_16 
REMARK    6  A    between atoms: N_16  and  C_17 
REMARK    7  A    between atoms: C_17  and  C_18 
REMARK    8  A    between atoms: C_18  and  C_19 
REMARK    9  A    between atoms: C_21  and  O_22 
REMARK   10  A    between atoms: C_24  and  O_25 
ROOT
HETATM    1  C   UNL     1      43.232 -13.579   4.952  1.00  0.00     0.070 C 
HETATM    2  C   UNL     1      43.588 -14.845   5.702  1.00  0.00     0.027 C 
HETATM    3  C   UNL     1      44.442 -14.835   6.748  1.00  0.00     0.100 C 
ENDROOT
BRANCH   2   4
HETATM    4  N   UNL     1      42.953 -15.987   5.233  1.00  0.00    -0.302 N 
HETATM    5  H   UNL     1      41.941 -15.894   5.072  1.00  0.00     0.186 HD
BRANCH   4   6
HETATM    6  N   UNL     1      43.552 -16.939   4.406  1.00  0.00    -0.266 N 
HETATM    7  C   UNL     1      42.697 -17.865   3.828  1.00  0.00     0.271 C 
HETATM    8  O   UNL     1      41.502 -17.667   3.634  1.00  0.00    -0.266 OA
HETATM    9  H   UNL     1      44.472 -17.268   4.700  1.00  0.00     0.190 HD
BRANCH   7  10
HETATM   10  C   UNL     1      43.333 -19.159   3.460  1.00  0.00     0.054 A 
HETATM   11  C   UNL     1      44.162 -19.869   4.355  1.00  0.00     0.021 A 
HETATM   12  C   UNL     1      44.837 -21.000   3.876  1.00  0.00     0.024 A 
HETATM   13  C   UNL     1      44.593 -21.489   2.589  1.00  0.00     0.002 A 
HETATM   14  C   UNL     1      43.697 -20.833   1.748  1.00  0.00     0.001 A 
HETATM   15  C   UNL     1      43.072 -19.664   2.179  1.00  0.00     0.019 A 
BRANCH  11  16
HETATM   16  N   UNL     1      44.486 -19.387   5.645  1.00  0.00    -0.302 NA
HETATM   17  H   UNL     1      43.814 -18.686   5.969  1.00  0.00     0.124 HD
HETATM   18  H   UNL     1      44.553 -20.134   6.334  1.00  0.00     0.124 HD
ENDBRANCH  11  16
ENDBRANCH   7  10
ENDBRANCH   4   6
ENDBRANCH   2   4
BRANCH   3  19
HETATM   19  C   UNL     1      45.115 -13.633   7.315  1.00  0.00     0.243 C 
HETATM   20  N   UNL     1      44.468 -13.143   8.426  1.00  0.00    -0.357 N 
HETATM   21  H   UNL     1      43.655 -13.616   8.791  1.00  0.00     0.162 HD
HETATM   22  O   UNL     1      46.121 -13.125   6.842  1.00  0.00    -0.269 OA
BRANCH  20  23
HETATM   23  C   UNL     1      44.959 -11.980   9.142  1.00  0.00     0.127 C 
BRANCH  23  24
HETATM   24  C   UNL     1      44.726 -12.073  10.654  1.00  0.00     0.058 C 
BRANCH  24  25
HETATM   25  C   UNL     1      43.549 -11.234  11.088  1.00  0.00    -0.054 A 
HETATM   26  C   UNL     1      43.089 -11.286  12.414  1.00  0.00     0.046 A 
HETATM   27  C   UNL     1      41.973 -10.540  12.817  1.00  0.00     0.102 A 
HETATM   28  C   UNL     1      41.305  -9.726  11.880  1.00  0.00     0.101 A 
HETATM   29  C   UNL     1      41.772  -9.668  10.562  1.00  0.00     0.040 A 
HETATM   30  C   UNL     1      42.882 -10.418  10.170  1.00  0.00     0.010 A 
BRANCH  27  31
HETATM   31  O   UNL     1      41.456 -10.543  14.089  1.00  0.00    -0.353 OA
HETATM   32  C   UNL     1      42.194  -9.878  15.104  1.00  0.00     0.210 C 
ENDBRANCH  27  31
BRANCH  28  33
HETATM   33  O   UNL     1      40.217  -9.031  12.347  1.00  0.00    -0.353 OA
HETATM   34  C   UNL     1      38.928  -9.522  12.013  1.00  0.00     0.210 C 
ENDBRANCH  28  33
ENDBRANCH  24  25
ENDBRANCH  23  24
ENDBRANCH  20  23
ENDBRANCH   3  19
TORSDOF 10
ENDMDL
MODEL 5
REMARK VINA RESULT:      -7.9      1.979      2.390
REMARK  10 active torsions:
REMARK  status: ('A' for Active; 'I' for Inactive)
REMARK    1  A    between atoms: C_2  and  N_3 
REMARK    2  A    between atoms: N_3  and  N_4 
REMARK       I    between atoms: N_4  and  C_5 
REMARK    3  A    between atoms: C_5  and  C_6 
REMARK    4  A    between atoms: C_7  and  N_8 
REMARK    5  A    between atoms: C_14  and  C_15 
REMARK       I    between atoms: C_15  and  N_16 
REMARK    6  A    between atoms: N_16  and  C_17 
REMARK    7  A    between atoms: C_17  and  C_18 
REMARK    8  A    between atoms: C_18  and  C_19 
REMARK    9  A    between atoms: C_21  and  O_22 
REMARK   10  A    between atoms: C_24  and  O_25 
ROOT
HETATM    1  C   UNL     1      43.228 -13.831   5.905  1.00  0.00     0.070 C 
HETATM    2  C   UNL     1      41.806 -13.313   5.862  1.00  0.00     0.027 C 
HETATM    3  C   UNL     1      40.796 -14.051   5.354  1.00  0.00     0.100 C 
ENDROOT
BRANCH   2   4
HETATM    4  N   UNL     1      41.642 -12.043   6.399  1.00  0.00    -0.302 N 
HETATM    5  H   UNL     1      41.034 -11.412   5.861  1.00  0.00     0.186 HD
BRANCH   4   6
HETATM    6  N   UNL     1      41.652 -11.757   7.766  1.00  0.00    -0.266 N 
HETATM    7  C   UNL     1      42.121 -10.501   8.120  1.00  0.00     0.271 C 
HETATM    8  O   UNL     1      42.108  -9.529   7.372  1.00  0.00    -0.266 OA
HETATM    9  H   UNL     1      41.885 -12.536   8.382  1.00  0.00     0.190 HD
BRANCH   7  10
HETATM   10  C   UNL     1      42.673 -10.406   9.499  1.00  0.00     0.054 A 
HETATM   11  C   UNL     1      43.667 -11.288   9.973  1.00  0.00     0.021 A 
HETATM   12  C   UNL     1      44.021 -11.220  11.327  1.00  0.00     0.024 A 
HETATM   13  C   UNL     1      43.503 -10.219  12.154  1.00  0.00     0.002 A 
HETATM   14  C   UNL     1      42.594  -9.293  11.648  1.00  0.00     0.001 A 
HETATM   15  C   UNL     1      42.172  -9.388  10.324  1.00  0.00     0.019 A 
BRANCH  11  16
HETATM   16  N   UNL     1      44.180 -12.352   9.194  1.00  0.00    -0.302 NA
HETATM   17  H   UNL     1      45.130 -12.608   9.478  1.00  0.00     0.124 HD
HETATM   18  H   UNL     1      43.585 -13.177   9.223  1.00  0.00     0.124 HD
ENDBRANCH  11  16
ENDBRANCH   7  10
ENDBRANCH   4   6
ENDBRANCH   2   4
BRANCH   3  19
HETATM   19  C   UNL     1      40.913 -15.431   4.806  1.00  0.00     0.243 C 
HETATM   20  N   UNL     1      41.072 -15.443   3.440  1.00  0.00    -0.357 N 
HETATM   21  H   UNL     1      41.135 -14.576   2.927  1.00  0.00     0.162 HD
HETATM   22  O   UNL     1      40.860 -16.444   5.488  1.00  0.00    -0.269 OA
BRANCH  20  23
HETATM   23  C   UNL     1      41.215 -16.684   2.700  1.00  0.00     0.127 C 
BRANCH  23  24
HETATM   24  C   UNL     1      42.631 -16.887   2.151  1.00  0.00     0.058 C 
BRANCH  24  25
HETATM   25  C   UNL     1      43.312 -18.072   2.792  1.00  0.00    -0.054 A 
HETATM   26  C   UNL     1      43.705 -18.024   4.139  1.00  0.00     0.046 A 
HETATM   27  C   UNL     1      44.372 -19.105   4.732  1.00  0.00     0.102 A 
HETATM   28  C   UNL     1      44.650 -20.255   3.966  1.00  0.00     0.101 A 
HETATM   29  C   UNL     1      44.246 -20.305   2.627  1.00  0.00     0.040 A 
HETATM   30  C   UNL     1      43.586 -19.221   2.045  1.00  0.00     0.010 A 
BRANCH  27  31
HETATM   31  O   UNL     1      44.798 -19.133   6.037  1.00  0.00    -0.353 OA
HETATM   32  C   UNL     1      45.220 -17.909   6.620  1.00  0.00     0.210 C 
ENDBRANCH  27  31
BRANCH  28  33
HETATM   33  O   UNL     1      45.311 -21.269   4.614  1.00  0.00    -0.353 OA
HETATM   34  C   UNL     1      44.732 -22.564   4.574  1.00  0.00     0.210 C 
ENDBRANCH  28  33
ENDBRANCH  24  25
ENDBRANCH  23  24
ENDBRANCH  20  23
ENDBRANCH   3  19
TORSDOF 10
ENDMDL
MODEL 6
REMARK VINA RESULT:      -7.7      2.298      3.102
REMARK  10 active torsions:
REMARK  status: ('A' for Active; 'I' for Inactive)
REMARK    1  A    between atoms: C_2  and  N_3 
REMARK    2  A    between atoms: N_3  and  N_4 
REMARK       I    between atoms: N_4  and  C_5 
REMARK    3  A    between atoms: C_5  and  C_6 
REMARK    4  A    between atoms: C_7  and  N_8 
REMARK    5  A    between atoms: C_14  and  C_15 
REMARK       I    between atoms: C_15  and  N_16 
REMARK    6  A    between atoms: N_16  and  C_17 
REMARK    7  A    between atoms: C_17  and  C_18 
REMARK    8  A    between atoms: C_18  and  C_19 
REMARK    9  A    between atoms: C_21  and  O_22 
REMARK   10  A    between atoms: C_24  and  O_25 
ROOT
HETATM    1  C   UNL     1      42.607 -13.296   5.586  1.00  0.00     0.070 C 
HETATM    2  C   UNL     1      41.163 -13.164   6.019  1.00  0.00     0.027 C 
HETATM    3  C   UNL     1      40.288 -14.185   5.900  1.00  0.00     0.100 C 
ENDROOT
BRANCH   2   4
HETATM    4  N   UNL     1      40.836 -11.925   6.554  1.00  0.00    -0.302 N 
HETATM    5  H   UNL     1      40.020 -11.463   6.132  1.00  0.00     0.186 HD
BRANCH   4   6
HETATM    6  N   UNL     1      41.038 -11.563   7.888  1.00  0.00    -0.266 N 
HETATM    7  C   UNL     1      41.897 -10.497   8.105  1.00  0.00     0.271 C 
HETATM    8  O   UNL     1      42.129  -9.624   7.276  1.00  0.00    -0.266 OA
HETATM    9  H   UNL     1      41.064 -12.332   8.558  1.00  0.00     0.190 HD
BRANCH   7  10
HETATM   10  C   UNL     1      42.554 -10.486   9.440  1.00  0.00     0.054 A 
HETATM   11  C   UNL     1      41.865 -10.108  10.613  1.00  0.00     0.021 A 
HETATM   12  C   UNL     1      42.600  -9.983  11.800  1.00  0.00     0.024 A 
HETATM   13  C   UNL     1      43.947 -10.352  11.852  1.00  0.00     0.002 A 
HETATM   14  C   UNL     1      44.592 -10.816  10.708  1.00  0.00     0.001 A 
HETATM   15  C   UNL     1      43.900 -10.877   9.500  1.00  0.00     0.019 A 
BRANCH  11  16
HETATM   16  N   UNL     1      40.520  -9.671  10.603  1.00  0.00    -0.302 NA
HETATM   17  H   UNL     1      40.142  -9.582  11.550  1.00  0.00     0.124 HD
HETATM   18  H   UNL     1      40.401  -8.790  10.107  1.00  0.00     0.124 HD
ENDBRANCH  11  16
ENDBRANCH   7  10
ENDBRANCH   4   6
ENDBRANCH   2   4
BRANCH   3  19
HETATM   19  C   UNL     1      40.599 -15.543   5.373  1.00  0.00     0.243 C 
HETATM   20  N   UNL     1      40.613 -15.584   3.998  1.00  0.00    -0.357 N 
HETATM   21  H   UNL     1      40.462 -14.742   3.462  1.00  0.00     0.162 HD
HETATM   22  O   UNL     1      40.805 -16.520   6.078  1.00  0.00    -0.269 OA
BRANCH  20  23
HETATM   23  C   UNL     1      40.904 -16.808   3.274  1.00  0.00     0.127 C 
BRANCH  23  24
HETATM   24  C   UNL     1      42.305 -16.812   2.656  1.00  0.00     0.058 C 
BRANCH  24  25
HETATM   25  C   UNL     1      43.164 -17.913   3.229  1.00  0.00    -0.054 A 
HETATM   26  C   UNL     1      43.594 -18.976   2.418  1.00  0.00     0.046 A 
HETATM   27  C   UNL     1      44.359 -20.022   2.951  1.00  0.00     0.102 A 
HETATM   28  C   UNL     1      44.703 -20.006   4.318  1.00  0.00     0.101 A 
HETATM   29  C   UNL     1      44.284 -18.940   5.121  1.00  0.00     0.040 A 
HETATM   30  C   UNL     1      43.518 -17.904   4.581  1.00  0.00     0.010 A 
BRANCH  27  31
HETATM   31  O   UNL     1      44.809 -21.101   2.230  1.00  0.00    -0.353 OA
HETATM   32  C   UNL     1      43.848 -21.861   1.511  1.00  0.00     0.210 C 
ENDBRANCH  27  31
BRANCH  28  33
HETATM   33  O   UNL     1      45.449 -21.068   4.768  1.00  0.00    -0.353 OA
HETATM   34  C   UNL     1      44.774 -22.089   5.487  1.00  0.00     0.210 C 
ENDBRANCH  28  33
ENDBRANCH  24  25
ENDBRANCH  23  24
ENDBRANCH  20  23
ENDBRANCH   3  19
TORSDOF 10
ENDMDL
MODEL 7
REMARK VINA RESULT:      -7.7      2.809      3.199
REMARK  10 active torsions:
REMARK  status: ('A' for Active; 'I' for Inactive)
REMARK    1  A    between atoms: C_2  and  N_3 
REMARK    2  A    between atoms: N_3  and  N_4 
REMARK       I    between atoms: N_4  and  C_5 
REMARK    3  A    between atoms: C_5  and  C_6 
REMARK    4  A    between atoms: C_7  and  N_8 
REMARK    5  A    between atoms: C_14  and  C_15 
REMARK       I    between atoms: C_15  and  N_16 
REMARK    6  A    between atoms: N_16  and  C_17 
REMARK    7  A    between atoms: C_17  and  C_18 
REMARK    8  A    between atoms: C_18  and  C_19 
REMARK    9  A    between atoms: C_21  and  O_22 
REMARK   10  A    between atoms: C_24  and  O_25 
ROOT
HETATM    1  C   UNL     1      41.039 -11.051   7.034  1.00  0.00     0.070 C 
HETATM    2  C   UNL     1      39.849 -11.944   7.311  1.00  0.00     0.027 C 
HETATM    3  C   UNL     1      39.488 -12.931   6.464  1.00  0.00     0.100 C 
ENDROOT
BRANCH   2   4
HETATM    4  N   UNL     1      39.189 -11.667   8.501  1.00  0.00    -0.302 N 
HETATM    5  H   UNL     1      38.190 -11.912   8.519  1.00  0.00     0.186 HD
BRANCH   4   6
HETATM    6  N   UNL     1      39.785 -11.715   9.763  1.00  0.00    -0.266 N 
HETATM    7  C   UNL     1      39.828 -10.517  10.460  1.00  0.00     0.271 C 
HETATM    8  O   UNL     1      39.051  -9.587  10.273  1.00  0.00    -0.266 OA
HETATM    9  H   UNL     1      40.586 -12.340   9.853  1.00  0.00     0.190 HD
BRANCH   7  10
HETATM   10  C   UNL     1      40.918 -10.419  11.468  1.00  0.00     0.054 A 
HETATM   11  C   UNL     1      40.983 -11.274  12.589  1.00  0.00     0.021 A 
HETATM   12  C   UNL     1      41.957 -11.015  13.563  1.00  0.00     0.024 A 
HETATM   13  C   UNL     1      42.922 -10.023  13.366  1.00  0.00     0.002 A 
HETATM   14  C   UNL     1      42.905  -9.249  12.208  1.00  0.00     0.001 A 
HETATM   15  C   UNL     1      41.900  -9.440  11.262  1.00  0.00     0.019 A 
BRANCH  11  16
HETATM   16  N   UNL     1      40.000 -12.254  12.862  1.00  0.00    -0.302 NA
HETATM   17  H   UNL     1      39.081 -11.982  12.501  1.00  0.00     0.124 HD
HETATM   18  H   UNL     1      40.250 -13.170  12.494  1.00  0.00     0.124 HD
ENDBRANCH  11  16
ENDBRANCH   7  10
ENDBRANCH   4   6
ENDBRANCH   2   4
BRANCH   3  19
HETATM   19  C   UNL     1      40.187 -13.294   5.199  1.00  0.00     0.243 C 
HETATM   20  N   UNL     1      40.981 -14.408   5.337  1.00  0.00    -0.357 N 
HETATM   21  H   UNL     1      41.013 -14.905   6.215  1.00  0.00     0.162 HD
HETATM   22  O   UNL     1      40.081 -12.667   4.155  1.00  0.00    -0.269 OA
BRANCH  20  23
HETATM   23  C   UNL     1      41.746 -14.942   4.225  1.00  0.00     0.127 C 
BRANCH  23  24
HETATM   24  C   UNL     1      41.084 -16.166   3.584  1.00  0.00     0.058 C 
BRANCH  24  25
HETATM   25  C   UNL     1      42.065 -17.299   3.402  1.00  0.00    -0.054 A 
HETATM   26  C   UNL     1      42.993 -17.604   4.410  1.00  0.00     0.046 A 
HETATM   27  C   UNL     1      43.933 -18.630   4.235  1.00  0.00     0.102 A 
HETATM   28  C   UNL     1      43.945 -19.363   3.032  1.00  0.00     0.101 A 
HETATM   29  C   UNL     1      43.011 -19.065   2.034  1.00  0.00     0.040 A 
HETATM   30  C   UNL     1      42.082 -18.039   2.217  1.00  0.00     0.010 A 
BRANCH  27  31
HETATM   31  O   UNL     1      44.879 -18.983   5.166  1.00  0.00    -0.353 OA
HETATM   32  C   UNL     1      45.014 -18.160   6.315  1.00  0.00     0.210 C 
ENDBRANCH  27  31
BRANCH  28  33
HETATM   33  O   UNL     1      44.898 -20.347   2.931  1.00  0.00    -0.353 OA
HETATM   34  C   UNL     1      44.515 -21.576   2.333  1.00  0.00     0.210 C 
ENDBRANCH  28  33
ENDBRANCH  24  25
ENDBRANCH  23  24
ENDBRANCH  20  23
ENDBRANCH   3  19
TORSDOF 10
ENDMDL
MODEL 8
REMARK VINA RESULT:      -7.6      2.164      4.173
REMARK  10 active torsions:
REMARK  status: ('A' for Active; 'I' for Inactive)
REMARK    1  A    between atoms: C_2  and  N_3 
REMARK    2  A    between atoms: N_3  and  N_4 
REMARK       I    between atoms: N_4  and  C_5 
REMARK    3  A    between atoms: C_5  and  C_6 
REMARK    4  A    between atoms: C_7  and  N_8 
REMARK    5  A    between atoms: C_14  and  C_15 
REMARK       I    between atoms: C_15  and  N_16 
REMARK    6  A    between atoms: N_16  and  C_17 
REMARK    7  A    between atoms: C_17  and  C_18 
REMARK    8  A    between atoms: C_18  and  C_19 
REMARK    9  A    between atoms: C_21  and  O_22 
REMARK   10  A    between atoms: C_24  and  O_25 
ROOT
HETATM    1  C   UNL     1      42.923 -14.546   5.751  1.00  0.00     0.070 C 
HETATM    2  C   UNL     1      43.974 -15.126   6.673  1.00  0.00     0.027 C 
HETATM    3  C   UNL     1      44.221 -16.452   6.725  1.00  0.00     0.100 C 
ENDROOT
BRANCH   2   4
HETATM    4  N   UNL     1      44.654 -14.183   7.432  1.00  0.00    -0.302 N 
HETATM    5  H   UNL     1      45.630 -14.014   7.153  1.00  0.00     0.186 HD
BRANCH   4   6
HETATM    6  N   UNL     1      44.057 -13.071   8.030  1.00  0.00    -0.266 N 
HETATM    7  C   UNL     1      44.779 -12.469   9.049  1.00  0.00     0.271 C 
HETATM    8  O   UNL     1      45.998 -12.544   9.162  1.00  0.00    -0.266 OA
HETATM    9  H   UNL     1      43.043 -13.113   8.134  1.00  0.00     0.190 HD
BRANCH   7  10
HETATM   10  C   UNL     1      43.959 -11.716  10.036  1.00  0.00     0.054 A 
HETATM   11  C   UNL     1      43.791 -12.157  11.366  1.00  0.00     0.021 A 
HETATM   12  C   UNL     1      42.884 -11.468  12.182  1.00  0.00     0.024 A 
HETATM   13  C   UNL     1      42.264 -10.297  11.736  1.00  0.00     0.002 A 
HETATM   14  C   UNL     1      42.513  -9.817  10.452  1.00  0.00     0.001 A 
HETATM   15  C   UNL     1      43.354 -10.529   9.598  1.00  0.00     0.019 A 
BRANCH  11  16
HETATM   16  N   UNL     1      44.350 -13.364  11.847  1.00  0.00    -0.302 NA
HETATM   17  H   UNL     1      43.693 -13.877  12.442  1.00  0.00     0.124 HD
HETATM   18  H   UNL     1      44.669 -13.972  11.095  1.00  0.00     0.124 HD
ENDBRANCH  11  16
ENDBRANCH   7  10
ENDBRANCH   4   6
ENDBRANCH   2   4
BRANCH   3  19
HETATM   19  C   UNL     1      43.549 -17.498   5.903  1.00  0.00     0.243 C 
HETATM   20  N   UNL     1      44.238 -17.783   4.747  1.00  0.00    -0.357 N 
HETATM   21  H   UNL     1      45.119 -17.328   4.554  1.00  0.00     0.162 HD
HETATM   22  O   UNL     1      42.495 -18.035   6.209  1.00  0.00    -0.269 OA
BRANCH  20  23
HETATM   23  C   UNL     1      43.765 -18.779   3.803  1.00  0.00     0.127 C 
BRANCH  23  24
HETATM   24  C   UNL     1      43.825 -18.295   2.351  1.00  0.00     0.058 C 
BRANCH  24  25
HETATM   25  C   UNL     1      42.636 -17.432   2.003  1.00  0.00    -0.054 A 
HETATM   26  C   UNL     1      42.673 -16.589   0.881  1.00  0.00     0.046 A 
HETATM   27  C   UNL     1      41.589 -15.756   0.572  1.00  0.00     0.102 A 
HETATM   28  C   UNL     1      40.447 -15.766   1.398  1.00  0.00     0.101 A 
HETATM   29  C   UNL     1      40.408 -16.615   2.509  1.00  0.00     0.040 A 
HETATM   30  C   UNL     1      41.495 -17.438   2.810  1.00  0.00     0.010 A 
BRANCH  27  31
HETATM   31  O   UNL     1      41.551 -14.897  -0.499  1.00  0.00    -0.353 OA
HETATM   32  C   UNL     1      41.062 -15.402  -1.733  1.00  0.00     0.210 C 
ENDBRANCH  27  31
BRANCH  28  33
HETATM   33  O   UNL     1      39.429 -14.918   1.035  1.00  0.00    -0.353 OA
HETATM   34  C   UNL     1      39.094 -13.870   1.932  1.00  0.00     0.210 C 
ENDBRANCH  28  33
ENDBRANCH  24  25
ENDBRANCH  23  24
ENDBRANCH  20  23
ENDBRANCH   3  19
TORSDOF 10
ENDMDL
MODEL 9
REMARK VINA RESULT:      -7.4      6.679      9.679
REMARK  10 active torsions:
REMARK  status: ('A' for Active; 'I' for Inactive)
REMARK    1  A    between atoms: C_2  and  N_3 
REMARK    2  A    between atoms: N_3  and  N_4 
REMARK       I    between atoms: N_4  and  C_5 
REMARK    3  A    between atoms: C_5  and  C_6 
REMARK    4  A    between atoms: C_7  and  N_8 
REMARK    5  A    between atoms: C_14  and  C_15 
REMARK       I    between atoms: C_15  and  N_16 
REMARK    6  A    between atoms: N_16  and  C_17 
REMARK    7  A    between atoms: C_17  and  C_18 
REMARK    8  A    between atoms: C_18  and  C_19 
REMARK    9  A    between atoms: C_21  and  O_22 
REMARK   10  A    between atoms: C_24  and  O_25 
ROOT
HETATM    1  C   UNL     1      41.717 -14.983   0.175  1.00  0.00     0.070 C 
HETATM    2  C   UNL     1      41.134 -16.138   0.959  1.00  0.00     0.027 C 
HETATM    3  C   UNL     1      40.057 -15.984   1.759  1.00  0.00     0.100 C 
ENDROOT
BRANCH   2   4
HETATM    4  N   UNL     1      41.789 -17.348   0.768  1.00  0.00    -0.302 N 
HETATM    5  H   UNL     1      42.443 -17.375  -0.025  1.00  0.00     0.186 HD
BRANCH   4   6
HETATM    6  N   UNL     1      42.141 -18.225   1.796  1.00  0.00    -0.266 N 
HETATM    7  C   UNL     1      43.500 -18.386   2.018  1.00  0.00     0.271 C 
HETATM    8  O   UNL     1      44.348 -17.553   1.716  1.00  0.00    -0.266 OA
HETATM    9  H   UNL     1      41.547 -19.048   1.901  1.00  0.00     0.190 HD
BRANCH   7  10
HETATM   10  C   UNL     1      43.881 -19.679   2.650  1.00  0.00     0.054 A 
HETATM   11  C   UNL     1      44.349 -19.756   3.979  1.00  0.00     0.021 A 
HETATM   12  C   UNL     1      44.825 -20.990   4.442  1.00  0.00     0.024 A 
HETATM   13  C   UNL     1      44.715 -22.142   3.657  1.00  0.00     0.002 A 
HETATM   14  C   UNL     1      44.161 -22.070   2.381  1.00  0.00     0.001 A 
HETATM   15  C   UNL     1      43.751 -20.839   1.872  1.00  0.00     0.019 A 
BRANCH  11  16
HETATM   16  N   UNL     1      44.532 -18.614   4.793  1.00  0.00    -0.302 NA
HETATM   17  H   UNL     1      43.795 -17.919   4.646  1.00  0.00     0.124 HD
HETATM   18  H   UNL     1      44.583 -18.846   5.783  1.00  0.00     0.124 HD
ENDBRANCH  11  16
ENDBRANCH   7  10
ENDBRANCH   4   6
ENDBRANCH   2   4
BRANCH   3  19
HETATM   19  C   UNL     1      39.296 -14.720   1.964  1.00  0.00     0.243 C 
HETATM   20  N   UNL     1      38.330 -14.526   1.004  1.00  0.00    -0.357 N 
HETATM   21  H   UNL     1      38.176 -15.221   0.289  1.00  0.00     0.162 HD
HETATM   22  O   UNL     1      39.511 -13.932   2.873  1.00  0.00    -0.269 OA
BRANCH  20  23
HETATM   23  C   UNL     1      37.465 -13.360   1.018  1.00  0.00     0.127 C 
BRANCH  23  24
HETATM   24  C   UNL     1      37.206 -12.798  -0.383  1.00  0.00     0.058 C 
BRANCH  24  25
HETATM   25  C   UNL     1      38.469 -12.762  -1.210  1.00  0.00    -0.054 A 
HETATM   26  C   UNL     1      38.703 -13.735  -2.193  1.00  0.00     0.046 A 
HETATM   27  C   UNL     1      39.889 -13.732  -2.940  1.00  0.00     0.102 A 
HETATM   28  C   UNL     1      40.859 -12.737  -2.700  1.00  0.00     0.101 A 
HETATM   29  C   UNL     1      40.617 -11.761  -1.728  1.00  0.00     0.040 A 
HETATM   30  C   UNL     1      39.434 -11.776  -0.987  1.00  0.00     0.010 A 
BRANCH  27  31
HETATM   31  O   UNL     1      40.199 -14.653  -3.910  1.00  0.00    -0.353 OA
HETATM   32  C   UNL     1      39.451 -15.860  -3.937  1.00  0.00     0.210 C 
ENDBRANCH  27  31
BRANCH  28  33
HETATM   33  O   UNL     1      41.997 -12.803  -3.466  1.00  0.00    -0.353 OA
HETATM   34  C   UNL     1      42.352 -11.653  -4.218  1.00  0.00     0.210 C 
ENDBRANCH  28  33
ENDBRANCH  24  25
ENDBRANCH  23  24
ENDBRANCH  20  23
ENDBRANCH   3  19
TORSDOF 10
ENDMDL
MODEL 10
REMARK VINA RESULT:      -7.2      4.685      9.037
REMARK  10 active torsions:
REMARK  status: ('A' for Active; 'I' for Inactive)
REMARK    1  A    between atoms: C_2  and  N_3 
REMARK    2  A    between atoms: N_3  and  N_4 
REMARK       I    between atoms: N_4  and  C_5 
REMARK    3  A    between atoms: C_5  and  C_6 
REMARK    4  A    between atoms: C_7  and  N_8 
REMARK    5  A    between atoms: C_14  and  C_15 
REMARK       I    between atoms: C_15  and  N_16 
REMARK    6  A    between atoms: N_16  and  C_17 
REMARK    7  A    between atoms: C_17  and  C_18 
REMARK    8  A    between atoms: C_18  and  C_19 
REMARK    9  A    between atoms: C_21  and  O_22 
REMARK   10  A    between atoms: C_24  and  O_25 
ROOT
HETATM    1  C   UNL     1      41.871 -15.292   2.341  1.00  0.00     0.070 C 
HETATM    2  C   UNL     1      41.638 -15.921   0.984  1.00  0.00     0.027 C 
HETATM    3  C   UNL     1      42.424 -16.915   0.517  1.00  0.00     0.100 C 
ENDROOT
BRANCH   2   4
HETATM    4  N   UNL     1      40.555 -15.400   0.290  1.00  0.00    -0.302 N 
HETATM    5  H   UNL     1      39.633 -15.593   0.703  1.00  0.00     0.186 HD
BRANCH   4   6
HETATM    6  N   UNL     1      40.585 -14.215  -0.448  1.00  0.00    -0.266 N 
HETATM    7  C   UNL     1      41.168 -14.296  -1.703  1.00  0.00     0.271 C 
HETATM    8  O   UNL     1      41.249 -15.331  -2.356  1.00  0.00    -0.266 OA
HETATM    9  H   UNL     1      40.742 -13.362   0.089  1.00  0.00     0.190 HD
BRANCH   7  10
HETATM   10  C   UNL     1      41.720 -13.014  -2.220  1.00  0.00     0.054 A 
HETATM   11  C   UNL     1      42.380 -12.089  -1.383  1.00  0.00     0.021 A 
HETATM   12  C   UNL     1      42.735 -10.845  -1.922  1.00  0.00     0.024 A 
HETATM   13  C   UNL     1      42.564 -10.579  -3.284  1.00  0.00     0.002 A 
HETATM   14  C   UNL     1      41.999 -11.539  -4.120  1.00  0.00     0.001 A 
HETATM   15  C   UNL     1      41.570 -12.754  -3.589  1.00  0.00     0.019 A 
BRANCH  11  16
HETATM   16  N   UNL     1      42.526 -12.286   0.011  1.00  0.00    -0.302 NA
HETATM   17  H   UNL     1      41.622 -12.415   0.474  1.00  0.00     0.124 HD
HETATM   18  H   UNL     1      43.133 -13.074   0.230  1.00  0.00     0.124 HD
ENDBRANCH  11  16
ENDBRANCH   7  10
ENDBRANCH   4   6
ENDBRANCH   2   4
BRANCH   3  19
HETATM   19  C   UNL     1      43.570 -17.534   1.240  1.00  0.00     0.243 C 
HETATM   20  N   UNL     1      43.246 -18.750   1.796  1.00  0.00    -0.357 N 
HETATM   21  H   UNL     1      42.327 -19.144   1.659  1.00  0.00     0.162 HD
HETATM   22  O   UNL     1      44.673 -17.018   1.343  1.00  0.00    -0.269 OA
BRANCH  20  23
HETATM   23  C   UNL     1      44.218 -19.532   2.539  1.00  0.00     0.127 C 
BRANCH  23  24
HETATM   24  C   UNL     1      43.729 -19.908   3.941  1.00  0.00     0.058 C 
BRANCH  24  25
HETATM   25  C   UNL     1      43.842 -18.748   4.900  1.00  0.00    -0.054 A 
HETATM   26  C   UNL     1      42.798 -17.817   5.017  1.00  0.00     0.046 A 
HETATM   27  C   UNL     1      42.911 -16.715   5.877  1.00  0.00     0.102 A 
HETATM   28  C   UNL     1      44.086 -16.542   6.634  1.00  0.00     0.101 A 
HETATM   29  C   UNL     1      45.121 -17.478   6.524  1.00  0.00     0.040 A 
HETATM   30  C   UNL     1      45.000 -18.569   5.662  1.00  0.00     0.010 A 
BRANCH  27  31
HETATM   31  O   UNL     1      41.942 -15.756   6.040  1.00  0.00    -0.353 OA
HETATM   32  C   UNL     1      40.588 -16.183   6.063  1.00  0.00     0.210 C 
ENDBRANCH  27  31
BRANCH  28  33
HETATM   33  O   UNL     1      44.125 -15.437   7.448  1.00  0.00    -0.353 OA
HETATM   34  C   UNL     1      44.862 -14.311   6.995  1.00  0.00     0.210 C 
ENDBRANCH  28  33
ENDBRANCH  24  25
ENDBRANCH  23  24
ENDBRANCH  20  23
ENDBRANCH   3  19
TORSDOF 10
ENDMDL
