MODEL 1
REMARK VINA RESULT:     -10.2      0.000      0.000
REMARK  7 active torsions:
REMARK  status: ('A' for Active; 'I' for Inactive)
REMARK    1  A    between atoms: C_4  and  N_5 
REMARK    2  A    between atoms: N_8  and  C_10 
REMARK    3  A    between atoms: C_10  and  C_11 
REMARK    4  A    between atoms: C_11  and  C_12 
REMARK    5  A    between atoms: C_12  and  C_13 
REMARK    6  A    between atoms: C_13  and  N_14 
REMARK       I    between atoms: N_14  and  C_15 
REMARK    7  A    between atoms: C_15  and  C_16 
ROOT
HETATM    1  C   UNL     1      45.150 -13.249   7.965  1.00  0.00     0.123 C 
ENDROOT
BRANCH   1   2
HETATM    2  C   UNL     1      44.387 -14.330   7.199  1.00  0.00     0.021 C 
BRANCH   2   3
HETATM    3  C   UNL     1      44.079 -13.885   5.767  1.00  0.00     0.029 C 
BRANCH   3   4
HETATM    4  C   UNL     1      42.574 -13.896   5.500  1.00  0.00     0.235 C 
BRANCH   4   5
HETATM    5  N   UNL     1      42.219 -14.970   4.499  1.00  0.00    -0.068 N 
HETATM    6  C   UNL     1      43.420 -15.326   3.608  1.00  0.00     0.254 C 
HETATM    7  C   UNL     1      43.003 -16.336   2.516  1.00  0.00     0.150 C 
HETATM    8  N   UNL     1      42.378 -17.528   3.121  1.00  0.00    -0.378 N 
HETATM    9  C   UNL     1      41.251 -17.252   4.026  1.00  0.00     0.150 C 
HETATM   10  C   UNL     1      41.652 -16.251   5.130  1.00  0.00     0.254 C 
HETATM   11  H   UNL     1      41.496 -14.597   3.872  1.00  0.00     0.280 HD
BRANCH   8  12
HETATM   12  C   UNL     1      43.151 -18.680   3.258  1.00  0.00     0.030 A 
HETATM   13  C   UNL     1      43.197 -19.697   2.289  1.00  0.00     0.036 A 
HETATM   14  C   UNL     1      44.002 -20.842   2.441  1.00  0.00    -0.060 A 
HETATM   15  C   UNL     1      44.060 -21.892   1.368  1.00  0.00     0.048 C 
HETATM   16  C   UNL     1      44.801 -20.970   3.576  1.00  0.00     0.007 A 
HETATM   17  C   UNL     1      44.790 -19.975   4.545  1.00  0.00     0.003 A 
HETATM   18  C   UNL     1      43.978 -18.848   4.382  1.00  0.00     0.029 A 
ENDBRANCH   8  12
ENDBRANCH   4   5
ENDBRANCH   3   4
ENDBRANCH   2   3
ENDBRANCH   1   2
BRANCH   1  19
HETATM   19  N   UNL     1      44.323 -12.590   8.952  1.00  0.00    -0.357 N 
HETATM   20  C   UNL     1      44.686 -11.368   9.488  1.00  0.00     0.254 C 
HETATM   21  O   UNL     1      45.665 -10.746   9.086  1.00  0.00    -0.268 OA
HETATM   22  H   UNL     1      43.451 -13.029   9.215  1.00  0.00     0.162 HD
BRANCH  20  23
HETATM   23  C   UNL     1      43.818 -10.808  10.558  1.00  0.00     0.064 A 
HETATM   24  C   UNL     1      42.453 -10.693  10.357  1.00  0.00     0.077 A 
HETATM   25  C   UNL     1      41.598 -10.177  11.335  1.00  0.00     0.065 A 
HETATM   26  N   UNL     1      41.668 -11.023   9.249  1.00  0.00    -0.330 N 
HETATM   27  N   UNL     1      40.298 -10.194  10.831  1.00  0.00    -0.331 N 
HETATM   28  C   UNL     1      42.053  -9.740  12.555  1.00  0.00     0.074 A 
HETATM   29  C   UNL     1      40.336 -10.711   9.530  1.00  0.00     0.176 A 
HETATM   30  H   UNL     1      39.462  -9.871  11.297  1.00  0.00     0.168 HD
HETATM   31  S   UNL     1      39.051 -10.909   8.520  1.00  0.00    -0.041 SA
HETATM   32  C   UNL     1      43.427  -9.834  12.764  1.00  0.00     0.119 A 
HETATM   33  F   UNL     1      43.938  -9.412  13.928  1.00  0.00    -0.206 F 
HETATM   34  C   UNL     1      44.307 -10.352  11.792  1.00  0.00     0.061 A 
HETATM   35  H   UNL     1      42.033 -11.377   8.372  1.00  0.00     0.168 HD
ENDBRANCH  20  23
ENDBRANCH   1  19
TORSDOF 7
ENDMDL
MODEL 2
REMARK VINA RESULT:      -9.4      1.954      2.728
REMARK  7 active torsions:
REMARK  status: ('A' for Active; 'I' for Inactive)
REMARK    1  A    between atoms: C_4  and  N_5 
REMARK    2  A    between atoms: N_8  and  C_10 
REMARK    3  A    between atoms: C_10  and  C_11 
REMARK    4  A    between atoms: C_11  and  C_12 
REMARK    5  A    between atoms: C_12  and  C_13 
REMARK    6  A    between atoms: C_13  and  N_14 
REMARK       I    between atoms: N_14  and  C_15 
REMARK    7  A    between atoms: C_15  and  C_16 
ROOT
HETATM    1  C   UNL     1      41.233 -12.013   6.021  1.00  0.00     0.123 C 
ENDROOT
BRANCH   1   2
HETATM    2  C   UNL     1      41.511 -13.407   5.457  1.00  0.00     0.021 C 
BRANCH   2   3
HETATM    3  C   UNL     1      40.259 -14.287   5.506  1.00  0.00     0.029 C 
BRANCH   3   4
HETATM    4  C   UNL     1      40.620 -15.740   5.808  1.00  0.00     0.235 C 
BRANCH   4   5
HETATM    5  N   UNL     1      41.959 -16.093   5.203  1.00  0.00    -0.068 N 
HETATM    6  C   UNL     1      42.651 -17.218   5.990  1.00  0.00     0.254 C 
HETATM    7  C   UNL     1      44.066 -17.479   5.428  1.00  0.00     0.150 C 
HETATM    8  N   UNL     1      44.008 -17.758   3.980  1.00  0.00    -0.378 N 
HETATM    9  C   UNL     1      43.313 -16.742   3.175  1.00  0.00     0.150 C 
HETATM   10  C   UNL     1      41.893 -16.474   3.716  1.00  0.00     0.254 C 
HETATM   11  H   UNL     1      42.571 -15.271   5.278  1.00  0.00     0.280 HD
BRANCH   8  12
HETATM   12  C   UNL     1      44.085 -19.086   3.560  1.00  0.00     0.030 A 
HETATM   13  C   UNL     1      44.528 -20.131   4.389  1.00  0.00     0.036 A 
HETATM   14  C   UNL     1      44.577 -21.467   3.948  1.00  0.00    -0.060 A 
HETATM   15  C   UNL     1      45.017 -22.568   4.872  1.00  0.00     0.048 C 
HETATM   16  C   UNL     1      44.152 -21.778   2.657  1.00  0.00     0.007 A 
HETATM   17  C   UNL     1      43.694 -20.770   1.819  1.00  0.00     0.003 A 
HETATM   18  C   UNL     1      43.659 -19.446   2.270  1.00  0.00     0.029 A 
ENDBRANCH   8  12
ENDBRANCH   4   5
ENDBRANCH   3   4
ENDBRANCH   2   3
ENDBRANCH   1   2
BRANCH   1  19
HETATM   19  N   UNL     1      41.712 -11.866   7.379  1.00  0.00    -0.357 N 
HETATM   20  C   UNL     1      42.053 -10.626   7.886  1.00  0.00     0.254 C 
HETATM   21  O   UNL     1      41.878  -9.591   7.249  1.00  0.00    -0.268 OA
HETATM   22  H   UNL     1      41.756 -12.691   7.962  1.00  0.00     0.162 HD
BRANCH  20  23
HETATM   23  C   UNL     1      42.616 -10.583   9.262  1.00  0.00     0.064 A 
HETATM   24  C   UNL     1      41.811 -10.230  10.331  1.00  0.00     0.077 A 
HETATM   25  C   UNL     1      42.294 -10.180  11.642  1.00  0.00     0.065 A 
HETATM   26  N   UNL     1      40.461  -9.870  10.371  1.00  0.00    -0.330 N 
HETATM   27  N   UNL     1      41.247  -9.797  12.479  1.00  0.00    -0.331 N 
HETATM   28  C   UNL     1      43.599 -10.468  11.957  1.00  0.00     0.074 A 
HETATM   29  C   UNL     1      40.106  -9.593  11.693  1.00  0.00     0.176 A 
HETATM   30  H   UNL     1      41.289  -9.659  13.478  1.00  0.00     0.168 HD
HETATM   31  S   UNL     1      38.624  -9.113  12.227  1.00  0.00    -0.041 SA
HETATM   32  C   UNL     1      44.425 -10.807  10.887  1.00  0.00     0.119 A 
HETATM   33  F   UNL     1      45.714 -11.085  11.124  1.00  0.00    -0.206 F 
HETATM   34  C   UNL     1      43.958 -10.865   9.559  1.00  0.00     0.061 A 
HETATM   35  H   UNL     1      39.867  -9.776   9.554  1.00  0.00     0.168 HD
ENDBRANCH  20  23
ENDBRANCH   1  19
TORSDOF 7
ENDMDL
MODEL 3
REMARK VINA RESULT:      -9.3      5.432      8.581
REMARK  7 active torsions:
REMARK  status: ('A' for Active; 'I' for Inactive)
REMARK    1  A    between atoms: C_4  and  N_5 
REMARK    2  A    between atoms: N_8  and  C_10 
REMARK    3  A    between atoms: C_10  and  C_11 
REMARK    4  A    between atoms: C_11  and  C_12 
REMARK    5  A    between atoms: C_12  and  C_13 
REMARK    6  A    between atoms: C_13  and  N_14 
REMARK       I    between atoms: N_14  and  C_15 
REMARK    7  A    between atoms: C_15  and  C_16 
ROOT
HETATM    1  C   UNL     1      38.743 -11.418   3.498  1.00  0.00     0.123 C 
ENDROOT
BRANCH   1   2
HETATM    2  C   UNL     1      39.067 -11.314   4.989  1.00  0.00     0.021 C 
BRANCH   2   3
HETATM    3  C   UNL     1      39.476 -12.671   5.566  1.00  0.00     0.029 C 
BRANCH   3   4
HETATM    4  C   UNL     1      40.931 -12.653   6.032  1.00  0.00     0.235 C 
BRANCH   4   5
HETATM    5  N   UNL     1      41.471 -14.059   6.148  1.00  0.00    -0.068 N 
HETATM    6  C   UNL     1      40.714 -15.028   5.224  1.00  0.00     0.254 C 
HETATM    7  C   UNL     1      41.200 -16.477   5.447  1.00  0.00     0.150 C 
HETATM    8  N   UNL     1      42.664 -16.568   5.279  1.00  0.00    -0.378 N 
HETATM    9  C   UNL     1      43.445 -15.629   6.099  1.00  0.00     0.150 C 
HETATM   10  C   UNL     1      42.980 -14.174   5.884  1.00  0.00     0.254 C 
HETATM   11  H   UNL     1      41.306 -14.388   7.107  1.00  0.00     0.280 HD
BRANCH   8  12
HETATM   12  C   UNL     1      43.160 -17.063   4.074  1.00  0.00     0.030 A 
HETATM   13  C   UNL     1      43.221 -18.434   3.771  1.00  0.00     0.036 A 
HETATM   14  C   UNL     1      43.707 -18.909   2.538  1.00  0.00    -0.060 A 
HETATM   15  C   UNL     1      43.721 -20.379   2.230  1.00  0.00     0.048 C 
HETATM   16  C   UNL     1      44.123 -17.995   1.570  1.00  0.00     0.007 A 
HETATM   17  C   UNL     1      44.061 -16.633   1.833  1.00  0.00     0.003 A 
HETATM   18  C   UNL     1      43.582 -16.179   3.066  1.00  0.00     0.029 A 
ENDBRANCH   8  12
ENDBRANCH   4   5
ENDBRANCH   3   4
ENDBRANCH   2   3
ENDBRANCH   1   2
BRANCH   1  19
HETATM   19  N   UNL     1      39.443 -12.513   2.861  1.00  0.00    -0.357 N 
HETATM   20  C   UNL     1      38.968 -13.082   1.694  1.00  0.00     0.254 C 
HETATM   21  O   UNL     1      37.995 -12.630   1.098  1.00  0.00    -0.268 OA
HETATM   22  H   UNL     1      40.312 -12.827   3.271  1.00  0.00     0.162 HD
BRANCH  20  23
HETATM   23  C   UNL     1      39.707 -14.257   1.159  1.00  0.00     0.064 A 
HETATM   24  C   UNL     1      40.347 -14.176  -0.066  1.00  0.00     0.077 A 
HETATM   25  C   UNL     1      41.057 -15.252  -0.607  1.00  0.00     0.065 A 
HETATM   26  N   UNL     1      40.437 -13.118  -0.975  1.00  0.00    -0.330 N 
HETATM   27  N   UNL     1      41.581 -14.855  -1.837  1.00  0.00    -0.331 N 
HETATM   28  C   UNL     1      41.159 -16.462   0.032  1.00  0.00     0.074 A 
HETATM   29  C   UNL     1      41.190 -13.531  -2.076  1.00  0.00     0.176 A 
HETATM   30  H   UNL     1      42.128 -15.417  -2.473  1.00  0.00     0.168 HD
HETATM   31  S   UNL     1      41.550 -12.632  -3.408  1.00  0.00    -0.041 SA
HETATM   32  C   UNL     1      40.503 -16.564   1.257  1.00  0.00     0.119 A 
HETATM   33  F   UNL     1      40.551 -17.723   1.927  1.00  0.00    -0.206 F 
HETATM   34  C   UNL     1      39.784 -15.490   1.822  1.00  0.00     0.061 A 
HETATM   35  H   UNL     1      39.975 -12.223  -0.862  1.00  0.00     0.168 HD
ENDBRANCH  20  23
ENDBRANCH   1  19
TORSDOF 7
ENDMDL
MODEL 4
REMARK VINA RESULT:      -9.1      1.964      2.445
REMARK  7 active torsions:
REMARK  status: ('A' for Active; 'I' for Inactive)
REMARK    1  A    between atoms: C_4  and  N_5 
REMARK    2  A    between atoms: N_8  and  C_10 
REMARK    3  A    between atoms: C_10  and  C_11 
REMARK    4  A    between atoms: C_11  and  C_12 
REMARK    5  A    between atoms: C_12  and  C_13 
REMARK    6  A    between atoms: C_13  and  N_14 
REMARK       I    between atoms: N_14  and  C_15 
REMARK    7  A    between atoms: C_15  and  C_16 
ROOT
HETATM    1  C   UNL     1      40.756 -11.511   6.094  1.00  0.00     0.123 C 
ENDROOT
BRANCH   1   2
HETATM    2  C   UNL     1      39.721 -12.625   5.919  1.00  0.00     0.021 C 
BRANCH   2   3
HETATM    3  C   UNL     1      40.384 -13.940   5.501  1.00  0.00     0.029 C 
BRANCH   3   4
HETATM    4  C   UNL     1      41.587 -13.684   4.594  1.00  0.00     0.235 C 
BRANCH   4   5
HETATM    5  N   UNL     1      41.701 -14.764   3.544  1.00  0.00    -0.068 N 
HETATM    6  C   UNL     1      43.170 -15.071   3.213  1.00  0.00     0.254 C 
HETATM    7  C   UNL     1      43.262 -16.088   2.054  1.00  0.00     0.150 C 
HETATM    8  N   UNL     1      42.489 -17.306   2.367  1.00  0.00    -0.378 N 
HETATM    9  C   UNL     1      41.085 -17.075   2.742  1.00  0.00     0.150 C 
HETATM   10  C   UNL     1      40.974 -16.068   3.905  1.00  0.00     0.254 C 
HETATM   11  H   UNL     1      41.278 -14.412   2.676  1.00  0.00     0.280 HD
BRANCH   8  12
HETATM   12  C   UNL     1      43.182 -18.431   2.813  1.00  0.00     0.030 A 
HETATM   13  C   UNL     1      43.339 -19.595   2.042  1.00  0.00     0.036 A 
HETATM   14  C   UNL     1      44.061 -20.711   2.506  1.00  0.00    -0.060 A 
HETATM   15  C   UNL     1      44.245 -21.925   1.640  1.00  0.00     0.048 C 
HETATM   16  C   UNL     1      44.664 -20.660   3.762  1.00  0.00     0.007 A 
HETATM   17  C   UNL     1      44.540 -19.518   4.543  1.00  0.00     0.003 A 
HETATM   18  C   UNL     1      43.813 -18.421   4.069  1.00  0.00     0.029 A 
ENDBRANCH   8  12
ENDBRANCH   4   5
ENDBRANCH   3   4
ENDBRANCH   2   3
ENDBRANCH   1   2
BRANCH   1  19
HETATM   19  N   UNL     1      41.270 -11.449   7.445  1.00  0.00    -0.357 N 
HETATM   20  C   UNL     1      41.916 -10.319   7.912  1.00  0.00     0.254 C 
HETATM   21  O   UNL     1      41.997  -9.292   7.243  1.00  0.00    -0.268 OA
HETATM   22  H   UNL     1      41.113 -12.241   8.053  1.00  0.00     0.162 HD
BRANCH  20  23
HETATM   23  C   UNL     1      42.486 -10.377   9.284  1.00  0.00     0.064 A 
HETATM   24  C   UNL     1      41.703 -10.042  10.376  1.00  0.00     0.077 A 
HETATM   25  C   UNL     1      42.195 -10.087  11.685  1.00  0.00     0.065 A 
HETATM   26  N   UNL     1      40.373  -9.620  10.444  1.00  0.00    -0.330 N 
HETATM   27  N   UNL     1      41.171  -9.698  12.548  1.00  0.00    -0.331 N 
HETATM   28  C   UNL     1      43.485 -10.454  11.974  1.00  0.00     0.074 A 
HETATM   29  C   UNL     1      40.038  -9.396  11.782  1.00  0.00     0.176 A 
HETATM   30  H   UNL     1      41.224  -9.615  13.553  1.00  0.00     0.168 HD
HETATM   31  S   UNL     1      38.585  -8.873  12.351  1.00  0.00    -0.041 SA
HETATM   32  C   UNL     1      44.289 -10.776  10.883  1.00  0.00     0.119 A 
HETATM   33  F   UNL     1      45.563 -11.130  11.095  1.00  0.00    -0.206 F 
HETATM   34  C   UNL     1      43.813 -10.740   9.556  1.00  0.00     0.061 A 
HETATM   35  H   UNL     1      39.782  -9.453   9.638  1.00  0.00     0.168 HD
ENDBRANCH  20  23
ENDBRANCH   1  19
TORSDOF 7
ENDMDL
MODEL 5
REMARK VINA RESULT:      -9.1      1.666      3.064
REMARK  7 active torsions:
REMARK  status: ('A' for Active; 'I' for Inactive)
REMARK    1  A    between atoms: C_4  and  N_5 
REMARK    2  A    between atoms: N_8  and  C_10 
REMARK    3  A    between atoms: C_10  and  C_11 
REMARK    4  A    between atoms: C_11  and  C_12 
REMARK    5  A    between atoms: C_12  and  C_13 
REMARK    6  A    between atoms: C_13  and  N_14 
REMARK       I    between atoms: N_14  and  C_15 
REMARK    7  A    between atoms: C_15  and  C_16 
ROOT
HETATM    1  C   UNL     1      45.133 -13.141   8.061  1.00  0.00     0.123 C 
ENDROOT
BRANCH   1   2
HETATM    2  C   UNL     1      44.311 -13.910   7.025  1.00  0.00     0.021 C 
BRANCH   2   3
HETATM    3  C   UNL     1      44.718 -15.384   6.975  1.00  0.00     0.029 C 
BRANCH   3   4
HETATM    4  C   UNL     1      43.668 -16.267   7.647  1.00  0.00     0.235 C 
BRANCH   4   5
HETATM    5  N   UNL     1      42.988 -17.154   6.631  1.00  0.00    -0.068 N 
HETATM    6  C   UNL     1      41.652 -16.552   6.165  1.00  0.00     0.254 C 
HETATM    7  C   UNL     1      40.919 -17.530   5.221  1.00  0.00     0.150 C 
HETATM    8  N   UNL     1      41.788 -17.913   4.091  1.00  0.00    -0.378 N 
HETATM    9  C   UNL     1      43.104 -18.451   4.470  1.00  0.00     0.150 C 
HETATM   10  C   UNL     1      43.856 -17.483   5.407  1.00  0.00     0.254 C 
HETATM   11  H   UNL     1      42.758 -18.046   7.087  1.00  0.00     0.280 HD
BRANCH   8  12
HETATM   12  C   UNL     1      41.590 -17.284   2.862  1.00  0.00     0.030 A 
HETATM   13  C   UNL     1      40.581 -16.332   2.639  1.00  0.00     0.036 A 
HETATM   14  C   UNL     1      40.413 -15.694   1.395  1.00  0.00    -0.060 A 
HETATM   15  C   UNL     1      39.351 -14.650   1.201  1.00  0.00     0.048 C 
HETATM   16  C   UNL     1      41.287 -15.994   0.350  1.00  0.00     0.007 A 
HETATM   17  C   UNL     1      42.304 -16.919   0.544  1.00  0.00     0.003 A 
HETATM   18  C   UNL     1      42.451 -17.549   1.784  1.00  0.00     0.029 A 
ENDBRANCH   8  12
ENDBRANCH   4   5
ENDBRANCH   3   4
ENDBRANCH   2   3
ENDBRANCH   1   2
BRANCH   1  19
HETATM   19  N   UNL     1      44.300 -12.505   9.059  1.00  0.00    -0.357 N 
HETATM   20  C   UNL     1      44.642 -11.278   9.598  1.00  0.00     0.254 C 
HETATM   21  O   UNL     1      45.605 -10.634   9.192  1.00  0.00    -0.268 OA
HETATM   22  H   UNL     1      43.440 -12.963   9.325  1.00  0.00     0.162 HD
BRANCH  20  23
HETATM   23  C   UNL     1      43.771 -10.742  10.678  1.00  0.00     0.064 A 
HETATM   24  C   UNL     1      42.403 -10.653  10.487  1.00  0.00     0.077 A 
HETATM   25  C   UNL     1      41.544 -10.160  11.475  1.00  0.00     0.065 A 
HETATM   26  N   UNL     1      41.616 -10.992   9.383  1.00  0.00    -0.330 N 
HETATM   27  N   UNL     1      40.241 -10.201  10.980  1.00  0.00    -0.331 N 
HETATM   28  C   UNL     1      42.000  -9.722  12.694  1.00  0.00     0.074 A 
HETATM   29  C   UNL     1      40.281 -10.708   9.675  1.00  0.00     0.176 A 
HETATM   30  H   UNL     1      39.403  -9.897  11.454  1.00  0.00     0.168 HD
HETATM   31  S   UNL     1      38.993 -10.926   8.673  1.00  0.00    -0.041 SA
HETATM   32  C   UNL     1      43.377  -9.790  12.892  1.00  0.00     0.119 A 
HETATM   33  F   UNL     1      43.888  -9.365  14.055  1.00  0.00    -0.206 F 
HETATM   34  C   UNL     1      44.260 -10.285  11.911  1.00  0.00     0.061 A 
HETATM   35  H   UNL     1      41.982 -11.333   8.501  1.00  0.00     0.168 HD
ENDBRANCH  20  23
ENDBRANCH   1  19
TORSDOF 7
ENDMDL
MODEL 6
REMARK VINA RESULT:      -9.1      2.137      3.029
REMARK  7 active torsions:
REMARK  status: ('A' for Active; 'I' for Inactive)
REMARK    1  A    between atoms: C_4  and  N_5 
REMARK    2  A    between atoms: N_8  and  C_10 
REMARK    3  A    between atoms: C_10  and  C_11 
REMARK    4  A    between atoms: C_11  and  C_12 
REMARK    5  A    between atoms: C_12  and  C_13 
REMARK    6  A    between atoms: C_13  and  N_14 
REMARK       I    between atoms: N_14  and  C_15 
REMARK    7  A    between atoms: C_15  and  C_16 
ROOT
HETATM    1  C   UNL     1      39.565 -11.370   6.917  1.00  0.00     0.123 C 
ENDROOT
BRANCH   1   2
HETATM    2  C   UNL     1      40.456 -11.699   5.718  1.00  0.00     0.021 C 
BRANCH   2   3
HETATM    3  C   UNL     1      40.934 -13.152   5.762  1.00  0.00     0.029 C 
BRANCH   3   4
HETATM    4  C   UNL     1      42.186 -13.345   4.907  1.00  0.00     0.235 C 
BRANCH   4   5
HETATM    5  N   UNL     1      41.991 -14.477   3.926  1.00  0.00    -0.068 N 
HETATM    6  C   UNL     1      43.320 -14.881   3.266  1.00  0.00     0.254 C 
HETATM    7  C   UNL     1      43.081 -15.954   2.181  1.00  0.00     0.150 C 
HETATM    8  N   UNL     1      42.357 -17.111   2.744  1.00  0.00    -0.378 N 
HETATM    9  C   UNL     1      41.100 -16.785   3.435  1.00  0.00     0.150 C 
HETATM   10  C   UNL     1      41.321 -15.720   4.529  1.00  0.00     0.254 C 
HETATM   11  H   UNL     1      41.384 -14.143   3.168  1.00  0.00     0.280 HD
BRANCH   8  12
HETATM   12  C   UNL     1      43.090 -18.251   3.073  1.00  0.00     0.030 A 
HETATM   13  C   UNL     1      43.159 -19.387   2.248  1.00  0.00     0.036 A 
HETATM   14  C   UNL     1      43.923 -20.518   2.594  1.00  0.00    -0.060 A 
HETATM   15  C   UNL     1      44.009 -21.700   1.670  1.00  0.00     0.048 C 
HETATM   16  C   UNL     1      44.657 -20.511   3.779  1.00  0.00     0.007 A 
HETATM   17  C   UNL     1      44.622 -19.398   4.608  1.00  0.00     0.003 A 
HETATM   18  C   UNL     1      43.852 -18.286   4.254  1.00  0.00     0.029 A 
ENDBRANCH   8  12
ENDBRANCH   4   5
ENDBRANCH   3   4
ENDBRANCH   2   3
ENDBRANCH   1   2
BRANCH   1  19
HETATM   19  N   UNL     1      40.242 -11.583   8.178  1.00  0.00    -0.357 N 
HETATM   20  C   UNL     1      40.701 -10.518   8.932  1.00  0.00     0.254 C 
HETATM   21  O   UNL     1      40.472  -9.353   8.619  1.00  0.00    -0.268 OA
HETATM   22  H   UNL     1      40.340 -12.531   8.513  1.00  0.00     0.162 HD
BRANCH  20  23
HETATM   23  C   UNL     1      41.460 -10.836  10.170  1.00  0.00     0.064 A 
HETATM   24  C   UNL     1      42.779 -11.249  10.090  1.00  0.00     0.077 A 
HETATM   25  C   UNL     1      43.533 -11.555  11.227  1.00  0.00     0.065 A 
HETATM   26  N   UNL     1      43.601 -11.447   8.978  1.00  0.00    -0.330 N 
HETATM   27  N   UNL     1      44.810 -11.933  10.814  1.00  0.00    -0.331 N 
HETATM   28  C   UNL     1      43.016 -11.476  12.496  1.00  0.00     0.074 A 
HETATM   29  C   UNL     1      44.856 -11.878   9.415  1.00  0.00     0.176 A 
HETATM   30  H   UNL     1      45.576 -12.226  11.403  1.00  0.00     0.168 HD
HETATM   31  S   UNL     1      46.147 -12.254   8.465  1.00  0.00    -0.041 SA
HETATM   32  C   UNL     1      41.684 -11.079  12.590  1.00  0.00     0.119 A 
HETATM   33  F   UNL     1      41.114 -10.996  13.799  1.00  0.00    -0.206 F 
HETATM   34  C   UNL     1      40.906 -10.765  11.457  1.00  0.00     0.061 A 
HETATM   35  H   UNL     1      43.301 -11.345   8.015  1.00  0.00     0.168 HD
ENDBRANCH  20  23
ENDBRANCH   1  19
TORSDOF 7
ENDMDL
MODEL 7
REMARK VINA RESULT:      -9.0      5.857      9.206
REMARK  7 active torsions:
REMARK  status: ('A' for Active; 'I' for Inactive)
REMARK    1  A    between atoms: C_4  and  N_5 
REMARK    2  A    between atoms: N_8  and  C_10 
REMARK    3  A    between atoms: C_10  and  C_11 
REMARK    4  A    between atoms: C_11  and  C_12 
REMARK    5  A    between atoms: C_12  and  C_13 
REMARK    6  A    between atoms: C_13  and  N_14 
REMARK       I    between atoms: N_14  and  C_15 
REMARK    7  A    between atoms: C_15  and  C_16 
ROOT
HETATM    1  C   UNL     1      40.226 -15.415   2.929  1.00  0.00     0.123 C 
ENDROOT
BRANCH   1   2
HETATM    2  C   UNL     1      39.802 -14.108   3.602  1.00  0.00     0.021 C 
BRANCH   2   3
HETATM    3  C   UNL     1      39.699 -14.271   5.120  1.00  0.00     0.029 C 
BRANCH   3   4
HETATM    4  C   UNL     1      40.892 -13.626   5.823  1.00  0.00     0.235 C 
BRANCH   4   5
HETATM    5  N   UNL     1      41.838 -14.682   6.346  1.00  0.00    -0.068 N 
HETATM    6  C   UNL     1      41.212 -16.084   6.267  1.00  0.00     0.254 C 
HETATM    7  C   UNL     1      42.145 -17.129   6.916  1.00  0.00     0.150 C 
HETATM    8  N   UNL     1      43.488 -17.078   6.307  1.00  0.00    -0.378 N 
HETATM    9  C   UNL     1      44.122 -15.751   6.305  1.00  0.00     0.150 C 
HETATM   10  C   UNL     1      43.208 -14.693   5.652  1.00  0.00     0.254 C 
HETATM   11  H   UNL     1      42.005 -14.497   7.343  1.00  0.00     0.280 HD
BRANCH   8  12
HETATM   12  C   UNL     1      43.816 -18.039   5.351  1.00  0.00     0.030 A 
HETATM   13  C   UNL     1      43.523 -17.897   3.984  1.00  0.00     0.036 A 
HETATM   14  C   UNL     1      43.883 -18.872   3.035  1.00  0.00    -0.060 A 
HETATM   15  C   UNL     1      43.591 -18.671   1.575  1.00  0.00     0.048 C 
HETATM   16  C   UNL     1      44.575 -20.009   3.451  1.00  0.00     0.007 A 
HETATM   17  C   UNL     1      44.893 -20.171   4.793  1.00  0.00     0.003 A 
HETATM   18  C   UNL     1      44.521 -19.196   5.724  1.00  0.00     0.029 A 
ENDBRANCH   8  12
ENDBRANCH   4   5
ENDBRANCH   3   4
ENDBRANCH   2   3
ENDBRANCH   1   2
BRANCH   1  19
HETATM   19  N   UNL     1      40.325 -15.284   1.492  1.00  0.00    -0.357 N 
HETATM   20  C   UNL     1      41.439 -14.718   0.900  1.00  0.00     0.254 C 
HETATM   21  O   UNL     1      42.427 -14.391   1.552  1.00  0.00    -0.268 OA
HETATM   22  H   UNL     1      39.572 -15.653   0.926  1.00  0.00     0.162 HD
BRANCH  20  23
HETATM   23  C   UNL     1      41.415 -14.548  -0.577  1.00  0.00     0.064 A 
HETATM   24  C   UNL     1      41.922 -13.395  -1.152  1.00  0.00     0.077 A 
HETATM   25  C   UNL     1      41.925 -13.193  -2.535  1.00  0.00     0.065 A 
HETATM   26  N   UNL     1      42.496 -12.265  -0.564  1.00  0.00    -0.330 N 
HETATM   27  N   UNL     1      42.499 -11.949  -2.793  1.00  0.00    -0.331 N 
HETATM   28  C   UNL     1      41.416 -14.116  -3.415  1.00  0.00     0.074 A 
HETATM   29  C   UNL     1      42.848 -11.362  -1.570  1.00  0.00     0.176 A 
HETATM   30  H   UNL     1      42.628 -11.516  -3.696  1.00  0.00     0.168 HD
HETATM   31  S   UNL     1      43.540  -9.883  -1.358  1.00  0.00    -0.041 SA
HETATM   32  C   UNL     1      40.885 -15.273  -2.848  1.00  0.00     0.119 A 
HETATM   33  F   UNL     1      40.360 -16.208  -3.650  1.00  0.00    -0.206 F 
HETATM   34  C   UNL     1      40.875 -15.498  -1.457  1.00  0.00     0.061 A 
HETATM   35  H   UNL     1      42.581 -12.117   0.435  1.00  0.00     0.168 HD
ENDBRANCH  20  23
ENDBRANCH   1  19
TORSDOF 7
ENDMDL
MODEL 8
REMARK VINA RESULT:      -8.9      6.235      8.946
REMARK  7 active torsions:
REMARK  status: ('A' for Active; 'I' for Inactive)
REMARK    1  A    between atoms: C_4  and  N_5 
REMARK    2  A    between atoms: N_8  and  C_10 
REMARK    3  A    between atoms: C_10  and  C_11 
REMARK    4  A    between atoms: C_11  and  C_12 
REMARK    5  A    between atoms: C_12  and  C_13 
REMARK    6  A    between atoms: C_13  and  N_14 
REMARK       I    between atoms: N_14  and  C_15 
REMARK    7  A    between atoms: C_15  and  C_16 
ROOT
HETATM    1  C   UNL     1      39.161 -12.344   2.863  1.00  0.00     0.123 C 
ENDROOT
BRANCH   1   2
HETATM    2  C   UNL     1      39.988 -13.069   3.926  1.00  0.00     0.021 C 
BRANCH   2   3
HETATM    3  C   UNL     1      41.339 -12.384   4.144  1.00  0.00     0.029 C 
BRANCH   3   4
HETATM    4  C   UNL     1      42.483 -13.394   4.084  1.00  0.00     0.235 C 
BRANCH   4   5
HETATM    5  N   UNL     1      42.003 -14.711   3.520  1.00  0.00    -0.068 N 
HETATM    6  C   UNL     1      42.994 -15.273   2.487  1.00  0.00     0.254 C 
HETATM    7  C   UNL     1      42.427 -16.554   1.837  1.00  0.00     0.150 C 
HETATM    8  N   UNL     1      42.065 -17.546   2.868  1.00  0.00    -0.378 N 
HETATM    9  C   UNL     1      41.157 -17.054   3.916  1.00  0.00     0.150 C 
HETATM   10  C   UNL     1      41.711 -15.779   4.584  1.00  0.00     0.254 C 
HETATM   11  H   UNL     1      41.125 -14.541   3.014  1.00  0.00     0.280 HD
BRANCH   8  12
HETATM   12  C   UNL     1      42.947 -18.598   3.109  1.00  0.00     0.030 A 
HETATM   13  C   UNL     1      43.118 -19.679   2.226  1.00  0.00     0.036 A 
HETATM   14  C   UNL     1      44.031 -20.719   2.483  1.00  0.00    -0.060 A 
HETATM   15  C   UNL     1      44.220 -21.839   1.499  1.00  0.00     0.048 C 
HETATM   16  C   UNL     1      44.813 -20.674   3.636  1.00  0.00     0.007 A 
HETATM   17  C   UNL     1      44.679 -19.612   4.521  1.00  0.00     0.003 A 
HETATM   18  C   UNL     1      43.762 -18.590   4.255  1.00  0.00     0.029 A 
ENDBRANCH   8  12
ENDBRANCH   4   5
ENDBRANCH   3   4
ENDBRANCH   2   3
ENDBRANCH   1   2
BRANCH   1  19
HETATM   19  N   UNL     1      39.891 -12.174   1.625  1.00  0.00    -0.357 N 
HETATM   20  C   UNL     1      40.198 -13.256   0.821  1.00  0.00     0.254 C 
HETATM   21  O   UNL     1      39.789 -14.387   1.069  1.00  0.00    -0.268 OA
HETATM   22  H   UNL     1      40.139 -11.235   1.341  1.00  0.00     0.162 HD
BRANCH  20  23
HETATM   23  C   UNL     1      41.023 -12.996  -0.388  1.00  0.00     0.064 A 
HETATM   24  C   UNL     1      40.756 -13.666  -1.569  1.00  0.00     0.077 A 
HETATM   25  C   UNL     1      41.502 -13.451  -2.732  1.00  0.00     0.065 A 
HETATM   26  N   UNL     1      39.782 -14.623  -1.870  1.00  0.00    -0.330 N 
HETATM   27  N   UNL     1      40.986 -14.267  -3.738  1.00  0.00    -0.331 N 
HETATM   28  C   UNL     1      42.554 -12.570  -2.779  1.00  0.00     0.074 A 
HETATM   29  C   UNL     1      39.923 -15.006  -3.205  1.00  0.00     0.176 A 
HETATM   30  H   UNL     1      41.323 -14.346  -4.687  1.00  0.00     0.168 HD
HETATM   31  S   UNL     1      39.011 -16.121  -4.004  1.00  0.00    -0.041 SA
HETATM   32  C   UNL     1      42.846 -11.903  -1.591  1.00  0.00     0.119 A 
HETATM   33  F   UNL     1      43.871 -11.041  -1.565  1.00  0.00    -0.206 F 
HETATM   34  C   UNL     1      42.106 -12.104  -0.409  1.00  0.00     0.061 A 
HETATM   35  H   UNL     1      39.127 -15.006  -1.198  1.00  0.00     0.168 HD
ENDBRANCH  20  23
ENDBRANCH   1  19
TORSDOF 7
ENDMDL
MODEL 9
REMARK VINA RESULT:      -8.7      2.574      3.817
REMARK  7 active torsions:
REMARK  status: ('A' for Active; 'I' for Inactive)
REMARK    1  A    between atoms: C_4  and  N_5 
REMARK    2  A    between atoms: N_8  and  C_10 
REMARK    3  A    between atoms: C_10  and  C_11 
REMARK    4  A    between atoms: C_11  and  C_12 
REMARK    5  A    between atoms: C_12  and  C_13 
REMARK    6  A    between atoms: C_13  and  N_14 
REMARK       I    between atoms: N_14  and  C_15 
REMARK    7  A    between atoms: C_15  and  C_16 
ROOT
HETATM    1  C   UNL     1      39.516 -10.370   5.604  1.00  0.00     0.123 C 
ENDROOT
BRANCH   1   2
HETATM    2  C   UNL     1      39.115 -11.721   5.009  1.00  0.00     0.021 C 
BRANCH   2   3
HETATM    3  C   UNL     1      40.279 -12.714   5.048  1.00  0.00     0.029 C 
BRANCH   3   4
HETATM    4  C   UNL     1      40.027 -13.814   6.077  1.00  0.00     0.235 C 
BRANCH   4   5
HETATM    5  N   UNL     1      41.183 -14.786   6.112  1.00  0.00    -0.068 N 
HETATM    6  C   UNL     1      40.743 -16.196   5.687  1.00  0.00     0.254 C 
HETATM    7  C   UNL     1      41.908 -17.197   5.845  1.00  0.00     0.150 C 
HETATM    8  N   UNL     1      43.098 -16.732   5.105  1.00  0.00    -0.378 N 
HETATM    9  C   UNL     1      43.542 -15.368   5.431  1.00  0.00     0.150 C 
HETATM   10  C   UNL     1      42.392 -14.351   5.270  1.00  0.00     0.254 C 
HETATM   11  H   UNL     1      41.505 -14.866   7.084  1.00  0.00     0.280 HD
BRANCH   8  12
HETATM   12  C   UNL     1      43.368 -17.304   3.863  1.00  0.00     0.030 A 
HETATM   13  C   UNL     1      43.474 -18.691   3.660  1.00  0.00     0.036 A 
HETATM   14  C   UNL     1      43.727 -19.246   2.391  1.00  0.00    -0.060 A 
HETATM   15  C   UNL     1      43.794 -20.734   2.200  1.00  0.00     0.048 C 
HETATM   16  C   UNL     1      43.854 -18.401   1.289  1.00  0.00     0.007 A 
HETATM   17  C   UNL     1      43.740 -17.028   1.454  1.00  0.00     0.003 A 
HETATM   18  C   UNL     1      43.496 -16.492   2.723  1.00  0.00     0.029 A 
ENDBRANCH   8  12
ENDBRANCH   4   5
ENDBRANCH   3   4
ENDBRANCH   2   3
ENDBRANCH   1   2
BRANCH   1  19
HETATM   19  N   UNL     1      39.433 -10.362   7.048  1.00  0.00    -0.357 N 
HETATM   20  C   UNL     1      40.547 -10.109   7.827  1.00  0.00     0.254 C 
HETATM   21  O   UNL     1      41.626  -9.788   7.335  1.00  0.00    -0.268 OA
HETATM   22  H   UNL     1      38.528 -10.509   7.476  1.00  0.00     0.162 HD
BRANCH  20  23
HETATM   23  C   UNL     1      40.385 -10.205   9.302  1.00  0.00     0.064 A 
HETATM   24  C   UNL     1      41.401 -10.735  10.079  1.00  0.00     0.077 A 
HETATM   25  C   UNL     1      41.295 -10.842  11.470  1.00  0.00     0.065 A 
HETATM   26  N   UNL     1      42.651 -11.243   9.716  1.00  0.00    -0.330 N 
HETATM   27  N   UNL     1      42.473 -11.407  11.954  1.00  0.00    -0.331 N 
HETATM   28  C   UNL     1      40.175 -10.440  12.155  1.00  0.00     0.074 A 
HETATM   29  C   UNL     1      43.317 -11.668  10.868  1.00  0.00     0.176 A 
HETATM   30  H   UNL     1      42.691 -11.624  12.916  1.00  0.00     0.168 HD
HETATM   31  S   UNL     1      44.813 -12.352  10.935  1.00  0.00    -0.041 SA
HETATM   32  C   UNL     1      39.138  -9.922  11.383  1.00  0.00     0.119 A 
HETATM   33  F   UNL     1      38.011  -9.525  11.989  1.00  0.00    -0.206 F 
HETATM   34  C   UNL     1      39.225  -9.804   9.981  1.00  0.00     0.061 A 
HETATM   35  H   UNL     1      42.979 -11.332   8.762  1.00  0.00     0.168 HD
ENDBRANCH  20  23
ENDBRANCH   1  19
TORSDOF 7
ENDMDL
MODEL 10
REMARK VINA RESULT:      -8.6      2.378      3.634
REMARK  7 active torsions:
REMARK  status: ('A' for Active; 'I' for Inactive)
REMARK    1  A    between atoms: C_4  and  N_5 
REMARK    2  A    between atoms: N_8  and  C_10 
REMARK    3  A    between atoms: C_10  and  C_11 
REMARK    4  A    between atoms: C_11  and  C_12 
REMARK    5  A    between atoms: C_12  and  C_13 
REMARK    6  A    between atoms: C_13  and  N_14 
REMARK       I    between atoms: N_14  and  C_15 
REMARK    7  A    between atoms: C_15  and  C_16 
ROOT
HETATM    1  C   UNL     1      42.123 -14.588   5.951  1.00  0.00     0.123 C 
ENDROOT
BRANCH   1   2
HETATM    2  C   UNL     1      40.750 -13.963   5.698  1.00  0.00     0.021 C 
BRANCH   2   3
HETATM    3  C   UNL     1      40.133 -14.484   4.398  1.00  0.00     0.029 C 
BRANCH   3   4
HETATM    4  C   UNL     1      40.945 -14.033   3.185  1.00  0.00     0.235 C 
BRANCH   4   5
HETATM    5  N   UNL     1      41.348 -15.220   2.341  1.00  0.00    -0.068 N 
HETATM    6  C   UNL     1      42.875 -15.399   2.318  1.00  0.00     0.254 C 
HETATM    7  C   UNL     1      43.270 -16.541   1.356  1.00  0.00     0.150 C 
HETATM    8  N   UNL     1      42.562 -17.787   1.708  1.00  0.00    -0.378 N 
HETATM    9  C   UNL     1      41.099 -17.671   1.797  1.00  0.00     0.150 C 
HETATM   10  C   UNL     1      40.684 -16.540   2.761  1.00  0.00     0.254 C 
HETATM   11  H   UNL     1      41.065 -15.034   1.372  1.00  0.00     0.280 HD
BRANCH   8  12
HETATM   12  C   UNL     1      43.256 -18.759   2.428  1.00  0.00     0.030 A 
HETATM   13  C   UNL     1      43.553 -18.638   3.797  1.00  0.00     0.036 A 
HETATM   14  C   UNL     1      44.237 -19.643   4.507  1.00  0.00    -0.060 A 
HETATM   15  C   UNL     1      44.503 -19.501   5.979  1.00  0.00     0.048 C 
HETATM   16  C   UNL     1      44.617 -20.810   3.845  1.00  0.00     0.007 A 
HETATM   17  C   UNL     1      44.325 -20.966   2.497  1.00  0.00     0.003 A 
HETATM   18  C   UNL     1      43.651 -19.955   1.804  1.00  0.00     0.029 A 
ENDBRANCH   8  12
ENDBRANCH   4   5
ENDBRANCH   3   4
ENDBRANCH   2   3
ENDBRANCH   1   2
BRANCH   1  19
HETATM   19  N   UNL     1      43.056 -13.645   6.530  1.00  0.00    -0.357 N 
HETATM   20  C   UNL     1      44.000 -14.049   7.455  1.00  0.00     0.254 C 
HETATM   21  O   UNL     1      44.153 -15.230   7.755  1.00  0.00    -0.268 OA
HETATM   22  H   UNL     1      43.024 -12.685   6.211  1.00  0.00     0.162 HD
BRANCH  20  23
HETATM   23  C   UNL     1      44.859 -12.996   8.058  1.00  0.00     0.064 A 
HETATM   24  C   UNL     1      44.359 -12.180   9.060  1.00  0.00     0.077 A 
HETATM   25  C   UNL     1      45.130 -11.180   9.659  1.00  0.00     0.065 A 
HETATM   26  N   UNL     1      43.097 -12.150   9.660  1.00  0.00    -0.330 N 
HETATM   27  N   UNL     1      44.347 -10.544  10.622  1.00  0.00    -0.331 N 
HETATM   28  C   UNL     1      46.428 -10.931   9.290  1.00  0.00     0.074 A 
HETATM   29  C   UNL     1      43.078 -11.136  10.620  1.00  0.00     0.176 A 
HETATM   30  H   UNL     1      44.620  -9.771  11.211  1.00  0.00     0.168 HD
HETATM   31  S   UNL     1      41.802 -10.714  11.571  1.00  0.00    -0.041 SA
HETATM   32  C   UNL     1      46.938 -11.732   8.270  1.00  0.00     0.119 A 
HETATM   33  F   UNL     1      48.195 -11.532   7.852  1.00  0.00    -0.206 F 
HETATM   34  C   UNL     1      46.179 -12.747   7.654  1.00  0.00     0.061 A 
HETATM   35  H   UNL     1      42.317 -12.738   9.388  1.00  0.00     0.168 HD
ENDBRANCH  20  23
ENDBRANCH   1  19
TORSDOF 7
ENDMDL
