MODEL 1
REMARK VINA RESULT:      -9.9      0.000      0.000
REMARK  7 active torsions:
REMARK  status: ('A' for Active; 'I' for Inactive)
REMARK    1  A    between atoms: C_6  and  C_7 
REMARK       I    between atoms: C_7  and  N_8 
REMARK    2  A    between atoms: N_8  and  C_9 
REMARK    3  A    between atoms: C_9  and  C_10 
REMARK       I    between atoms: C_10  and  N_11 
REMARK    4  A    between atoms: N_11  and  N_12 
REMARK       I    between atoms: N_12  and  C_13 
REMARK    5  A    between atoms: C_13  and  C_14 
REMARK    6  A    between atoms: C_14  and  N_15 
REMARK    7  A    between atoms: N_15  and  C_16 
ROOT
HETATM    1  C   UNL     1      45.472 -13.188   7.642  1.00  0.00     0.253 C 
HETATM    2  N   UNL     1      44.262 -13.779   7.949  1.00  0.00    -0.266 N 
HETATM    3  O   UNL     1      46.043 -13.363   6.563  1.00  0.00    -0.270 OA
HETATM    4  H   UNL     1      43.640 -13.318   8.623  1.00  0.00     0.190 HD
ENDROOT
BRANCH   2   5
HETATM    5  N   UNL     1      43.632 -14.536   6.944  1.00  0.00    -0.266 N 
HETATM    6  C   UNL     1      43.359 -15.867   7.210  1.00  0.00     0.258 C 
HETATM    7  O   UNL     1      43.808 -16.451   8.195  1.00  0.00    -0.269 OA
HETATM    8  H   UNL     1      43.045 -14.020   6.284  1.00  0.00     0.190 HD
BRANCH   6   9
HETATM    9  C   UNL     1      42.476 -16.539   6.142  1.00  0.00     0.173 C 
HETATM   10  C   UNL     1      41.246 -15.689   5.836  1.00  0.00     0.042 C 
BRANCH   9  11
HETATM   11  N   UNL     1      43.229 -16.723   4.903  1.00  0.00    -0.356 N 
HETATM   12  H   UNL     1      43.681 -15.907   4.505  1.00  0.00     0.162 HD
BRANCH  11  13
HETATM   13  C   UNL     1      43.493 -17.949   4.413  1.00  0.00     0.168 A 
HETATM   14  S   UNL     1      44.358 -19.090   5.361  1.00  0.00    -0.050 SA
HETATM   15  C   UNL     1      44.291 -20.226   4.072  1.00  0.00     0.037 A 
HETATM   16  C   UNL     1      43.584 -19.659   3.012  1.00  0.00     0.076 A 
HETATM   17  C   UNL     1      44.828 -21.523   4.000  1.00  0.00     0.021 A 
HETATM   18  N   UNL     1      43.119 -18.373   3.230  1.00  0.00    -0.223 NA
HETATM   19  C   UNL     1      43.406 -20.415   1.834  1.00  0.00     0.033 A 
HETATM   20  C   UNL     1      43.941 -21.705   1.749  1.00  0.00     0.002 A 
HETATM   21  C   UNL     1      44.642 -22.250   2.819  1.00  0.00     0.002 A 
ENDBRANCH  11  13
ENDBRANCH   9  11
ENDBRANCH   6   9
ENDBRANCH   2   5
BRANCH   1  22
HETATM   22  C   UNL     1      45.985 -12.186   8.681  1.00  0.00     0.227 C 
BRANCH  22  23
HETATM   23  N   UNL     1      44.936 -11.454   9.376  1.00  0.00    -0.348 N 
HETATM   24  C   UNL     1      44.390 -11.926  10.549  1.00  0.00     0.252 C 
HETATM   25  O   UNL     1      44.814 -12.939  11.094  1.00  0.00    -0.268 OA
HETATM   26  H   UNL     1      44.761 -10.500   9.092  1.00  0.00     0.163 HD
BRANCH  24  27
HETATM   27  C   UNL     1      43.313 -11.111  11.175  1.00  0.00     0.032 A 
HETATM   28  C   UNL     1      43.546 -10.561  12.442  1.00  0.00     0.024 A 
HETATM   29  C   UNL     1      42.568  -9.783  13.086  1.00  0.00    -0.055 A 
HETATM   30  C   UNL     1      41.325  -9.578  12.456  1.00  0.00    -0.056 A 
HETATM   31  C   UNL     1      42.862  -9.225  14.452  1.00  0.00     0.049 C 
HETATM   32  C   UNL     1      40.243  -8.754  13.100  1.00  0.00     0.049 C 
HETATM   33  C   UNL     1      41.097 -10.137  11.189  1.00  0.00     0.008 A 
HETATM   34  C   UNL     1      42.078 -10.903  10.553  1.00  0.00     0.017 A 
ENDBRANCH  24  27
ENDBRANCH  22  23
ENDBRANCH   1  22
TORSDOF 7
ENDMDL
MODEL 2
REMARK VINA RESULT:      -9.8      1.705      2.146
REMARK  7 active torsions:
REMARK  status: ('A' for Active; 'I' for Inactive)
REMARK    1  A    between atoms: C_6  and  C_7 
REMARK       I    between atoms: C_7  and  N_8 
REMARK    2  A    between atoms: N_8  and  C_9 
REMARK    3  A    between atoms: C_9  and  C_10 
REMARK       I    between atoms: C_10  and  N_11 
REMARK    4  A    between atoms: N_11  and  N_12 
REMARK       I    between atoms: N_12  and  C_13 
REMARK    5  A    between atoms: C_13  and  C_14 
REMARK    6  A    between atoms: C_14  and  N_15 
REMARK    7  A    between atoms: N_15  and  C_16 
ROOT
HETATM    1  C   UNL     1      44.346 -14.144   7.166  1.00  0.00     0.253 C 
HETATM    2  N   UNL     1      43.272 -13.662   6.444  1.00  0.00    -0.266 N 
HETATM    3  O   UNL     1      44.732 -15.312   7.083  1.00  0.00    -0.270 OA
HETATM    4  H   UNL     1      43.236 -12.661   6.215  1.00  0.00     0.190 HD
ENDROOT
BRANCH   2   5
HETATM    5  N   UNL     1      42.664 -14.531   5.519  1.00  0.00    -0.266 N 
HETATM    6  C   UNL     1      43.154 -14.545   4.224  1.00  0.00     0.258 C 
HETATM    7  O   UNL     1      43.955 -13.708   3.810  1.00  0.00    -0.269 OA
HETATM    8  H   UNL     1      42.222 -15.369   5.903  1.00  0.00     0.190 HD
BRANCH   6   9
HETATM    9  C   UNL     1      42.574 -15.680   3.360  1.00  0.00     0.173 C 
HETATM   10  C   UNL     1      41.700 -15.124   2.240  1.00  0.00     0.042 C 
BRANCH   9  11
HETATM   11  N   UNL     1      43.653 -16.462   2.759  1.00  0.00    -0.356 N 
HETATM   12  H   UNL     1      44.339 -15.962   2.204  1.00  0.00     0.162 HD
BRANCH  11  13
HETATM   13  C   UNL     1      43.857 -17.752   3.086  1.00  0.00     0.168 A 
HETATM   14  S   UNL     1      44.154 -18.192   4.719  1.00  0.00    -0.050 SA
HETATM   15  C   UNL     1      44.333 -19.837   4.253  1.00  0.00     0.037 A 
HETATM   16  C   UNL     1      44.124 -19.939   2.878  1.00  0.00     0.076 A 
HETATM   17  C   UNL     1      44.639 -20.958   5.044  1.00  0.00     0.021 A 
HETATM   18  N   UNL     1      43.834 -18.747   2.233  1.00  0.00    -0.223 NA
HETATM   19  C   UNL     1      44.226 -21.206   2.268  1.00  0.00     0.033 A 
HETATM   20  C   UNL     1      44.536 -22.328   3.044  1.00  0.00     0.002 A 
HETATM   21  C   UNL     1      44.739 -22.203   4.415  1.00  0.00     0.002 A 
ENDBRANCH  11  13
ENDBRANCH   9  11
ENDBRANCH   6   9
ENDBRANCH   2   5
BRANCH   1  22
HETATM   22  C   UNL     1      45.112 -13.089   7.970  1.00  0.00     0.227 C 
BRANCH  22  23
HETATM   23  N   UNL     1      44.423 -12.632   9.169  1.00  0.00    -0.348 N 
HETATM   24  C   UNL     1      44.741 -11.432   9.764  1.00  0.00     0.252 C 
HETATM   25  O   UNL     1      45.561 -10.666   9.269  1.00  0.00    -0.268 OA
HETATM   26  H   UNL     1      43.574 -13.113   9.435  1.00  0.00     0.163 HD
BRANCH  24  27
HETATM   27  C   UNL     1      43.988 -11.061  10.994  1.00  0.00     0.032 A 
HETATM   28  C   UNL     1      43.699  -9.708  11.214  1.00  0.00     0.024 A 
HETATM   29  C   UNL     1      42.992  -9.294  12.357  1.00  0.00    -0.055 A 
HETATM   30  C   UNL     1      42.594 -10.256  13.307  1.00  0.00    -0.056 A 
HETATM   31  C   UNL     1      42.717  -7.828  12.555  1.00  0.00     0.049 C 
HETATM   32  C   UNL     1      41.836  -9.868  14.547  1.00  0.00     0.049 C 
HETATM   33  C   UNL     1      42.893 -11.608  13.081  1.00  0.00     0.008 A 
HETATM   34  C   UNL     1      43.589 -12.011  11.939  1.00  0.00     0.017 A 
ENDBRANCH  24  27
ENDBRANCH  22  23
ENDBRANCH   1  22
TORSDOF 7
ENDMDL
MODEL 3
REMARK VINA RESULT:      -9.7      1.826      2.192
REMARK  7 active torsions:
REMARK  status: ('A' for Active; 'I' for Inactive)
REMARK    1  A    between atoms: C_6  and  C_7 
REMARK       I    between atoms: C_7  and  N_8 
REMARK    2  A    between atoms: N_8  and  C_9 
REMARK    3  A    between atoms: C_9  and  C_10 
REMARK       I    between atoms: C_10  and  N_11 
REMARK    4  A    between atoms: N_11  and  N_12 
REMARK       I    between atoms: N_12  and  C_13 
REMARK    5  A    between atoms: C_13  and  C_14 
REMARK    6  A    between atoms: C_14  and  N_15 
REMARK    7  A    between atoms: N_15  and  C_16 
ROOT
HETATM    1  C   UNL     1      44.381 -14.162   7.124  1.00  0.00     0.253 C 
HETATM    2  N   UNL     1      43.236 -13.735   6.481  1.00  0.00    -0.266 N 
HETATM    3  O   UNL     1      44.884 -15.268   6.920  1.00  0.00    -0.270 OA
HETATM    4  H   UNL     1      43.086 -12.728   6.348  1.00  0.00     0.190 HD
ENDROOT
BRANCH   2   5
HETATM    5  N   UNL     1      42.689 -14.577   5.495  1.00  0.00    -0.266 N 
HETATM    6  C   UNL     1      41.317 -14.555   5.312  1.00  0.00     0.258 C 
HETATM    7  O   UNL     1      40.554 -13.984   6.089  1.00  0.00    -0.269 OA
HETATM    8  H   UNL     1      43.301 -14.821   4.713  1.00  0.00     0.190 HD
BRANCH   6   9
HETATM    9  C   UNL     1      40.850 -15.337   4.070  1.00  0.00     0.173 C 
HETATM   10  C   UNL     1      39.796 -14.552   3.293  1.00  0.00     0.042 C 
BRANCH   9  11
HETATM   11  N   UNL     1      41.980 -15.598   3.180  1.00  0.00    -0.356 N 
HETATM   12  H   UNL     1      42.435 -14.797   2.755  1.00  0.00     0.162 HD
BRANCH  11  13
HETATM   13  C   UNL     1      42.532 -16.822   3.080  1.00  0.00     0.168 A 
HETATM   14  S   UNL     1      42.195 -17.812   1.718  1.00  0.00    -0.050 SA
HETATM   15  C   UNL     1      43.165 -19.068   2.380  1.00  0.00     0.037 A 
HETATM   16  C   UNL     1      43.703 -18.628   3.590  1.00  0.00     0.076 A 
HETATM   17  C   UNL     1      43.429 -20.351   1.871  1.00  0.00     0.021 A 
HETATM   18  N   UNL     1      43.350 -17.341   3.962  1.00  0.00    -0.223 NA
HETATM   19  C   UNL     1      44.535 -19.502   4.319  1.00  0.00     0.033 A 
HETATM   20  C   UNL     1      44.801 -20.784   3.825  1.00  0.00     0.002 A 
HETATM   21  C   UNL     1      44.254 -21.200   2.616  1.00  0.00     0.002 A 
ENDBRANCH  11  13
ENDBRANCH   9  11
ENDBRANCH   6   9
ENDBRANCH   2   5
BRANCH   1  22
HETATM   22  C   UNL     1      45.062 -13.107   8.002  1.00  0.00     0.227 C 
BRANCH  22  23
HETATM   23  N   UNL     1      44.146 -12.342   8.837  1.00  0.00    -0.348 N 
HETATM   24  C   UNL     1      44.552 -11.191   9.475  1.00  0.00     0.252 C 
HETATM   25  O   UNL     1      45.673 -10.723   9.307  1.00  0.00    -0.268 OA
HETATM   26  H   UNL     1      43.161 -12.558   8.775  1.00  0.00     0.163 HD
BRANCH  24  27
HETATM   27  C   UNL     1      43.544 -10.488  10.317  1.00  0.00     0.032 A 
HETATM   28  C   UNL     1      43.871 -10.208  11.650  1.00  0.00     0.024 A 
HETATM   29  C   UNL     1      42.962  -9.548  12.496  1.00  0.00    -0.055 A 
HETATM   30  C   UNL     1      41.694  -9.190  11.999  1.00  0.00    -0.056 A 
HETATM   31  C   UNL     1      43.355  -9.282  13.923  1.00  0.00     0.049 C 
HETATM   32  C   UNL     1      40.683  -8.482  12.860  1.00  0.00     0.049 C 
HETATM   33  C   UNL     1      41.373  -9.479  10.664  1.00  0.00     0.008 A 
HETATM   34  C   UNL     1      42.285 -10.128   9.828  1.00  0.00     0.017 A 
ENDBRANCH  24  27
ENDBRANCH  22  23
ENDBRANCH   1  22
TORSDOF 7
ENDMDL
MODEL 4
REMARK VINA RESULT:      -9.5      2.576     11.295
REMARK  7 active torsions:
REMARK  status: ('A' for Active; 'I' for Inactive)
REMARK    1  A    between atoms: C_6  and  C_7 
REMARK       I    between atoms: C_7  and  N_8 
REMARK    2  A    between atoms: N_8  and  C_9 
REMARK    3  A    between atoms: C_9  and  C_10 
REMARK       I    between atoms: C_10  and  N_11 
REMARK    4  A    between atoms: N_11  and  N_12 
REMARK       I    between atoms: N_12  and  C_13 
REMARK    5  A    between atoms: C_13  and  C_14 
REMARK    6  A    between atoms: C_14  and  N_15 
REMARK    7  A    between atoms: N_15  and  C_16 
ROOT
HETATM    1  C   UNL     1      42.763 -14.306   5.500  1.00  0.00     0.253 C 
HETATM    2  N   UNL     1      43.754 -14.813   6.317  1.00  0.00    -0.266 N 
HETATM    3  O   UNL     1      42.014 -13.394   5.852  1.00  0.00    -0.270 OA
HETATM    4  H   UNL     1      44.584 -15.241   5.888  1.00  0.00     0.190 HD
ENDROOT
BRANCH   2   5
HETATM    5  N   UNL     1      43.955 -14.190   7.563  1.00  0.00    -0.266 N 
HETATM    6  C   UNL     1      45.033 -13.331   7.692  1.00  0.00     0.258 C 
HETATM    7  O   UNL     1      45.914 -13.240   6.839  1.00  0.00    -0.269 OA
HETATM    8  H   UNL     1      43.124 -14.052   8.143  1.00  0.00     0.190 HD
BRANCH   6   9
HETATM    9  C   UNL     1      45.031 -12.537   9.012  1.00  0.00     0.173 C 
HETATM   10  C   UNL     1      46.089 -11.437   8.990  1.00  0.00     0.042 C 
BRANCH   9  11
HETATM   11  N   UNL     1      43.725 -11.916   9.229  1.00  0.00    -0.356 N 
HETATM   12  H   UNL     1      42.974 -12.174   8.598  1.00  0.00     0.162 HD
BRANCH  11  13
HETATM   13  C   UNL     1      43.462 -11.195  10.335  1.00  0.00     0.168 A 
HETATM   14  S   UNL     1      43.539 -11.931  11.885  1.00  0.00    -0.050 SA
HETATM   15  C   UNL     1      43.058 -10.454  12.621  1.00  0.00     0.037 A 
HETATM   16  C   UNL     1      42.898  -9.489  11.626  1.00  0.00     0.076 A 
HETATM   17  C   UNL     1      42.833 -10.167  13.978  1.00  0.00     0.021 A 
HETATM   18  N   UNL     1      43.152  -9.921  10.335  1.00  0.00    -0.223 NA
HETATM   19  C   UNL     1      42.498  -8.189  12.000  1.00  0.00     0.033 A 
HETATM   20  C   UNL     1      42.266  -7.895  13.348  1.00  0.00     0.002 A 
HETATM   21  C   UNL     1      42.433  -8.872  14.323  1.00  0.00     0.002 A 
ENDBRANCH  11  13
ENDBRANCH   9  11
ENDBRANCH   6   9
ENDBRANCH   2   5
BRANCH   1  22
HETATM   22  C   UNL     1      42.755 -14.862   4.072  1.00  0.00     0.227 C 
BRANCH  22  23
HETATM   23  N   UNL     1      43.094 -16.275   3.978  1.00  0.00    -0.348 N 
HETATM   24  C   UNL     1      43.193 -16.907   2.758  1.00  0.00     0.252 C 
HETATM   25  O   UNL     1      43.076 -16.293   1.703  1.00  0.00    -0.268 OA
HETATM   26  H   UNL     1      43.452 -16.729   4.807  1.00  0.00     0.163 HD
BRANCH  24  27
HETATM   27  C   UNL     1      43.532 -18.357   2.769  1.00  0.00     0.032 A 
HETATM   28  C   UNL     1      43.974 -18.928   3.969  1.00  0.00     0.024 A 
HETATM   29  C   UNL     1      44.310 -20.291   4.044  1.00  0.00    -0.055 A 
HETATM   30  C   UNL     1      44.226 -21.086   2.883  1.00  0.00    -0.056 A 
HETATM   31  C   UNL     1      44.791 -20.855   5.352  1.00  0.00     0.049 C 
HETATM   32  C   UNL     1      44.573 -22.550   2.906  1.00  0.00     0.049 C 
HETATM   33  C   UNL     1      43.787 -20.505   1.683  1.00  0.00     0.008 A 
HETATM   34  C   UNL     1      43.449 -19.151   1.621  1.00  0.00     0.017 A 
ENDBRANCH  24  27
ENDBRANCH  22  23
ENDBRANCH   1  22
TORSDOF 7
ENDMDL
MODEL 5
REMARK VINA RESULT:      -9.5      2.483     11.069
REMARK  7 active torsions:
REMARK  status: ('A' for Active; 'I' for Inactive)
REMARK    1  A    between atoms: C_6  and  C_7 
REMARK       I    between atoms: C_7  and  N_8 
REMARK    2  A    between atoms: N_8  and  C_9 
REMARK    3  A    between atoms: C_9  and  C_10 
REMARK       I    between atoms: C_10  and  N_11 
REMARK    4  A    between atoms: N_11  and  N_12 
REMARK       I    between atoms: N_12  and  C_13 
REMARK    5  A    between atoms: C_13  and  C_14 
REMARK    6  A    between atoms: C_14  and  N_15 
REMARK    7  A    between atoms: N_15  and  C_16 
ROOT
HETATM    1  C   UNL     1      42.362 -14.167   4.611  1.00  0.00     0.253 C 
HETATM    2  N   UNL     1      42.543 -14.728   5.860  1.00  0.00    -0.266 N 
HETATM    3  O   UNL     1      42.543 -12.968   4.388  1.00  0.00    -0.270 OA
HETATM    4  H   UNL     1      42.789 -15.723   5.927  1.00  0.00     0.190 HD
ENDROOT
BRANCH   2   5
HETATM    5  N   UNL     1      43.039 -13.898   6.882  1.00  0.00    -0.266 N 
HETATM    6  C   UNL     1      44.320 -14.138   7.349  1.00  0.00     0.258 C 
HETATM    7  O   UNL     1      44.957 -15.146   7.047  1.00  0.00    -0.269 OA
HETATM    8  H   UNL     1      42.650 -12.953   6.931  1.00  0.00     0.190 HD
BRANCH   6   9
HETATM    9  C   UNL     1      44.843 -13.044   8.299  1.00  0.00     0.173 C 
HETATM   10  C   UNL     1      46.180 -12.491   7.812  1.00  0.00     0.042 C 
BRANCH   9  11
HETATM   11  N   UNL     1      43.888 -11.940   8.377  1.00  0.00    -0.356 N 
HETATM   12  H   UNL     1      43.307 -11.767   7.564  1.00  0.00     0.162 HD
BRANCH  11  13
HETATM   13  C   UNL     1      43.635 -11.306   9.537  1.00  0.00     0.168 A 
HETATM   14  S   UNL     1      44.011 -12.062  11.033  1.00  0.00    -0.050 SA
HETATM   15  C   UNL     1      43.376 -10.711  11.885  1.00  0.00     0.037 A 
HETATM   16  C   UNL     1      42.944  -9.760  10.960  1.00  0.00     0.076 A 
HETATM   17  C   UNL     1      43.262 -10.506  13.271  1.00  0.00     0.021 A 
HETATM   18  N   UNL     1      43.119 -10.105   9.630  1.00  0.00    -0.223 NA
HETATM   19  C   UNL     1      42.378  -8.559  11.436  1.00  0.00     0.033 A 
HETATM   20  C   UNL     1      42.255  -8.347  12.814  1.00  0.00     0.002 A 
HETATM   21  C   UNL     1      42.692  -9.309  13.717  1.00  0.00     0.002 A 
ENDBRANCH  11  13
ENDBRANCH   9  11
ENDBRANCH   6   9
ENDBRANCH   2   5
BRANCH   1  22
HETATM   22  C   UNL     1      42.057 -15.166   3.490  1.00  0.00     0.227 C 
BRANCH  22  23
HETATM   23  N   UNL     1      42.493 -16.527   3.767  1.00  0.00    -0.348 N 
HETATM   24  C   UNL     1      43.503 -17.117   3.039  1.00  0.00     0.252 C 
HETATM   25  O   UNL     1      44.125 -16.498   2.182  1.00  0.00    -0.268 OA
HETATM   26  H   UNL     1      42.183 -16.955   4.629  1.00  0.00     0.163 HD
BRANCH  24  27
HETATM   27  C   UNL     1      43.866 -18.518   3.390  1.00  0.00     0.032 A 
HETATM   28  C   UNL     1      43.819 -19.490   2.382  1.00  0.00     0.024 A 
HETATM   29  C   UNL     1      44.150 -20.830   2.650  1.00  0.00    -0.055 A 
HETATM   30  C   UNL     1      44.506 -21.202   3.962  1.00  0.00    -0.056 A 
HETATM   31  C   UNL     1      44.073 -21.838   1.537  1.00  0.00     0.049 C 
HETATM   32  C   UNL     1      44.869 -22.621   4.305  1.00  0.00     0.049 C 
HETATM   33  C   UNL     1      44.545 -20.223   4.967  1.00  0.00     0.008 A 
HETATM   34  C   UNL     1      44.222 -18.893   4.689  1.00  0.00     0.017 A 
ENDBRANCH  24  27
ENDBRANCH  22  23
ENDBRANCH   1  22
TORSDOF 7
ENDMDL
MODEL 6
REMARK VINA RESULT:      -9.4      2.990     10.539
REMARK  7 active torsions:
REMARK  status: ('A' for Active; 'I' for Inactive)
REMARK    1  A    between atoms: C_6  and  C_7 
REMARK       I    between atoms: C_7  and  N_8 
REMARK    2  A    between atoms: N_8  and  C_9 
REMARK    3  A    between atoms: C_9  and  C_10 
REMARK       I    between atoms: C_10  and  N_11 
REMARK    4  A    between atoms: N_11  and  N_12 
REMARK       I    between atoms: N_12  and  C_13 
REMARK    5  A    between atoms: C_13  and  C_14 
REMARK    6  A    between atoms: C_14  and  N_15 
REMARK    7  A    between atoms: N_15  and  C_16 
ROOT
HETATM    1  C   UNL     1      44.127 -14.817   6.953  1.00  0.00     0.253 C 
HETATM    2  N   UNL     1      42.882 -14.340   6.590  1.00  0.00    -0.266 N 
HETATM    3  O   UNL     1      45.116 -14.089   7.048  1.00  0.00    -0.270 OA
HETATM    4  H   UNL     1      42.045 -14.841   6.910  1.00  0.00     0.190 HD
ENDROOT
BRANCH   2   5
HETATM    5  N   UNL     1      42.742 -12.951   6.413  1.00  0.00    -0.266 N 
HETATM    6  C   UNL     1      41.536 -12.478   5.925  1.00  0.00     0.258 C 
HETATM    7  O   UNL     1      40.668 -13.221   5.470  1.00  0.00    -0.269 OA
HETATM    8  H   UNL     1      43.316 -12.355   7.014  1.00  0.00     0.190 HD
BRANCH   6   9
HETATM    9  C   UNL     1      41.411 -10.944   5.981  1.00  0.00     0.173 C 
HETATM   10  C   UNL     1      40.679 -10.410   4.752  1.00  0.00     0.042 C 
BRANCH   9  11
HETATM   11  N   UNL     1      40.667 -10.538   7.173  1.00  0.00    -0.356 N 
HETATM   12  H   UNL     1      39.672 -10.370   7.068  1.00  0.00     0.162 HD
BRANCH  11  13
HETATM   13  C   UNL     1      41.221 -10.582   8.399  1.00  0.00     0.168 A 
HETATM   14  S   UNL     1      40.237 -10.848   9.781  1.00  0.00    -0.050 SA
HETATM   15  C   UNL     1      41.615 -10.710  10.800  1.00  0.00     0.037 A 
HETATM   16  C   UNL     1      42.741 -10.496  10.005  1.00  0.00     0.076 A 
HETATM   17  C   UNL     1      41.697 -10.781  12.201  1.00  0.00     0.021 A 
HETATM   18  N   UNL     1      42.502 -10.447   8.641  1.00  0.00    -0.223 NA
HETATM   19  C   UNL     1      43.996 -10.346  10.631  1.00  0.00     0.033 A 
HETATM   20  C   UNL     1      44.088 -10.409  12.026  1.00  0.00     0.002 A 
HETATM   21  C   UNL     1      42.952 -10.625  12.799  1.00  0.00     0.002 A 
ENDBRANCH  11  13
ENDBRANCH   9  11
ENDBRANCH   6   9
ENDBRANCH   2   5
BRANCH   1  22
HETATM   22  C   UNL     1      44.159 -16.292   7.366  1.00  0.00     0.227 C 
BRANCH  22  23
HETATM   23  N   UNL     1      44.222 -17.226   6.250  1.00  0.00    -0.348 N 
HETATM   24  C   UNL     1      44.134 -18.586   6.449  1.00  0.00     0.252 C 
HETATM   25  O   UNL     1      43.924 -19.062   7.559  1.00  0.00    -0.268 OA
HETATM   26  H   UNL     1      44.127 -16.850   5.316  1.00  0.00     0.163 HD
BRANCH  24  27
HETATM   27  C   UNL     1      44.223 -19.457   5.244  1.00  0.00     0.032 A 
HETATM   28  C   UNL     1      43.813 -18.931   4.012  1.00  0.00     0.024 A 
HETATM   29  C   UNL     1      43.871 -19.703   2.838  1.00  0.00    -0.055 A 
HETATM   30  C   UNL     1      44.324 -21.036   2.913  1.00  0.00    -0.056 A 
HETATM   31  C   UNL     1      43.408 -19.098   1.542  1.00  0.00     0.049 C 
HETATM   32  C   UNL     1      44.407 -21.907   1.688  1.00  0.00     0.049 C 
HETATM   33  C   UNL     1      44.727 -21.556   4.152  1.00  0.00     0.008 A 
HETATM   34  C   UNL     1      44.672 -20.779   5.311  1.00  0.00     0.017 A 
ENDBRANCH  24  27
ENDBRANCH  22  23
ENDBRANCH   1  22
TORSDOF 7
ENDMDL
MODEL 7
REMARK VINA RESULT:      -9.3      3.396     11.143
REMARK  7 active torsions:
REMARK  status: ('A' for Active; 'I' for Inactive)
REMARK    1  A    between atoms: C_6  and  C_7 
REMARK       I    between atoms: C_7  and  N_8 
REMARK    2  A    between atoms: N_8  and  C_9 
REMARK    3  A    between atoms: C_9  and  C_10 
REMARK       I    between atoms: C_10  and  N_11 
REMARK    4  A    between atoms: N_11  and  N_12 
REMARK       I    between atoms: N_12  and  C_13 
REMARK    5  A    between atoms: C_13  and  C_14 
REMARK    6  A    between atoms: C_14  and  N_15 
REMARK    7  A    between atoms: N_15  and  C_16 
ROOT
HETATM    1  C   UNL     1      43.002 -13.658   3.700  1.00  0.00     0.253 C 
HETATM    2  N   UNL     1      41.989 -12.720   3.751  1.00  0.00    -0.266 N 
HETATM    3  O   UNL     1      43.988 -13.611   4.437  1.00  0.00    -0.270 OA
HETATM    4  H   UNL     1      41.044 -12.992   3.456  1.00  0.00     0.190 HD
ENDROOT
BRANCH   2   5
HETATM    5  N   UNL     1      42.064 -11.733   4.752  1.00  0.00    -0.266 N 
HETATM    6  C   UNL     1      41.302 -11.908   5.894  1.00  0.00     0.258 C 
HETATM    7  O   UNL     1      40.435 -12.776   5.986  1.00  0.00    -0.269 OA
HETATM    8  H   UNL     1      42.934 -11.197   4.799  1.00  0.00     0.190 HD
BRANCH   6   9
HETATM    9  C   UNL     1      41.626 -10.897   7.010  1.00  0.00     0.173 C 
HETATM   10  C   UNL     1      41.425  -9.463   6.524  1.00  0.00     0.042 C 
BRANCH   9  11
HETATM   11  N   UNL     1      40.757 -11.118   8.164  1.00  0.00    -0.356 N 
HETATM   12  H   UNL     1      39.880 -11.601   8.003  1.00  0.00     0.162 HD
BRANCH  11  13
HETATM   13  C   UNL     1      41.179 -10.883   9.421  1.00  0.00     0.168 A 
HETATM   14  S   UNL     1      40.095 -11.056  10.742  1.00  0.00    -0.050 SA
HETATM   15  C   UNL     1      41.330 -10.562  11.831  1.00  0.00     0.037 A 
HETATM   16  C   UNL     1      42.498 -10.325  11.107  1.00  0.00     0.076 A 
HETATM   17  C   UNL     1      41.271 -10.391  13.225  1.00  0.00     0.021 A 
HETATM   18  N   UNL     1      42.401 -10.533   9.741  1.00  0.00    -0.223 NA
HETATM   19  C   UNL     1      43.651  -9.901  11.799  1.00  0.00     0.033 A 
HETATM   20  C   UNL     1      43.603  -9.722  13.186  1.00  0.00     0.002 A 
HETATM   21  C   UNL     1      42.427  -9.965  13.888  1.00  0.00     0.002 A 
ENDBRANCH  11  13
ENDBRANCH   9  11
ENDBRANCH   6   9
ENDBRANCH   2   5
BRANCH   1  22
HETATM   22  C   UNL     1      42.743 -14.838   2.758  1.00  0.00     0.227 C 
BRANCH  22  23
HETATM   23  N   UNL     1      43.124 -16.133   3.304  1.00  0.00    -0.348 N 
HETATM   24  C   UNL     1      43.671 -17.114   2.506  1.00  0.00     0.252 C 
HETATM   25  O   UNL     1      43.930 -16.911   1.324  1.00  0.00    -0.268 OA
HETATM   26  H   UNL     1      43.167 -16.226   4.309  1.00  0.00     0.163 HD
BRANCH  24  27
HETATM   27  C   UNL     1      44.013 -18.409   3.156  1.00  0.00     0.032 A 
HETATM   28  C   UNL     1      44.085 -19.556   2.356  1.00  0.00     0.024 A 
HETATM   29  C   UNL     1      44.403 -20.809   2.910  1.00  0.00    -0.055 A 
HETATM   30  C   UNL     1      44.623 -20.911   4.298  1.00  0.00    -0.056 A 
HETATM   31  C   UNL     1      44.456 -22.013   2.011  1.00  0.00     0.049 C 
HETATM   32  C   UNL     1      44.966 -22.227   4.944  1.00  0.00     0.049 C 
HETATM   33  C   UNL     1      44.543 -19.758   5.093  1.00  0.00     0.008 A 
HETATM   34  C   UNL     1      44.235 -18.517   4.532  1.00  0.00     0.017 A 
ENDBRANCH  24  27
ENDBRANCH  22  23
ENDBRANCH   1  22
TORSDOF 7
ENDMDL
MODEL 8
REMARK VINA RESULT:      -9.2      3.714     11.273
REMARK  7 active torsions:
REMARK  status: ('A' for Active; 'I' for Inactive)
REMARK    1  A    between atoms: C_6  and  C_7 
REMARK       I    between atoms: C_7  and  N_8 
REMARK    2  A    between atoms: N_8  and  C_9 
REMARK    3  A    between atoms: C_9  and  C_10 
REMARK       I    between atoms: C_10  and  N_11 
REMARK    4  A    between atoms: N_11  and  N_12 
REMARK       I    between atoms: N_12  and  C_13 
REMARK    5  A    between atoms: C_13  and  C_14 
REMARK    6  A    between atoms: C_14  and  N_15 
REMARK    7  A    between atoms: N_15  and  C_16 
ROOT
HETATM    1  C   UNL     1      40.265 -13.626   5.266  1.00  0.00     0.253 C 
HETATM    2  N   UNL     1      39.322 -13.260   6.206  1.00  0.00    -0.266 N 
HETATM    3  O   UNL     1      41.437 -13.248   5.318  1.00  0.00    -0.270 OA
HETATM    4  H   UNL     1      38.522 -13.881   6.377  1.00  0.00     0.190 HD
ENDROOT
BRANCH   2   5
HETATM    5  N   UNL     1      39.758 -12.497   7.305  1.00  0.00    -0.266 N 
HETATM    6  C   UNL     1      39.519 -11.133   7.283  1.00  0.00     0.258 C 
HETATM    7  O   UNL     1      39.122 -10.547   6.278  1.00  0.00    -0.269 OA
HETATM    8  H   UNL     1      39.827 -12.985   8.201  1.00  0.00     0.190 HD
BRANCH   6   9
HETATM    9  C   UNL     1      39.831 -10.433   8.619  1.00  0.00     0.173 C 
HETATM   10  C   UNL     1      38.578  -9.787   9.204  1.00  0.00     0.042 C 
BRANCH   9  11
HETATM   11  N   UNL     1      40.348 -11.397   9.588  1.00  0.00    -0.356 N 
HETATM   12  H   UNL     1      40.435 -12.362   9.288  1.00  0.00     0.162 HD
BRANCH  11  13
HETATM   13  C   UNL     1      40.883 -11.003  10.760  1.00  0.00     0.168 A 
HETATM   14  S   UNL     1      40.089 -11.371  12.238  1.00  0.00    -0.050 SA
HETATM   15  C   UNL     1      41.310 -10.533  13.112  1.00  0.00     0.037 A 
HETATM   16  C   UNL     1      42.258 -10.052  12.209  1.00  0.00     0.076 A 
HETATM   17  C   UNL     1      41.421 -10.313  14.495  1.00  0.00     0.021 A 
HETATM   18  N   UNL     1      42.011 -10.346  10.878  1.00  0.00    -0.223 NA
HETATM   19  C   UNL     1      43.358  -9.323  12.705  1.00  0.00     0.033 A 
HETATM   20  C   UNL     1      43.476  -9.092  14.080  1.00  0.00     0.002 A 
HETATM   21  C   UNL     1      42.519  -9.582  14.962  1.00  0.00     0.002 A 
ENDBRANCH  11  13
ENDBRANCH   9  11
ENDBRANCH   6   9
ENDBRANCH   2   5
BRANCH   1  22
HETATM   22  C   UNL     1      39.786 -14.651   4.233  1.00  0.00     0.227 C 
BRANCH  22  23
HETATM   23  N   UNL     1      40.630 -15.832   4.124  1.00  0.00    -0.348 N 
HETATM   24  C   UNL     1      41.490 -16.002   3.062  1.00  0.00     0.252 C 
HETATM   25  O   UNL     1      41.636 -15.135   2.207  1.00  0.00    -0.268 OA
HETATM   26  H   UNL     1      40.721 -16.422   4.940  1.00  0.00     0.163 HD
BRANCH  24  27
HETATM   27  C   UNL     1      42.301 -17.251   3.035  1.00  0.00     0.032 A 
HETATM   28  C   UNL     1      43.116 -17.539   4.138  1.00  0.00     0.024 A 
HETATM   29  C   UNL     1      43.905 -18.701   4.173  1.00  0.00    -0.055 A 
HETATM   30  C   UNL     1      43.895 -19.574   3.067  1.00  0.00    -0.056 A 
HETATM   31  C   UNL     1      44.773 -18.960   5.374  1.00  0.00     0.049 C 
HETATM   32  C   UNL     1      44.721 -20.832   3.051  1.00  0.00     0.049 C 
HETATM   33  C   UNL     1      43.081 -19.276   1.964  1.00  0.00     0.008 A 
HETATM   34  C   UNL     1      42.294 -18.122   1.942  1.00  0.00     0.017 A 
ENDBRANCH  24  27
ENDBRANCH  22  23
ENDBRANCH   1  22
TORSDOF 7
ENDMDL
MODEL 9
REMARK VINA RESULT:      -9.0      3.526     11.332
REMARK  7 active torsions:
REMARK  status: ('A' for Active; 'I' for Inactive)
REMARK    1  A    between atoms: C_6  and  C_7 
REMARK       I    between atoms: C_7  and  N_8 
REMARK    2  A    between atoms: N_8  and  C_9 
REMARK    3  A    between atoms: C_9  and  C_10 
REMARK       I    between atoms: C_10  and  N_11 
REMARK    4  A    between atoms: N_11  and  N_12 
REMARK       I    between atoms: N_12  and  C_13 
REMARK    5  A    between atoms: C_13  and  C_14 
REMARK    6  A    between atoms: C_14  and  N_15 
REMARK    7  A    between atoms: N_15  and  C_16 
ROOT
HETATM    1  C   UNL     1      40.598 -13.967   5.158  1.00  0.00     0.253 C 
HETATM    2  N   UNL     1      39.696 -13.612   6.141  1.00  0.00    -0.266 N 
HETATM    3  O   UNL     1      41.703 -13.433   5.046  1.00  0.00    -0.270 OA
HETATM    4  H   UNL     1      39.012 -14.306   6.464  1.00  0.00     0.190 HD
ENDROOT
BRANCH   2   5
HETATM    5  N   UNL     1      40.109 -12.662   7.094  1.00  0.00    -0.266 N 
HETATM    6  C   UNL     1      39.580 -11.386   7.010  1.00  0.00     0.258 C 
HETATM    7  O   UNL     1      38.924 -11.003   6.043  1.00  0.00    -0.269 OA
HETATM    8  H   UNL     1      40.411 -13.028   8.001  1.00  0.00     0.190 HD
BRANCH   6   9
HETATM    9  C   UNL     1      39.921 -10.498   8.222  1.00  0.00     0.173 C 
HETATM   10  C   UNL     1      38.810  -9.486   8.489  1.00  0.00     0.042 C 
BRANCH   9  11
HETATM   11  N   UNL     1      40.097 -11.318   9.419  1.00  0.00    -0.356 N 
HETATM   12  H   UNL     1      39.830 -12.295   9.360  1.00  0.00     0.162 HD
BRANCH  11  13
HETATM   13  C   UNL     1      40.771 -10.864  10.492  1.00  0.00     0.168 A 
HETATM   14  S   UNL     1      42.407 -10.363  10.336  1.00  0.00    -0.050 SA
HETATM   15  C   UNL     1      42.475 -10.029  12.020  1.00  0.00     0.037 A 
HETATM   16  C   UNL     1      41.227 -10.300  12.582  1.00  0.00     0.076 A 
HETATM   17  C   UNL     1      43.554  -9.565  12.793  1.00  0.00     0.021 A 
HETATM   18  N   UNL     1      40.264 -10.753  11.696  1.00  0.00    -0.223 NA
HETATM   19  C   UNL     1      41.049 -10.101  13.967  1.00  0.00     0.033 A 
HETATM   20  C   UNL     1      42.118  -9.644  14.747  1.00  0.00     0.002 A 
HETATM   21  C   UNL     1      43.353  -9.380  14.165  1.00  0.00     0.002 A 
ENDBRANCH  11  13
ENDBRANCH   9  11
ENDBRANCH   6   9
ENDBRANCH   2   5
BRANCH   1  22
HETATM   22  C   UNL     1      40.185 -15.170   4.305  1.00  0.00     0.227 C 
BRANCH  22  23
HETATM   23  N   UNL     1      41.044 -16.336   4.458  1.00  0.00    -0.348 N 
HETATM   24  C   UNL     1      42.039 -16.617   3.547  1.00  0.00     0.252 C 
HETATM   25  O   UNL     1      42.291 -15.860   2.616  1.00  0.00    -0.268 OA
HETATM   26  H   UNL     1      41.030 -16.817   5.346  1.00  0.00     0.163 HD
BRANCH  24  27
HETATM   27  C   UNL     1      42.853 -17.840   3.785  1.00  0.00     0.032 A 
HETATM   28  C   UNL     1      42.963 -18.778   2.750  1.00  0.00     0.024 A 
HETATM   29  C   UNL     1      43.717 -19.953   2.913  1.00  0.00    -0.055 A 
HETATM   30  C   UNL     1      44.347 -20.202   4.149  1.00  0.00    -0.056 A 
HETATM   31  C   UNL     1      43.795 -20.935   1.776  1.00  0.00     0.049 C 
HETATM   32  C   UNL     1      45.166 -21.443   4.378  1.00  0.00     0.049 C 
HETATM   33  C   UNL     1      44.228 -19.260   5.182  1.00  0.00     0.008 A 
HETATM   34  C   UNL     1      43.482 -18.092   5.008  1.00  0.00     0.017 A 
ENDBRANCH  24  27
ENDBRANCH  22  23
ENDBRANCH   1  22
TORSDOF 7
ENDMDL
MODEL 10
REMARK VINA RESULT:      -9.0      2.354      3.091
REMARK  7 active torsions:
REMARK  status: ('A' for Active; 'I' for Inactive)
REMARK    1  A    between atoms: C_6  and  C_7 
REMARK       I    between atoms: C_7  and  N_8 
REMARK    2  A    between atoms: N_8  and  C_9 
REMARK    3  A    between atoms: C_9  and  C_10 
REMARK       I    between atoms: C_10  and  N_11 
REMARK    4  A    between atoms: N_11  and  N_12 
REMARK       I    between atoms: N_12  and  C_13 
REMARK    5  A    between atoms: C_13  and  C_14 
REMARK    6  A    between atoms: C_14  and  N_15 
REMARK    7  A    between atoms: N_15  and  C_16 
ROOT
HETATM    1  C   UNL     1      39.884 -12.133   6.465  1.00  0.00     0.253 C 
HETATM    2  N   UNL     1      41.171 -12.582   6.242  1.00  0.00    -0.266 N 
HETATM    3  O   UNL     1      38.898 -12.865   6.367  1.00  0.00    -0.270 OA
HETATM    4  H   UNL     1      41.952 -12.110   6.712  1.00  0.00     0.190 HD
ENDROOT
BRANCH   2   5
HETATM    5  N   UNL     1      41.347 -13.953   5.977  1.00  0.00    -0.266 N 
HETATM    6  C   UNL     1      42.609 -14.386   5.611  1.00  0.00     0.258 C 
HETATM    7  O   UNL     1      43.520 -13.609   5.326  1.00  0.00    -0.269 OA
HETATM    8  H   UNL     1      40.709 -14.595   6.454  1.00  0.00     0.190 HD
BRANCH   6   9
HETATM    9  C   UNL     1      42.744 -15.920   5.564  1.00  0.00     0.173 C 
HETATM   10  C   UNL     1      41.375 -16.592   5.638  1.00  0.00     0.042 C 
BRANCH   9  11
HETATM   11  N   UNL     1      43.395 -16.335   4.323  1.00  0.00    -0.356 N 
HETATM   12  H   UNL     1      43.814 -15.611   3.750  1.00  0.00     0.162 HD
BRANCH  11  13
HETATM   13  C   UNL     1      43.617 -17.634   4.043  1.00  0.00     0.168 A 
HETATM   14  S   UNL     1      44.406 -18.641   5.188  1.00  0.00    -0.050 SA
HETATM   15  C   UNL     1      44.323 -19.964   4.094  1.00  0.00     0.037 A 
HETATM   16  C   UNL     1      43.669 -19.548   2.935  1.00  0.00     0.076 A 
HETATM   17  C   UNL     1      44.804 -21.276   4.246  1.00  0.00     0.021 A 
HETATM   18  N   UNL     1      43.255 -18.226   2.931  1.00  0.00    -0.223 NA
HETATM   19  C   UNL     1      43.488 -20.474   1.887  1.00  0.00     0.033 A 
HETATM   20  C   UNL     1      43.968 -21.781   2.025  1.00  0.00     0.002 A 
HETATM   21  C   UNL     1      44.616 -22.175   3.190  1.00  0.00     0.002 A 
ENDBRANCH  11  13
ENDBRANCH   9  11
ENDBRANCH   6   9
ENDBRANCH   2   5
BRANCH   1  22
HETATM   22  C   UNL     1      39.782 -10.695   6.984  1.00  0.00     0.227 C 
BRANCH  22  23
HETATM   23  N   UNL     1      40.307 -10.505   8.329  1.00  0.00    -0.348 N 
HETATM   24  C   UNL     1      41.597 -10.071   8.539  1.00  0.00     0.252 C 
HETATM   25  O   UNL     1      42.330  -9.756   7.607  1.00  0.00    -0.268 OA
HETATM   26  H   UNL     1      39.647 -10.501   9.095  1.00  0.00     0.163 HD
BRANCH  24  27
HETATM   27  C   UNL     1      42.043  -9.921   9.951  1.00  0.00     0.032 A 
HETATM   28  C   UNL     1      41.148  -9.368  10.876  1.00  0.00     0.024 A 
HETATM   29  C   UNL     1      41.510  -9.199  12.224  1.00  0.00    -0.055 A 
HETATM   30  C   UNL     1      42.805  -9.567  12.641  1.00  0.00    -0.056 A 
HETATM   31  C   UNL     1      40.518  -8.590  13.176  1.00  0.00     0.049 C 
HETATM   32  C   UNL     1      43.245  -9.408  14.071  1.00  0.00     0.049 C 
HETATM   33  C   UNL     1      43.697 -10.115  11.707  1.00  0.00     0.008 A 
HETATM   34  C   UNL     1      43.326 -10.286  10.371  1.00  0.00     0.017 A 
ENDBRANCH  24  27
ENDBRANCH  22  23
ENDBRANCH   1  22
TORSDOF 7
ENDMDL
