MODEL 1
REMARK VINA RESULT:      -8.2      0.000      0.000
REMARK  10 active torsions:
REMARK  status: ('A' for Active; 'I' for Inactive)
REMARK    1  A    between atoms: C_2  and  C_3 
REMARK    2  A    between atoms: C_3  and  C_4 
REMARK    3  A    between atoms: N_7  and  C_9 
REMARK    4  A    between atoms: C_9  and  C_10 
REMARK    5  A    between atoms: C_12  and  O_13 
REMARK    6  A    between atoms: O_13  and  C_14 
REMARK    7  A    between atoms: C_16  and  O_17 
REMARK    8  A    between atoms: N_25  and  C_26 
REMARK    9  A    between atoms: C_26  and  C_27 
REMARK   10  A    between atoms: C_27  and  C_28 
ROOT
HETATM    1  C   UNL     1      40.121 -15.585   2.690  1.00  0.00     0.026 C 
HETATM    2  C   UNL     1      40.928 -16.093   3.898  1.00  0.00     0.035 C 
HETATM    3  C   UNL     1      42.319 -16.625   3.557  1.00  0.00     0.235 C 
HETATM    4  N   UNL     1      42.252 -17.663   2.465  1.00  0.00    -0.067 N 
HETATM    5  H   UNL     1      41.764 -18.475   2.863  1.00  0.00     0.280 HD
HETATM    6  C   UNL     1      41.488 -17.214   1.243  1.00  0.00     0.235 C 
HETATM    7  C   UNL     1      40.113 -16.699   1.624  1.00  0.00     0.035 C 
ENDROOT
BRANCH   1   8
HETATM    8  C   UNL     1      40.540 -14.165   2.196  1.00  0.00     0.119 C 
HETATM    9  N   UNL     1      41.671 -14.192   1.283  1.00  0.00    -0.324 N 
HETATM   10  C   UNL     1      41.432 -13.417   0.166  1.00  0.00     0.326 C 
HETATM   11  H   UNL     1      42.634 -14.135   1.599  1.00  0.00     0.165 HD
HETATM   12  O   UNL     1      42.321 -13.084  -0.595  1.00  0.00    -0.247 OA
HETATM   13  N   UNL     1      40.111 -13.118   0.108  1.00  0.00    -0.268 N 
HETATM   14  C   UNL     1      39.487 -13.529   1.254  1.00  0.00     0.256 C 
HETATM   15  O   UNL     1      38.301 -13.400   1.523  1.00  0.00    -0.270 OA
BRANCH   8  16
HETATM   16  C   UNL     1      40.869 -13.150   3.322  1.00  0.00     0.037 C 
HETATM   17  C   UNL     1      42.347 -12.854   3.540  1.00  0.00     0.008 C 
ENDBRANCH   8  16
BRANCH  13  18
HETATM   18  C   UNL     1      39.515 -12.247  -0.893  1.00  0.00     0.142 C 
BRANCH  18  19
HETATM   19  C   UNL     1      39.971 -12.569  -2.321  1.00  0.00     0.068 C 
BRANCH  19  20
HETATM   20  C   UNL     1      39.171 -13.688  -2.906  1.00  0.00     0.010 A 
HETATM   21  S   UNL     1      37.542 -13.449  -3.389  1.00  0.00    -0.085 SA
HETATM   22  C   UNL     1      37.464 -15.085  -3.885  1.00  0.00     0.166 A 
HETATM   23  N   UNL     1      38.561 -15.790  -3.718  1.00  0.00    -0.258 NA
HETATM   24  C   UNL     1      39.547 -15.001  -3.152  1.00  0.00     0.044 A 
HETATM   25  C   UNL     1      40.873 -15.622  -2.879  1.00  0.00     0.071 C 
ENDBRANCH  19  20
ENDBRANCH  18  19
ENDBRANCH  13  18
ENDBRANCH   1   8
BRANCH   4  26
HETATM   26  C   UNL     1      43.622 -18.170   2.029  1.00  0.00     0.273 C 
BRANCH  26  27
HETATM   27  C   UNL     1      43.967 -19.561   2.485  1.00  0.00    -0.030 A 
HETATM   28  C   UNL     1      44.291 -19.792   3.838  1.00  0.00     0.048 A 
HETATM   29  C   UNL     1      44.592 -21.077   4.288  1.00  0.00     0.102 A 
HETATM   30  C   UNL     1      44.565 -22.130   3.370  1.00  0.00     0.099 A 
HETATM   31  C   UNL     1      44.253 -21.922   2.032  1.00  0.00     0.040 A 
HETATM   32  C   UNL     1      43.953 -20.637   1.585  1.00  0.00     0.012 A 
BRANCH  29  33
HETATM   33  O   UNL     1      44.914 -21.430   5.571  1.00  0.00    -0.349 OA
BRANCH  33  34
HETATM   34  C   UNL     1      43.846 -21.524   6.515  1.00  0.00     0.171 C 
HETATM   35  C   UNL     1      43.809 -20.238   7.319  1.00  0.00     0.034 C 
ENDBRANCH  33  34
ENDBRANCH  29  33
BRANCH  30  36
HETATM   36  O   UNL     1      44.853 -23.404   3.769  1.00  0.00    -0.358 OA
HETATM   37  H   UNL     1      45.731 -23.361   4.195  1.00  0.00     0.218 HD
ENDBRANCH  30  36
ENDBRANCH  26  27
ENDBRANCH   4  26
TORSDOF 10
ENDMDL
MODEL 2
REMARK VINA RESULT:      -8.2      1.684      2.508
REMARK  10 active torsions:
REMARK  status: ('A' for Active; 'I' for Inactive)
REMARK    1  A    between atoms: C_2  and  C_3 
REMARK    2  A    between atoms: C_3  and  C_4 
REMARK    3  A    between atoms: N_7  and  C_9 
REMARK    4  A    between atoms: C_9  and  C_10 
REMARK    5  A    between atoms: C_12  and  O_13 
REMARK    6  A    between atoms: O_13  and  C_14 
REMARK    7  A    between atoms: C_16  and  O_17 
REMARK    8  A    between atoms: N_25  and  C_26 
REMARK    9  A    between atoms: C_26  and  C_27 
REMARK   10  A    between atoms: C_27  and  C_28 
ROOT
HETATM    1  C   UNL     1      41.240 -14.999   1.834  1.00  0.00     0.026 C 
HETATM    2  C   UNL     1      42.630 -15.222   2.456  1.00  0.00     0.035 C 
HETATM    3  C   UNL     1      43.405 -16.406   1.878  1.00  0.00     0.235 C 
HETATM    4  N   UNL     1      42.577 -17.667   1.912  1.00  0.00    -0.067 N 
HETATM    5  H   UNL     1      42.454 -17.909   2.903  1.00  0.00     0.280 HD
HETATM    6  C   UNL     1      41.208 -17.513   1.296  1.00  0.00     0.235 C 
HETATM    7  C   UNL     1      40.471 -16.333   1.901  1.00  0.00     0.035 C 
ENDROOT
BRANCH   1   8
HETATM    8  C   UNL     1      41.272 -14.294   0.441  1.00  0.00     0.119 C 
HETATM    9  N   UNL     1      41.745 -15.162  -0.624  1.00  0.00    -0.324 N 
HETATM   10  C   UNL     1      40.915 -15.099  -1.726  1.00  0.00     0.326 C 
HETATM   11  H   UNL     1      42.725 -15.239  -0.877  1.00  0.00     0.165 HD
HETATM   12  O   UNL     1      41.248 -15.530  -2.814  1.00  0.00    -0.247 OA
HETATM   13  N   UNL     1      39.755 -14.495  -1.373  1.00  0.00    -0.268 N 
HETATM   14  C   UNL     1      39.853 -13.993  -0.104  1.00  0.00     0.256 C 
HETATM   15  O   UNL     1      38.988 -13.383   0.506  1.00  0.00    -0.270 OA
BRANCH   8  16
HETATM   16  C   UNL     1      42.106 -12.987   0.389  1.00  0.00     0.037 C 
HETATM   17  C   UNL     1      41.667 -11.880   1.338  1.00  0.00     0.008 C 
ENDBRANCH   8  16
BRANCH  13  18
HETATM   18  C   UNL     1      38.681 -14.184  -2.305  1.00  0.00     0.142 C 
BRANCH  18  19
HETATM   19  C   UNL     1      39.091 -13.172  -3.382  1.00  0.00     0.068 C 
BRANCH  19  20
HETATM   20  C   UNL     1      39.583 -11.899  -2.770  1.00  0.00     0.010 A 
HETATM   21  S   UNL     1      38.502 -10.826  -1.978  1.00  0.00    -0.085 SA
HETATM   22  C   UNL     1      39.813  -9.782  -1.636  1.00  0.00     0.166 A 
HETATM   23  N   UNL     1      40.990 -10.175  -2.066  1.00  0.00    -0.258 NA
HETATM   24  C   UNL     1      40.872 -11.387  -2.725  1.00  0.00     0.044 A 
HETATM   25  C   UNL     1      42.103 -12.002  -3.293  1.00  0.00     0.071 C 
ENDBRANCH  19  20
ENDBRANCH  18  19
ENDBRANCH  13  18
ENDBRANCH   1   8
BRANCH   4  26
HETATM   26  C   UNL     1      43.273 -18.862   1.271  1.00  0.00     0.273 C 
BRANCH  26  27
HETATM   27  C   UNL     1      43.777 -19.903   2.233  1.00  0.00    -0.030 A 
HETATM   28  C   UNL     1      44.029 -19.550   3.576  1.00  0.00     0.048 A 
HETATM   29  C   UNL     1      44.474 -20.502   4.490  1.00  0.00     0.102 A 
HETATM   30  C   UNL     1      44.665 -21.814   4.049  1.00  0.00     0.099 A 
HETATM   31  C   UNL     1      44.426 -22.182   2.730  1.00  0.00     0.040 A 
HETATM   32  C   UNL     1      43.982 -21.227   1.818  1.00  0.00     0.012 A 
BRANCH  29  33
HETATM   33  O   UNL     1      44.747 -20.288   5.815  1.00  0.00    -0.349 OA
BRANCH  33  34
HETATM   34  C   UNL     1      44.120 -19.168   6.442  1.00  0.00     0.171 C 
HETATM   35  C   UNL     1      45.185 -18.127   6.729  1.00  0.00     0.034 C 
ENDBRANCH  33  34
ENDBRANCH  29  33
BRANCH  30  36
HETATM   36  O   UNL     1      45.100 -22.779   4.913  1.00  0.00    -0.358 OA
HETATM   37  H   UNL     1      45.776 -22.353   5.475  1.00  0.00     0.218 HD
ENDBRANCH  30  36
ENDBRANCH  26  27
ENDBRANCH   4  26
TORSDOF 10
ENDMDL
MODEL 3
REMARK VINA RESULT:      -8.1      2.384      3.463
REMARK  10 active torsions:
REMARK  status: ('A' for Active; 'I' for Inactive)
REMARK    1  A    between atoms: C_2  and  C_3 
REMARK    2  A    between atoms: C_3  and  C_4 
REMARK    3  A    between atoms: N_7  and  C_9 
REMARK    4  A    between atoms: C_9  and  C_10 
REMARK    5  A    between atoms: C_12  and  O_13 
REMARK    6  A    between atoms: O_13  and  C_14 
REMARK    7  A    between atoms: C_16  and  O_17 
REMARK    8  A    between atoms: N_25  and  C_26 
REMARK    9  A    between atoms: C_26  and  C_27 
REMARK   10  A    between atoms: C_27  and  C_28 
ROOT
HETATM    1  C   UNL     1      40.407 -16.277   1.440  1.00  0.00     0.026 C 
HETATM    2  C   UNL     1      40.224 -16.933   2.820  1.00  0.00     0.035 C 
HETATM    3  C   UNL     1      41.505 -17.054   3.644  1.00  0.00     0.235 C 
HETATM    4  N   UNL     1      42.598 -17.731   2.854  1.00  0.00    -0.067 N 
HETATM    5  H   UNL     1      42.298 -18.704   2.714  1.00  0.00     0.280 HD
HETATM    6  C   UNL     1      42.837 -17.118   1.496  1.00  0.00     0.235 C 
HETATM    7  C   UNL     1      41.543 -17.020   0.710  1.00  0.00     0.035 C 
ENDROOT
BRANCH   1   8
HETATM    8  C   UNL     1      40.523 -14.721   1.485  1.00  0.00     0.119 C 
HETATM    9  N   UNL     1      41.818 -14.235   1.040  1.00  0.00    -0.324 N 
HETATM   10  C   UNL     1      41.681 -13.201   0.135  1.00  0.00     0.326 C 
HETATM   11  H   UNL     1      42.602 -14.100   1.671  1.00  0.00     0.165 HD
HETATM   12  O   UNL     1      42.610 -12.476  -0.168  1.00  0.00    -0.247 OA
HETATM   13  N   UNL     1      40.397 -13.158  -0.298  1.00  0.00    -0.268 N 
HETATM   14  C   UNL     1      39.629 -14.029   0.426  1.00  0.00     0.256 C 
HETATM   15  O   UNL     1      38.429 -14.223   0.293  1.00  0.00    -0.270 OA
BRANCH   8  16
HETATM   16  C   UNL     1      40.230 -14.083   2.868  1.00  0.00     0.037 C 
HETATM   17  C   UNL     1      41.418 -13.435   3.566  1.00  0.00     0.008 C 
ENDBRANCH   8  16
BRANCH  13  18
HETATM   18  C   UNL     1      39.873 -12.141  -1.196  1.00  0.00     0.142 C 
BRANCH  18  19
HETATM   19  C   UNL     1      40.085 -12.477  -2.677  1.00  0.00     0.068 C 
BRANCH  19  20
HETATM   20  C   UNL     1      39.183 -13.586  -3.116  1.00  0.00     0.010 A 
HETATM   21  S   UNL     1      37.539 -13.284  -3.505  1.00  0.00    -0.085 SA
HETATM   22  C   UNL     1      37.334 -14.945  -3.863  1.00  0.00     0.166 A 
HETATM   23  N   UNL     1      38.398 -15.701  -3.714  1.00  0.00    -0.258 NA
HETATM   24  C   UNL     1      39.466 -14.934  -3.281  1.00  0.00     0.044 A 
HETATM   25  C   UNL     1      40.770 -15.613  -3.049  1.00  0.00     0.071 C 
ENDBRANCH  19  20
ENDBRANCH  18  19
ENDBRANCH  13  18
ENDBRANCH   1   8
BRANCH   4  26
HETATM   26  C   UNL     1      43.924 -17.805   3.601  1.00  0.00     0.273 C 
BRANCH  26  27
HETATM   27  C   UNL     1      43.827 -17.679   5.096  1.00  0.00    -0.030 A 
HETATM   28  C   UNL     1      44.025 -16.422   5.706  1.00  0.00     0.048 A 
HETATM   29  C   UNL     1      43.918 -16.277   7.088  1.00  0.00     0.102 A 
HETATM   30  C   UNL     1      43.608 -17.403   7.856  1.00  0.00     0.099 A 
HETATM   31  C   UNL     1      43.413 -18.650   7.276  1.00  0.00     0.040 A 
HETATM   32  C   UNL     1      43.521 -18.793   5.894  1.00  0.00     0.012 A 
BRANCH  29  33
HETATM   33  O   UNL     1      44.080 -15.116   7.795  1.00  0.00    -0.349 OA
BRANCH  33  34
HETATM   34  C   UNL     1      44.391 -13.934   7.056  1.00  0.00     0.171 C 
HETATM   35  C   UNL     1      45.485 -13.186   7.795  1.00  0.00     0.034 C 
ENDBRANCH  33  34
ENDBRANCH  29  33
BRANCH  30  36
HETATM   36  O   UNL     1      43.492 -17.304   9.214  1.00  0.00    -0.358 OA
HETATM   37  H   UNL     1      42.947 -18.065   9.493  1.00  0.00     0.218 HD
ENDBRANCH  30  36
ENDBRANCH  26  27
ENDBRANCH   4  26
TORSDOF 10
ENDMDL
MODEL 4
REMARK VINA RESULT:      -8.0      1.522      1.882
REMARK  10 active torsions:
REMARK  status: ('A' for Active; 'I' for Inactive)
REMARK    1  A    between atoms: C_2  and  C_3 
REMARK    2  A    between atoms: C_3  and  C_4 
REMARK    3  A    between atoms: N_7  and  C_9 
REMARK    4  A    between atoms: C_9  and  C_10 
REMARK    5  A    between atoms: C_12  and  O_13 
REMARK    6  A    between atoms: O_13  and  C_14 
REMARK    7  A    between atoms: C_16  and  O_17 
REMARK    8  A    between atoms: N_25  and  C_26 
REMARK    9  A    between atoms: C_26  and  C_27 
REMARK   10  A    between atoms: C_27  and  C_28 
ROOT
HETATM    1  C   UNL     1      41.459 -14.410   4.798  1.00  0.00     0.026 C 
HETATM    2  C   UNL     1      42.859 -14.899   5.211  1.00  0.00     0.035 C 
HETATM    3  C   UNL     1      43.614 -15.664   4.124  1.00  0.00     0.235 C 
HETATM    4  N   UNL     1      42.778 -16.792   3.572  1.00  0.00    -0.067 N 
HETATM    5  H   UNL     1      42.672 -17.476   4.331  1.00  0.00     0.280 HD
HETATM    6  C   UNL     1      41.398 -16.368   3.131  1.00  0.00     0.235 C 
HETATM    7  C   UNL     1      40.682 -15.618   4.238  1.00  0.00     0.035 C 
ENDROOT
BRANCH   1   8
HETATM    8  C   UNL     1      41.470 -13.128   3.907  1.00  0.00     0.119 C 
HETATM    9  N   UNL     1      42.454 -13.188   2.838  1.00  0.00    -0.324 N 
HETATM   10  C   UNL     1      41.903 -12.812   1.629  1.00  0.00     0.326 C 
HETATM   11  H   UNL     1      43.408 -12.861   2.951  1.00  0.00     0.165 HD
HETATM   12  O   UNL     1      42.588 -12.537   0.662  1.00  0.00    -0.247 OA
HETATM   13  N   UNL     1      40.552 -12.802   1.742  1.00  0.00    -0.268 N 
HETATM   14  C   UNL     1      40.188 -12.993   3.047  1.00  0.00     0.256 C 
HETATM   15  O   UNL     1      39.049 -13.026   3.487  1.00  0.00    -0.270 OA
BRANCH   8  16
HETATM   16  C   UNL     1      41.689 -11.799   4.676  1.00  0.00     0.037 C 
HETATM   17  C   UNL     1      41.100 -11.738   6.079  1.00  0.00     0.008 C 
ENDBRANCH   8  16
BRANCH  13  18
HETATM   18  C   UNL     1      39.649 -12.373   0.685  1.00  0.00     0.142 C 
BRANCH  18  19
HETATM   19  C   UNL     1      39.002 -13.542  -0.067  1.00  0.00     0.068 C 
BRANCH  19  20
HETATM   20  C   UNL     1      39.746 -13.857  -1.325  1.00  0.00     0.010 A 
HETATM   21  S   UNL     1      39.431 -12.995  -2.775  1.00  0.00    -0.085 SA
HETATM   22  C   UNL     1      40.620 -13.931  -3.573  1.00  0.00     0.166 A 
HETATM   23  N   UNL     1      41.231 -14.833  -2.838  1.00  0.00    -0.258 NA
HETATM   24  C   UNL     1      40.735 -14.804  -1.545  1.00  0.00     0.044 A 
HETATM   25  C   UNL     1      41.301 -15.760  -0.554  1.00  0.00     0.071 C 
ENDBRANCH  19  20
ENDBRANCH  18  19
ENDBRANCH  13  18
ENDBRANCH   1   8
BRANCH   4  26
HETATM   26  C   UNL     1      43.453 -17.538   2.427  1.00  0.00     0.273 C 
BRANCH  26  27
HETATM   27  C   UNL     1      43.792 -18.975   2.709  1.00  0.00    -0.030 A 
HETATM   28  C   UNL     1      44.169 -19.361   4.013  1.00  0.00     0.048 A 
HETATM   29  C   UNL     1      44.466 -20.692   4.303  1.00  0.00     0.102 A 
HETATM   30  C   UNL     1      44.381 -21.635   3.275  1.00  0.00     0.099 A 
HETATM   31  C   UNL     1      44.017 -21.275   1.983  1.00  0.00     0.040 A 
HETATM   32  C   UNL     1      43.721 -19.944   1.696  1.00  0.00     0.012 A 
BRANCH  29  33
HETATM   33  O   UNL     1      44.835 -21.192   5.522  1.00  0.00    -0.349 OA
BRANCH  33  34
HETATM   34  C   UNL     1      43.811 -21.353   6.505  1.00  0.00     0.171 C 
HETATM   35  C   UNL     1      43.837 -20.145   7.422  1.00  0.00     0.034 C 
ENDBRANCH  33  34
ENDBRANCH  29  33
BRANCH  30  36
HETATM   36  O   UNL     1      44.663 -22.950   3.516  1.00  0.00    -0.358 OA
HETATM   37  H   UNL     1      44.868 -23.345   2.647  1.00  0.00     0.218 HD
ENDBRANCH  30  36
ENDBRANCH  26  27
ENDBRANCH   4  26
TORSDOF 10
ENDMDL
MODEL 5
REMARK VINA RESULT:      -7.9      3.427      8.555
REMARK  10 active torsions:
REMARK  status: ('A' for Active; 'I' for Inactive)
REMARK    1  A    between atoms: C_2  and  C_3 
REMARK    2  A    between atoms: C_3  and  C_4 
REMARK    3  A    between atoms: N_7  and  C_9 
REMARK    4  A    between atoms: C_9  and  C_10 
REMARK    5  A    between atoms: C_12  and  O_13 
REMARK    6  A    between atoms: O_13  and  C_14 
REMARK    7  A    between atoms: C_16  and  O_17 
REMARK    8  A    between atoms: N_25  and  C_26 
REMARK    9  A    between atoms: C_26  and  C_27 
REMARK   10  A    between atoms: C_27  and  C_28 
ROOT
HETATM    1  C   UNL     1      42.651 -14.214   4.819  1.00  0.00     0.026 C 
HETATM    2  C   UNL     1      41.932 -13.017   5.467  1.00  0.00     0.035 C 
HETATM    3  C   UNL     1      41.019 -12.235   4.524  1.00  0.00     0.235 C 
HETATM    4  N   UNL     1      41.754 -11.823   3.272  1.00  0.00    -0.067 N 
HETATM    5  H   UNL     1      42.462 -11.137   3.561  1.00  0.00     0.280 HD
HETATM    6  C   UNL     1      42.464 -12.962   2.580  1.00  0.00     0.235 C 
HETATM    7  C   UNL     1      43.363 -13.707   3.548  1.00  0.00     0.035 C 
ENDROOT
BRANCH   1   8
HETATM    8  C   UNL     1      41.752 -15.478   4.644  1.00  0.00     0.119 C 
HETATM    9  N   UNL     1      41.026 -15.489   3.385  1.00  0.00    -0.324 N 
HETATM   10  C   UNL     1      41.140 -16.711   2.752  1.00  0.00     0.326 C 
HETATM   11  H   UNL     1      40.104 -15.079   3.279  1.00  0.00     0.165 HD
HETATM   12  O   UNL     1      40.414 -17.034   1.831  1.00  0.00    -0.247 OA
HETATM   13  N   UNL     1      42.138 -17.420   3.334  1.00  0.00    -0.268 N 
HETATM   14  C   UNL     1      42.581 -16.774   4.456  1.00  0.00     0.256 C 
HETATM   15  O   UNL     1      43.463 -17.152   5.213  1.00  0.00    -0.270 OA
BRANCH   8  16
HETATM   16  C   UNL     1      40.725 -15.713   5.783  1.00  0.00     0.037 C 
HETATM   17  C   UNL     1      40.745 -17.095   6.422  1.00  0.00     0.008 C 
ENDBRANCH   8  16
BRANCH  13  18
HETATM   18  C   UNL     1      42.482 -18.788   2.977  1.00  0.00     0.142 C 
BRANCH  18  19
HETATM   19  C   UNL     1      43.994 -19.036   2.929  1.00  0.00     0.068 C 
BRANCH  19  20
HETATM   20  C   UNL     1      44.343 -20.372   3.504  1.00  0.00     0.010 A 
HETATM   21  S   UNL     1      44.753 -20.538   5.162  1.00  0.00    -0.085 SA
HETATM   22  C   UNL     1      44.962 -22.220   4.927  1.00  0.00     0.166 A 
HETATM   23  N   UNL     1      44.747 -22.662   3.708  1.00  0.00    -0.258 NA
HETATM   24  C   UNL     1      44.396 -21.610   2.880  1.00  0.00     0.044 A 
HETATM   25  C   UNL     1      44.113 -21.907   1.448  1.00  0.00     0.071 C 
ENDBRANCH  19  20
ENDBRANCH  18  19
ENDBRANCH  13  18
ENDBRANCH   1   8
BRANCH   4  26
HETATM   26  C   UNL     1      40.867 -11.109   2.259  1.00  0.00     0.273 C 
BRANCH  26  27
HETATM   27  C   UNL     1      40.018 -12.008   1.403  1.00  0.00    -0.030 A 
HETATM   28  C   UNL     1      40.478 -12.397   0.127  1.00  0.00     0.048 A 
HETATM   29  C   UNL     1      39.718 -13.247  -0.674  1.00  0.00     0.102 A 
HETATM   30  C   UNL     1      38.493 -13.708  -0.186  1.00  0.00     0.099 A 
HETATM   31  C   UNL     1      38.020 -13.334   1.066  1.00  0.00     0.040 A 
HETATM   32  C   UNL     1      38.781 -12.483   1.865  1.00  0.00     0.012 A 
BRANCH  29  33
HETATM   33  O   UNL     1      40.056 -13.700  -1.922  1.00  0.00    -0.349 OA
BRANCH  33  34
HETATM   34  C   UNL     1      41.098 -14.672  -2.009  1.00  0.00     0.171 C 
HETATM   35  C   UNL     1      40.683 -15.724  -3.020  1.00  0.00     0.034 C 
ENDBRANCH  33  34
ENDBRANCH  29  33
BRANCH  30  36
HETATM   36  O   UNL     1      37.718 -14.544  -0.939  1.00  0.00    -0.358 OA
HETATM   37  H   UNL     1      37.186 -13.967  -1.522  1.00  0.00     0.218 HD
ENDBRANCH  30  36
ENDBRANCH  26  27
ENDBRANCH   4  26
TORSDOF 10
ENDMDL
MODEL 6
REMARK VINA RESULT:      -7.9      2.724      4.287
REMARK  10 active torsions:
REMARK  status: ('A' for Active; 'I' for Inactive)
REMARK    1  A    between atoms: C_2  and  C_3 
REMARK    2  A    between atoms: C_3  and  C_4 
REMARK    3  A    between atoms: N_7  and  C_9 
REMARK    4  A    between atoms: C_9  and  C_10 
REMARK    5  A    between atoms: C_12  and  O_13 
REMARK    6  A    between atoms: O_13  and  C_14 
REMARK    7  A    between atoms: C_16  and  O_17 
REMARK    8  A    between atoms: N_25  and  C_26 
REMARK    9  A    between atoms: C_26  and  C_27 
REMARK   10  A    between atoms: C_27  and  C_28 
ROOT
HETATM    1  C   UNL     1      41.016 -16.188   0.769  1.00  0.00     0.026 C 
HETATM    2  C   UNL     1      40.295 -16.647   2.048  1.00  0.00     0.035 C 
HETATM    3  C   UNL     1      40.928 -16.155   3.349  1.00  0.00     0.235 C 
HETATM    4  N   UNL     1      42.399 -16.487   3.398  1.00  0.00    -0.067 N 
HETATM    5  H   UNL     1      42.466 -17.510   3.458  1.00  0.00     0.280 HD
HETATM    6  C   UNL     1      43.164 -16.042   2.175  1.00  0.00     0.235 C 
HETATM    7  C   UNL     1      42.507 -16.555   0.908  1.00  0.00     0.035 C 
ENDROOT
BRANCH   1   8
HETATM    8  C   UNL     1      40.708 -14.713   0.358  1.00  0.00     0.119 C 
HETATM    9  N   UNL     1      41.536 -13.744   1.057  1.00  0.00    -0.324 N 
HETATM   10  C   UNL     1      42.075 -12.822   0.182  1.00  0.00     0.326 C 
HETATM   11  H   UNL     1      41.268 -13.330   1.945  1.00  0.00     0.165 HD
HETATM   12  O   UNL     1      42.578 -11.782   0.564  1.00  0.00    -0.247 OA
HETATM   13  N   UNL     1      41.925 -13.275  -1.087  1.00  0.00    -0.268 N 
HETATM   14  C   UNL     1      41.143 -14.398  -1.095  1.00  0.00     0.256 C 
HETATM   15  O   UNL     1      40.808 -15.045  -2.077  1.00  0.00    -0.270 OA
BRANCH   8  16
HETATM   16  C   UNL     1      39.228 -14.281   0.533  1.00  0.00     0.037 C 
HETATM   17  C   UNL     1      38.947 -13.326   1.685  1.00  0.00     0.008 C 
ENDBRANCH   8  16
BRANCH  13  18
HETATM   18  C   UNL     1      42.302 -12.521  -2.272  1.00  0.00     0.142 C 
BRANCH  18  19
HETATM   19  C   UNL     1      41.176 -11.625  -2.801  1.00  0.00     0.068 C 
BRANCH  19  20
HETATM   20  C   UNL     1      41.593 -10.190  -2.832  1.00  0.00     0.010 A 
HETATM   21  S   UNL     1      41.354  -9.172  -1.470  1.00  0.00    -0.085 SA
HETATM   22  C   UNL     1      42.063  -7.876  -2.333  1.00  0.00     0.166 A 
HETATM   23  N   UNL     1      42.463  -8.148  -3.555  1.00  0.00    -0.258 NA
HETATM   24  C   UNL     1      42.195  -9.472  -3.856  1.00  0.00     0.044 A 
HETATM   25  C   UNL     1      42.573  -9.977  -5.204  1.00  0.00     0.071 C 
ENDBRANCH  19  20
ENDBRANCH  18  19
ENDBRANCH  13  18
ENDBRANCH   1   8
BRANCH   4  26
HETATM   26  C   UNL     1      43.098 -15.946   4.640  1.00  0.00     0.273 C 
BRANCH  26  27
HETATM   27  C   UNL     1      43.313 -16.947   5.742  1.00  0.00    -0.030 A 
HETATM   28  C   UNL     1      43.612 -18.288   5.420  1.00  0.00     0.048 A 
HETATM   29  C   UNL     1      43.837 -19.227   6.425  1.00  0.00     0.102 A 
HETATM   30  C   UNL     1      43.761 -18.813   7.757  1.00  0.00     0.099 A 
HETATM   31  C   UNL     1      43.464 -17.498   8.095  1.00  0.00     0.040 A 
HETATM   32  C   UNL     1      43.239 -16.561   7.089  1.00  0.00     0.012 A 
BRANCH  29  33
HETATM   33  O   UNL     1      44.140 -20.550   6.242  1.00  0.00    -0.349 OA
BRANCH  33  34
HETATM   34  C   UNL     1      44.786 -20.915   5.022  1.00  0.00     0.171 C 
HETATM   35  C   UNL     1      44.829 -22.429   4.942  1.00  0.00     0.034 C 
ENDBRANCH  33  34
ENDBRANCH  29  33
BRANCH  30  36
HETATM   36  O   UNL     1      43.976 -19.701   8.772  1.00  0.00    -0.358 OA
HETATM   37  H   UNL     1      43.091 -19.996   9.064  1.00  0.00     0.218 HD
ENDBRANCH  30  36
ENDBRANCH  26  27
ENDBRANCH   4  26
TORSDOF 10
ENDMDL
MODEL 7
REMARK VINA RESULT:      -7.9      5.308      8.256
REMARK  10 active torsions:
REMARK  status: ('A' for Active; 'I' for Inactive)
REMARK    1  A    between atoms: C_2  and  C_3 
REMARK    2  A    between atoms: C_3  and  C_4 
REMARK    3  A    between atoms: N_7  and  C_9 
REMARK    4  A    between atoms: C_9  and  C_10 
REMARK    5  A    between atoms: C_12  and  O_13 
REMARK    6  A    between atoms: O_13  and  C_14 
REMARK    7  A    between atoms: C_16  and  O_17 
REMARK    8  A    between atoms: N_25  and  C_26 
REMARK    9  A    between atoms: C_26  and  C_27 
REMARK   10  A    between atoms: C_27  and  C_28 
ROOT
HETATM    1  C   UNL     1      40.833 -12.743   4.077  1.00  0.00     0.026 C 
HETATM    2  C   UNL     1      40.288 -14.141   3.737  1.00  0.00     0.035 C 
HETATM    3  C   UNL     1      40.502 -15.191   4.826  1.00  0.00     0.235 C 
HETATM    4  N   UNL     1      41.949 -15.252   5.247  1.00  0.00    -0.067 N 
HETATM    5  H   UNL     1      42.472 -15.618   4.441  1.00  0.00     0.280 HD
HETATM    6  C   UNL     1      42.535 -13.910   5.612  1.00  0.00     0.235 C 
HETATM    7  C   UNL     1      42.307 -12.900   4.503  1.00  0.00     0.035 C 
ENDROOT
BRANCH   1   8
HETATM    8  C   UNL     1      39.923 -11.921   5.043  1.00  0.00     0.119 C 
HETATM    9  N   UNL     1      39.403 -12.715   6.145  1.00  0.00    -0.324 N 
HETATM   10  C   UNL     1      39.566 -12.063   7.351  1.00  0.00     0.326 C 
HETATM   11  H   UNL     1      38.527 -13.223   6.091  1.00  0.00     0.165 HD
HETATM   12  O   UNL     1      38.982 -12.410   8.360  1.00  0.00    -0.247 OA
HETATM   13  N   UNL     1      40.430 -11.032   7.185  1.00  0.00    -0.268 N 
HETATM   14  C   UNL     1      40.717 -10.870   5.857  1.00  0.00     0.256 C 
HETATM   15  O   UNL     1      41.454 -10.024   5.370  1.00  0.00    -0.270 OA
BRANCH   8  16
HETATM   16  C   UNL     1      38.721 -11.213   4.365  1.00  0.00     0.037 C 
HETATM   17  C   UNL     1      38.911 -10.833   2.903  1.00  0.00     0.008 C 
ENDBRANCH   8  16
BRANCH  13  18
HETATM   18  C   UNL     1      40.771 -10.077   8.228  1.00  0.00     0.142 C 
BRANCH  18  19
HETATM   19  C   UNL     1      42.183 -10.277   8.791  1.00  0.00     0.068 C 
BRANCH  19  20
HETATM   20  C   UNL     1      42.141 -10.693  10.226  1.00  0.00     0.010 A 
HETATM   21  S   UNL     1      40.647 -10.853  11.055  1.00  0.00    -0.085 SA
HETATM   22  C   UNL     1      41.496 -11.320  12.466  1.00  0.00     0.166 A 
HETATM   23  N   UNL     1      42.805 -11.366  12.361  1.00  0.00    -0.258 NA
HETATM   24  C   UNL     1      43.189 -11.003  11.081  1.00  0.00     0.044 A 
HETATM   25  C   UNL     1      44.643 -10.990  10.762  1.00  0.00     0.071 C 
ENDBRANCH  19  20
ENDBRANCH  18  19
ENDBRANCH  13  18
ENDBRANCH   1   8
BRANCH   4  26
HETATM   26  C   UNL     1      42.205 -16.228   6.390  1.00  0.00     0.273 C 
BRANCH  26  27
HETATM   27  C   UNL     1      42.951 -17.478   6.012  1.00  0.00    -0.030 A 
HETATM   28  C   UNL     1      43.251 -17.730   4.657  1.00  0.00     0.048 A 
HETATM   29  C   UNL     1      43.961 -18.871   4.286  1.00  0.00     0.102 A 
HETATM   30  C   UNL     1      44.369 -19.758   5.285  1.00  0.00     0.099 A 
HETATM   31  C   UNL     1      44.080 -19.531   6.625  1.00  0.00     0.040 A 
HETATM   32  C   UNL     1      43.370 -18.390   6.993  1.00  0.00     0.012 A 
BRANCH  29  33
HETATM   33  O   UNL     1      44.318 -19.223   3.012  1.00  0.00    -0.349 OA
BRANCH  33  34
HETATM   34  C   UNL     1      43.289 -19.717   2.153  1.00  0.00     0.171 C 
HETATM   35  C   UNL     1      43.611 -21.157   1.805  1.00  0.00     0.034 C 
ENDBRANCH  33  34
ENDBRANCH  29  33
BRANCH  30  36
HETATM   36  O   UNL     1      45.068 -20.888   4.964  1.00  0.00    -0.358 OA
HETATM   37  H   UNL     1      44.732 -21.589   5.557  1.00  0.00     0.218 HD
ENDBRANCH  30  36
ENDBRANCH  26  27
ENDBRANCH   4  26
TORSDOF 10
ENDMDL
MODEL 8
REMARK VINA RESULT:      -7.8      1.773      2.963
REMARK  10 active torsions:
REMARK  status: ('A' for Active; 'I' for Inactive)
REMARK    1  A    between atoms: C_2  and  C_3 
REMARK    2  A    between atoms: C_3  and  C_4 
REMARK    3  A    between atoms: N_7  and  C_9 
REMARK    4  A    between atoms: C_9  and  C_10 
REMARK    5  A    between atoms: C_12  and  O_13 
REMARK    6  A    between atoms: O_13  and  C_14 
REMARK    7  A    between atoms: C_16  and  O_17 
REMARK    8  A    between atoms: N_25  and  C_26 
REMARK    9  A    between atoms: C_26  and  C_27 
REMARK   10  A    between atoms: C_27  and  C_28 
ROOT
HETATM    1  C   UNL     1      40.501 -15.363   1.136  1.00  0.00     0.026 C 
HETATM    2  C   UNL     1      40.056 -16.123   2.398  1.00  0.00     0.035 C 
HETATM    3  C   UNL     1      40.882 -15.822   3.648  1.00  0.00     0.235 C 
HETATM    4  N   UNL     1      42.356 -16.008   3.385  1.00  0.00    -0.067 N 
HETATM    5  H   UNL     1      42.499 -17.013   3.227  1.00  0.00     0.280 HD
HETATM    6  C   UNL     1      42.855 -15.269   2.168  1.00  0.00     0.235 C 
HETATM    7  C   UNL     1      42.013 -15.600   0.950  1.00  0.00     0.035 C 
ENDROOT
BRANCH   1   8
HETATM    8  C   UNL     1      40.028 -13.876   1.088  1.00  0.00     0.119 C 
HETATM    9  N   UNL     1      41.021 -12.983   0.514  1.00  0.00    -0.324 N 
HETATM   10  C   UNL     1      40.458 -12.149  -0.431  1.00  0.00     0.326 C 
HETATM   11  H   UNL     1      41.730 -12.518   1.072  1.00  0.00     0.165 HD
HETATM   12  O   UNL     1      41.030 -11.158  -0.846  1.00  0.00    -0.247 OA
HETATM   13  N   UNL     1      39.230 -12.618  -0.761  1.00  0.00    -0.268 N 
HETATM   14  C   UNL     1      38.884 -13.650   0.068  1.00  0.00     0.256 C 
HETATM   15  O   UNL     1      37.839 -14.284   0.044  1.00  0.00    -0.270 OA
BRANCH   8  16
HETATM   16  C   UNL     1      39.594 -13.283   2.454  1.00  0.00     0.037 C 
HETATM   17  C   UNL     1      40.516 -12.223   3.041  1.00  0.00     0.008 C 
ENDBRANCH   8  16
BRANCH  13  18
HETATM   18  C   UNL     1      38.314 -11.942  -1.667  1.00  0.00     0.142 C 
BRANCH  18  19
HETATM   19  C   UNL     1      38.671 -12.142  -3.145  1.00  0.00     0.068 C 
BRANCH  19  20
HETATM   20  C   UNL     1      38.866 -13.590  -3.464  1.00  0.00     0.010 A 
HETATM   21  S   UNL     1      37.521 -14.624  -3.724  1.00  0.00    -0.085 SA
HETATM   22  C   UNL     1      38.595 -15.927  -4.001  1.00  0.00     0.166 A 
HETATM   23  N   UNL     1      39.876 -15.646  -3.915  1.00  0.00    -0.258 NA
HETATM   24  C   UNL     1      40.045 -14.308  -3.602  1.00  0.00     0.044 A 
HETATM   25  C   UNL     1      41.434 -13.791  -3.456  1.00  0.00     0.071 C 
ENDBRANCH  19  20
ENDBRANCH  18  19
ENDBRANCH  13  18
ENDBRANCH   1   8
BRANCH   4  26
HETATM   26  C   UNL     1      43.233 -15.643   4.577  1.00  0.00     0.273 C 
BRANCH  26  27
HETATM   27  C   UNL     1      43.373 -16.714   5.623  1.00  0.00    -0.030 A 
HETATM   28  C   UNL     1      43.922 -17.966   5.272  1.00  0.00     0.048 A 
HETATM   29  C   UNL     1      44.082 -18.966   6.229  1.00  0.00     0.102 A 
HETATM   30  C   UNL     1      43.690 -18.702   7.544  1.00  0.00     0.099 A 
HETATM   31  C   UNL     1      43.145 -17.477   7.910  1.00  0.00     0.040 A 
HETATM   32  C   UNL     1      42.984 -16.479   6.951  1.00  0.00     0.012 A 
BRANCH  29  33
HETATM   33  O   UNL     1      44.605 -20.213   6.016  1.00  0.00    -0.349 OA
BRANCH  33  34
HETATM   34  C   UNL     1      44.731 -20.652   4.663  1.00  0.00     0.171 C 
HETATM   35  C   UNL     1      44.803 -22.167   4.659  1.00  0.00     0.034 C 
ENDBRANCH  33  34
ENDBRANCH  29  33
BRANCH  30  36
HETATM   36  O   UNL     1      43.832 -19.654   8.513  1.00  0.00    -0.358 OA
HETATM   37  H   UNL     1      44.631 -19.407   9.019  1.00  0.00     0.218 HD
ENDBRANCH  30  36
ENDBRANCH  26  27
ENDBRANCH   4  26
TORSDOF 10
ENDMDL
MODEL 9
REMARK VINA RESULT:      -7.8      3.566      9.121
REMARK  10 active torsions:
REMARK  status: ('A' for Active; 'I' for Inactive)
REMARK    1  A    between atoms: C_2  and  C_3 
REMARK    2  A    between atoms: C_3  and  C_4 
REMARK    3  A    between atoms: N_7  and  C_9 
REMARK    4  A    between atoms: C_9  and  C_10 
REMARK    5  A    between atoms: C_12  and  O_13 
REMARK    6  A    between atoms: O_13  and  C_14 
REMARK    7  A    between atoms: C_16  and  O_17 
REMARK    8  A    between atoms: N_25  and  C_26 
REMARK    9  A    between atoms: C_26  and  C_27 
REMARK   10  A    between atoms: C_27  and  C_28 
ROOT
HETATM    1  C   UNL     1      41.891 -15.118   4.361  1.00  0.00     0.026 C 
HETATM    2  C   UNL     1      40.464 -14.753   4.807  1.00  0.00     0.035 C 
HETATM    3  C   UNL     1      39.699 -13.860   3.830  1.00  0.00     0.235 C 
HETATM    4  N   UNL     1      40.498 -12.629   3.478  1.00  0.00    -0.067 N 
HETATM    5  H   UNL     1      40.560 -12.066   4.336  1.00  0.00     0.280 HD
HETATM    6  C   UNL     1      41.903 -12.927   3.014  1.00  0.00     0.235 C 
HETATM    7  C   UNL     1      42.628 -13.809   4.013  1.00  0.00     0.035 C 
ENDROOT
BRANCH   1   8
HETATM    8  C   UNL     1      41.952 -16.247   3.284  1.00  0.00     0.119 C 
HETATM    9  N   UNL     1      43.093 -16.120   2.393  1.00  0.00    -0.324 N 
HETATM   10  C   UNL     1      43.754 -17.325   2.251  1.00  0.00     0.326 C 
HETATM   11  H   UNL     1      43.060 -15.589   1.528  1.00  0.00     0.165 HD
HETATM   12  O   UNL     1      44.566 -17.519   1.366  1.00  0.00    -0.247 OA
HETATM   13  N   UNL     1      43.332 -18.178   3.216  1.00  0.00    -0.268 N 
HETATM   14  C   UNL     1      42.277 -17.633   3.896  1.00  0.00     0.256 C 
HETATM   15  O   UNL     1      41.661 -18.149   4.817  1.00  0.00    -0.270 OA
BRANCH   8  16
HETATM   16  C   UNL     1      40.681 -16.383   2.406  1.00  0.00     0.037 C 
HETATM   17  C   UNL     1      40.849 -16.028   0.934  1.00  0.00     0.008 C 
ENDBRANCH   8  16
BRANCH  13  18
HETATM   18  C   UNL     1      43.756 -19.566   3.319  1.00  0.00     0.142 C 
BRANCH  18  19
HETATM   19  C   UNL     1      44.943 -19.765   4.269  1.00  0.00     0.068 C 
BRANCH  19  20
HETATM   20  C   UNL     1      44.490 -19.860   5.691  1.00  0.00     0.010 A 
HETATM   21  S   UNL     1      43.906 -21.340   6.334  1.00  0.00    -0.085 SA
HETATM   22  C   UNL     1      43.664 -20.571   7.844  1.00  0.00     0.166 A 
HETATM   23  N   UNL     1      43.987 -19.298   7.900  1.00  0.00    -0.258 NA
HETATM   24  C   UNL     1      44.458 -18.876   6.669  1.00  0.00     0.044 A 
HETATM   25  C   UNL     1      44.875 -17.454   6.526  1.00  0.00     0.071 C 
ENDBRANCH  19  20
ENDBRANCH  18  19
ENDBRANCH  13  18
ENDBRANCH   1   8
BRANCH   4  26
HETATM   26  C   UNL     1      39.815 -11.743   2.443  1.00  0.00     0.273 C 
BRANCH  26  27
HETATM   27  C   UNL     1      39.301 -12.458   1.225  1.00  0.00    -0.030 A 
HETATM   28  C   UNL     1      40.103 -12.530   0.066  1.00  0.00     0.048 A 
HETATM   29  C   UNL     1      39.656 -13.207  -1.068  1.00  0.00     0.102 A 
HETATM   30  C   UNL     1      38.398 -13.815  -1.031  1.00  0.00     0.099 A 
HETATM   31  C   UNL     1      37.591 -13.753   0.099  1.00  0.00     0.040 A 
HETATM   32  C   UNL     1      38.040 -13.074   1.231  1.00  0.00     0.012 A 
BRANCH  29  33
HETATM   33  O   UNL     1      40.338 -13.352  -2.245  1.00  0.00    -0.349 OA
BRANCH  33  34
HETATM   34  C   UNL     1      40.634 -12.166  -2.984  1.00  0.00     0.171 C 
HETATM   35  C   UNL     1      42.133 -12.104  -3.205  1.00  0.00     0.034 C 
ENDBRANCH  33  34
ENDBRANCH  29  33
BRANCH  30  36
HETATM   36  O   UNL     1      37.923 -14.489  -2.119  1.00  0.00    -0.358 OA
HETATM   37  H   UNL     1      37.553 -13.810  -2.717  1.00  0.00     0.218 HD
ENDBRANCH  30  36
ENDBRANCH  26  27
ENDBRANCH   4  26
TORSDOF 10
ENDMDL
MODEL 10
REMARK VINA RESULT:      -7.6      3.613      8.366
REMARK  10 active torsions:
REMARK  status: ('A' for Active; 'I' for Inactive)
REMARK    1  A    between atoms: C_2  and  C_3 
REMARK    2  A    between atoms: C_3  and  C_4 
REMARK    3  A    between atoms: N_7  and  C_9 
REMARK    4  A    between atoms: C_9  and  C_10 
REMARK    5  A    between atoms: C_12  and  O_13 
REMARK    6  A    between atoms: O_13  and  C_14 
REMARK    7  A    between atoms: C_16  and  O_17 
REMARK    8  A    between atoms: N_25  and  C_26 
REMARK    9  A    between atoms: C_26  and  C_27 
REMARK   10  A    between atoms: C_27  and  C_28 
ROOT
HETATM    1  C   UNL     1      40.019 -12.477   3.314  1.00  0.00     0.026 C 
HETATM    2  C   UNL     1      38.676 -12.151   2.638  1.00  0.00     0.035 C 
HETATM    3  C   UNL     1      38.758 -11.936   1.127  1.00  0.00     0.235 C 
HETATM    4  N   UNL     1      39.812 -10.914   0.779  1.00  0.00    -0.067 N 
HETATM    5  H   UNL     1      39.476 -10.013   1.142  1.00  0.00     0.280 HD
HETATM    6  C   UNL     1      41.159 -11.192   1.400  1.00  0.00     0.235 C 
HETATM    7  C   UNL     1      41.034 -11.393   2.898  1.00  0.00     0.035 C 
ENDROOT
BRANCH   1   8
HETATM    8  C   UNL     1      40.482 -13.957   3.132  1.00  0.00     0.119 C 
HETATM    9  N   UNL     1      41.833 -14.069   2.608  1.00  0.00    -0.324 N 
HETATM   10  C   UNL     1      42.578 -14.975   3.336  1.00  0.00     0.326 C 
HETATM   11  H   UNL     1      42.036 -14.105   1.614  1.00  0.00     0.165 HD
HETATM   12  O   UNL     1      43.635 -15.420   2.930  1.00  0.00    -0.247 OA
HETATM   13  N   UNL     1      41.932 -15.251   4.495  1.00  0.00    -0.268 N 
HETATM   14  C   UNL     1      40.686 -14.686   4.483  1.00  0.00     0.256 C 
HETATM   15  O   UNL     1      39.847 -14.755   5.370  1.00  0.00    -0.270 OA
BRANCH   8  16
HETATM   16  C   UNL     1      39.557 -14.826   2.239  1.00  0.00     0.037 C 
HETATM   17  C   UNL     1      40.221 -15.486   1.039  1.00  0.00     0.008 C 
ENDBRANCH   8  16
BRANCH  13  18
HETATM   18  C   UNL     1      42.388 -16.231   5.469  1.00  0.00     0.142 C 
BRANCH  18  19
HETATM   19  C   UNL     1      41.852 -17.642   5.201  1.00  0.00     0.068 C 
BRANCH  19  20
HETATM   20  C   UNL     1      42.943 -18.561   4.753  1.00  0.00     0.010 A 
HETATM   21  S   UNL     1      44.009 -19.284   5.887  1.00  0.00    -0.085 SA
HETATM   22  C   UNL     1      44.814 -20.078   4.603  1.00  0.00     0.166 A 
HETATM   23  N   UNL     1      44.346 -19.843   3.397  1.00  0.00    -0.258 NA
HETATM   24  C   UNL     1      43.275 -18.969   3.469  1.00  0.00     0.044 A 
HETATM   25  C   UNL     1      42.604 -18.575   2.199  1.00  0.00     0.071 C 
ENDBRANCH  19  20
ENDBRANCH  18  19
ENDBRANCH  13  18
ENDBRANCH   1   8
BRANCH   4  26
HETATM   26  C   UNL     1      39.992 -10.721  -0.722  1.00  0.00     0.273 C 
BRANCH  26  27
HETATM   27  C   UNL     1      40.614 -11.881  -1.448  1.00  0.00    -0.030 A 
HETATM   28  C   UNL     1      39.851 -13.042  -1.695  1.00  0.00     0.048 A 
HETATM   29  C   UNL     1      40.400 -14.121  -2.386  1.00  0.00     0.102 A 
HETATM   30  C   UNL     1      41.721 -14.028  -2.829  1.00  0.00     0.099 A 
HETATM   31  C   UNL     1      42.492 -12.895  -2.593  1.00  0.00     0.040 A 
HETATM   32  C   UNL     1      41.941 -11.818  -1.902  1.00  0.00     0.012 A 
BRANCH  29  33
HETATM   33  O   UNL     1      39.764 -15.294  -2.692  1.00  0.00    -0.349 OA
BRANCH  33  34
HETATM   34  C   UNL     1      38.985 -15.327  -3.888  1.00  0.00     0.171 C 
HETATM   35  C   UNL     1      37.526 -15.150  -3.510  1.00  0.00     0.034 C 
ENDBRANCH  33  34
ENDBRANCH  29  33
BRANCH  30  36
HETATM   36  O   UNL     1      42.298 -15.062  -3.511  1.00  0.00    -0.358 OA
HETATM   37  H   UNL     1      42.372 -15.798  -2.872  1.00  0.00     0.218 HD
ENDBRANCH  30  36
ENDBRANCH  26  27
ENDBRANCH   4  26
TORSDOF 10
ENDMDL
