MODEL 1
REMARK VINA RESULT:      -8.9      0.000      0.000
REMARK  8 active torsions:
REMARK  status: ('A' for Active; 'I' for Inactive)
REMARK    1  A    between atoms: N_4  and  C_6 
REMARK    2  A    between atoms: C_6  and  C_7 
REMARK       I    between atoms: C_7  and  N_8 
REMARK    3  A    between atoms: N_8  and  C_9 
REMARK    4  A    between atoms: C_15  and  C_16 
REMARK    5  A    between atoms: C_21  and  C_22 
REMARK       I    between atoms: C_22  and  N_23 
REMARK    6  A    between atoms: N_23  and  C_24 
REMARK    7  A    between atoms: C_25  and  O_26 
REMARK    8  A    between atoms: C_29  and  O_30 
ROOT
HETATM    1  C   UNL     1      42.024 -12.711   5.878  1.00  0.00     0.093 C 
HETATM    2  S   UNL     1      40.977 -12.383   4.585  1.00  0.00    -0.075 SA
HETATM    3  C   UNL     1      41.743 -13.518   3.595  1.00  0.00    -0.008 C 
HETATM    4  C   UNL     1      42.857 -14.087   4.187  1.00  0.00    -0.026 C 
HETATM    5  C   UNL     1      43.718 -15.031   3.397  1.00  0.00     0.041 C 
HETATM    6  C   UNL     1      43.341 -15.112   1.913  1.00  0.00     0.010 C 
HETATM    7  C   UNL     1      41.823 -15.097   1.620  1.00  0.00    -0.002 C 
HETATM    8  C   UNL     1      41.224 -13.799   2.217  1.00  0.00     0.052 C 
HETATM    9  C   UNL     1      42.973 -13.694   5.589  1.00  0.00     0.073 C 
ENDROOT
BRANCH   9  10
HETATM   10  C   UNL     1      43.834 -14.214   6.679  1.00  0.00     0.259 C 
HETATM   11  N   UNL     1      43.454 -15.385   7.272  1.00  0.00    -0.320 N 
HETATM   12  H   UNL     1      43.377 -15.332   8.284  1.00  0.00     0.169 HD
HETATM   13  O   UNL     1      44.660 -13.480   7.230  1.00  0.00    -0.267 OA
BRANCH  11  14
HETATM   14  C   UNL     1      43.799 -16.700   6.881  1.00  0.00     0.068 A 
HETATM   15  C   UNL     1      42.748 -17.640   6.854  1.00  0.00     0.097 A 
HETATM   16  C   UNL     1      42.974 -18.932   6.370  1.00  0.00     0.075 A 
HETATM   17  C   UNL     1      44.243 -19.290   5.913  1.00  0.00     0.070 A 
HETATM   18  C   UNL     1      45.291 -18.368   5.993  1.00  0.00     0.039 A 
HETATM   19  C   UNL     1      45.080 -17.077   6.487  1.00  0.00     0.035 A 
BRANCH  15  20
HETATM   20  O   UNL     1      41.537 -17.182   7.325  1.00  0.00    -0.354 OA
HETATM   21  C   UNL     1      40.579 -16.804   6.344  1.00  0.00     0.210 C 
ENDBRANCH  15  20
BRANCH  17  22
HETATM   22  O   UNL     1      44.588 -20.499   5.373  1.00  0.00    -0.356 OA
HETATM   23  C   UNL     1      44.743 -20.561   3.959  1.00  0.00     0.210 C 
ENDBRANCH  17  22
ENDBRANCH  11  14
ENDBRANCH   9  10
BRANCH   1  24
HETATM   24  N   UNL     1      41.779 -12.123   7.116  1.00  0.00    -0.319 N 
HETATM   25  C   UNL     1      41.618 -10.774   7.338  1.00  0.00     0.248 C 
HETATM   26  O   UNL     1      41.967  -9.842   6.611  1.00  0.00    -0.271 OA
HETATM   27  H   UNL     1      41.878 -12.764   7.907  1.00  0.00     0.169 HD
BRANCH  25  28
HETATM   28  C   UNL     1      40.878 -10.428   8.633  1.00  0.00     0.337 C 
BRANCH  28  29
HETATM   29  N   UNL     1      41.671 -10.963   9.838  1.00  0.00    -0.062 N 
HETATM   30  C   UNL     1      43.155 -10.683   9.732  1.00  0.00     0.239 C 
HETATM   31  C   UNL     1      43.885 -11.473  10.820  1.00  0.00     0.007 C 
HETATM   32  C   UNL     1      45.390 -11.226  10.748  1.00  0.00     0.011 C 
HETATM   33  C   UNL     1      43.339 -11.115  12.208  1.00  0.00     0.007 C 
HETATM   34  C   UNL     1      41.825 -11.306  12.274  1.00  0.00     0.028 C 
HETATM   35  C   UNL     1      41.100 -10.558  11.162  1.00  0.00     0.235 C 
HETATM   36  H   UNL     1      41.580 -11.991   9.733  1.00  0.00     0.280 HD
ENDBRANCH  28  29
ENDBRANCH  25  28
ENDBRANCH   1  24
BRANCH   7  37
HETATM   37  C   UNL     1      41.038 -16.432   1.927  1.00  0.00    -0.047 C 
HETATM   38  C   UNL     1      41.578 -17.253   3.109  1.00  0.00     0.015 C 
HETATM   39  C   UNL     1      39.559 -16.100   2.241  1.00  0.00     0.015 C 
HETATM   40  C   UNL     1      41.040 -17.341   0.677  1.00  0.00     0.015 C 
ENDBRANCH   7  37
TORSDOF 8
ENDMDL
MODEL 2
REMARK VINA RESULT:      -8.8      1.500      2.070
REMARK  8 active torsions:
REMARK  status: ('A' for Active; 'I' for Inactive)
REMARK    1  A    between atoms: N_4  and  C_6 
REMARK    2  A    between atoms: C_6  and  C_7 
REMARK       I    between atoms: C_7  and  N_8 
REMARK    3  A    between atoms: N_8  and  C_9 
REMARK    4  A    between atoms: C_15  and  C_16 
REMARK    5  A    between atoms: C_21  and  C_22 
REMARK       I    between atoms: C_22  and  N_23 
REMARK    6  A    between atoms: N_23  and  C_24 
REMARK    7  A    between atoms: C_25  and  O_26 
REMARK    8  A    between atoms: C_29  and  O_30 
ROOT
HETATM    1  C   UNL     1      41.096 -11.950   5.718  1.00  0.00     0.093 C 
HETATM    2  S   UNL     1      40.046 -11.163   4.644  1.00  0.00    -0.075 SA
HETATM    3  C   UNL     1      40.718 -11.953   3.310  1.00  0.00    -0.008 C 
HETATM    4  C   UNL     1      41.806 -12.742   3.640  1.00  0.00    -0.026 C 
HETATM    5  C   UNL     1      42.587 -13.422   2.552  1.00  0.00     0.041 C 
HETATM    6  C   UNL     1      42.176 -12.994   1.139  1.00  0.00     0.010 C 
HETATM    7  C   UNL     1      40.656 -12.803   0.927  1.00  0.00    -0.002 C 
HETATM    8  C   UNL     1      40.153 -11.741   1.937  1.00  0.00     0.052 C 
HETATM    9  C   UNL     1      41.975 -12.835   5.087  1.00  0.00     0.073 C 
ENDROOT
BRANCH   9  10
HETATM   10  C   UNL     1      42.823 -13.727   5.914  1.00  0.00     0.259 C 
HETATM   11  N   UNL     1      42.408 -15.021   6.067  1.00  0.00    -0.320 N 
HETATM   12  H   UNL     1      42.337 -15.322   7.034  1.00  0.00     0.169 HD
HETATM   13  O   UNL     1      43.674 -13.257   6.675  1.00  0.00    -0.267 OA
BRANCH  11  14
HETATM   14  C   UNL     1      42.710 -16.125   5.236  1.00  0.00     0.068 A 
HETATM   15  C   UNL     1      43.579 -17.095   5.777  1.00  0.00     0.097 A 
HETATM   16  C   UNL     1      43.840 -18.274   5.074  1.00  0.00     0.075 A 
HETATM   17  C   UNL     1      43.239 -18.490   3.833  1.00  0.00     0.070 A 
HETATM   18  C   UNL     1      42.421 -17.499   3.280  1.00  0.00     0.039 A 
HETATM   19  C   UNL     1      42.162 -16.311   3.970  1.00  0.00     0.035 A 
BRANCH  15  20
HETATM   20  O   UNL     1      44.114 -16.783   7.007  1.00  0.00    -0.354 OA
HETATM   21  C   UNL     1      43.588 -17.489   8.125  1.00  0.00     0.210 C 
ENDBRANCH  15  20
BRANCH  17  22
HETATM   22  O   UNL     1      43.370 -19.615   3.064  1.00  0.00    -0.356 OA
HETATM   23  C   UNL     1      44.591 -20.338   3.170  1.00  0.00     0.210 C 
ENDBRANCH  17  22
ENDBRANCH  11  14
ENDBRANCH   9  10
BRANCH   1  24
HETATM   24  N   UNL     1      40.914 -11.786   7.088  1.00  0.00    -0.319 N 
HETATM   25  C   UNL     1      41.207 -10.643   7.797  1.00  0.00     0.248 C 
HETATM   26  O   UNL     1      41.950  -9.718   7.466  1.00  0.00    -0.271 OA
HETATM   27  H   UNL     1      40.681 -12.650   7.582  1.00  0.00     0.169 HD
BRANCH  25  28
HETATM   28  C   UNL     1      40.474 -10.523   9.137  1.00  0.00     0.337 C 
BRANCH  28  29
HETATM   29  N   UNL     1      41.375 -11.052  10.267  1.00  0.00    -0.062 N 
HETATM   30  C   UNL     1      42.840 -10.753  10.034  1.00  0.00     0.239 C 
HETATM   31  C   UNL     1      43.672 -11.536  11.051  1.00  0.00     0.007 C 
HETATM   32  C   UNL     1      45.162 -11.269  10.851  1.00  0.00     0.011 C 
HETATM   33  C   UNL     1      43.243 -11.190  12.482  1.00  0.00     0.007 C 
HETATM   34  C   UNL     1      41.744 -11.401  12.678  1.00  0.00     0.028 C 
HETATM   35  C   UNL     1      40.916 -10.659  11.637  1.00  0.00     0.235 C 
HETATM   36  H   UNL     1      41.289 -12.080  10.166  1.00  0.00     0.280 HD
ENDBRANCH  28  29
ENDBRANCH  25  28
ENDBRANCH   1  24
BRANCH   7  37
HETATM   37  C   UNL     1      39.794 -14.121   0.816  1.00  0.00    -0.047 C 
HETATM   38  C   UNL     1      39.171 -14.610   2.135  1.00  0.00     0.015 C 
HETATM   39  C   UNL     1      38.632 -13.895  -0.181  1.00  0.00     0.015 C 
HETATM   40  C   UNL     1      40.660 -15.268   0.247  1.00  0.00     0.015 C 
ENDBRANCH   7  37
TORSDOF 8
ENDMDL
MODEL 3
REMARK VINA RESULT:      -8.5      3.340      5.878
REMARK  8 active torsions:
REMARK  status: ('A' for Active; 'I' for Inactive)
REMARK    1  A    between atoms: N_4  and  C_6 
REMARK    2  A    between atoms: C_6  and  C_7 
REMARK       I    between atoms: C_7  and  N_8 
REMARK    3  A    between atoms: N_8  and  C_9 
REMARK    4  A    between atoms: C_15  and  C_16 
REMARK    5  A    between atoms: C_21  and  C_22 
REMARK       I    between atoms: C_22  and  N_23 
REMARK    6  A    between atoms: N_23  and  C_24 
REMARK    7  A    between atoms: C_25  and  O_26 
REMARK    8  A    between atoms: C_29  and  O_30 
ROOT
HETATM    1  C   UNL     1      40.617 -13.300   4.878  1.00  0.00     0.093 C 
HETATM    2  S   UNL     1      41.365 -14.627   5.623  1.00  0.00    -0.075 SA
HETATM    3  C   UNL     1      41.098 -15.613   4.277  1.00  0.00    -0.008 C 
HETATM    4  C   UNL     1      40.356 -14.990   3.289  1.00  0.00    -0.026 C 
HETATM    5  C   UNL     1      39.934 -15.768   2.076  1.00  0.00     0.041 C 
HETATM    6  C   UNL     1      40.237 -17.268   2.169  1.00  0.00     0.010 C 
HETATM    7  C   UNL     1      41.592 -17.624   2.823  1.00  0.00    -0.002 C 
HETATM    8  C   UNL     1      41.620 -17.018   4.249  1.00  0.00     0.052 C 
HETATM    9  C   UNL     1      40.155 -13.575   3.588  1.00  0.00     0.073 C 
ENDROOT
BRANCH   9  10
HETATM   10  C   UNL     1      39.647 -12.464   2.748  1.00  0.00     0.259 C 
HETATM   11  N   UNL     1      40.438 -12.047   1.714  1.00  0.00    -0.320 N 
HETATM   12  H   UNL     1      40.632 -11.050   1.715  1.00  0.00     0.169 HD
HETATM   13  O   UNL     1      38.721 -11.750   3.145  1.00  0.00    -0.267 OA
BRANCH  11  14
HETATM   14  C   UNL     1      40.455 -12.543   0.389  1.00  0.00     0.068 A 
HETATM   15  C   UNL     1      41.637 -12.319  -0.347  1.00  0.00     0.097 A 
HETATM   16  C   UNL     1      41.786 -12.874  -1.621  1.00  0.00     0.075 A 
HETATM   17  C   UNL     1      40.762 -13.649  -2.165  1.00  0.00     0.070 A 
HETATM   18  C   UNL     1      39.571 -13.821  -1.450  1.00  0.00     0.039 A 
HETATM   19  C   UNL     1      39.407 -13.261  -0.180  1.00  0.00     0.035 A 
BRANCH  15  20
HETATM   20  O   UNL     1      42.584 -11.544   0.285  1.00  0.00    -0.354 OA
HETATM   21  C   UNL     1      42.934 -10.323  -0.357  1.00  0.00     0.210 C 
ENDBRANCH  15  20
BRANCH  17  22
HETATM   22  O   UNL     1      40.795 -14.286  -3.376  1.00  0.00    -0.356 OA
HETATM   23  C   UNL     1      39.839 -15.317  -3.596  1.00  0.00     0.210 C 
ENDBRANCH  17  22
ENDBRANCH  11  14
ENDBRANCH   9  10
BRANCH   1  24
HETATM   24  N   UNL     1      40.653 -12.059   5.507  1.00  0.00    -0.319 N 
HETATM   25  C   UNL     1      40.021 -11.748   6.689  1.00  0.00     0.248 C 
HETATM   26  O   UNL     1      39.085 -12.344   7.225  1.00  0.00    -0.271 OA
HETATM   27  H   UNL     1      41.071 -11.318   4.939  1.00  0.00     0.169 HD
BRANCH  25  28
HETATM   28  C   UNL     1      40.601 -10.532   7.418  1.00  0.00     0.337 C 
BRANCH  28  29
HETATM   29  N   UNL     1      41.120 -10.960   8.802  1.00  0.00    -0.062 N 
HETATM   30  C   UNL     1      42.558 -10.552   9.038  1.00  0.00     0.239 C 
HETATM   31  C   UNL     1      43.065 -11.242  10.306  1.00  0.00     0.007 C 
HETATM   32  C   UNL     1      44.518 -10.863  10.583  1.00  0.00     0.011 C 
HETATM   33  C   UNL     1      42.173 -10.895  11.505  1.00  0.00     0.007 C 
HETATM   34  C   UNL     1      40.709 -11.219  11.218  1.00  0.00     0.028 C 
HETATM   35  C   UNL     1      40.216 -10.571   9.930  1.00  0.00     0.235 C 
HETATM   36  H   UNL     1      41.140 -11.994   8.728  1.00  0.00     0.280 HD
ENDBRANCH  28  29
ENDBRANCH  25  28
ENDBRANCH   1  24
BRANCH   7  37
HETATM   37  C   UNL     1      42.879 -17.385   1.940  1.00  0.00    -0.047 C 
HETATM   38  C   UNL     1      43.806 -16.256   2.424  1.00  0.00     0.015 C 
HETATM   39  C   UNL     1      43.723 -18.681   1.898  1.00  0.00     0.015 C 
HETATM   40  C   UNL     1      42.465 -17.069   0.485  1.00  0.00     0.015 C 
ENDBRANCH   7  37
TORSDOF 8
ENDMDL
MODEL 4
REMARK VINA RESULT:      -8.1      3.684      8.228
REMARK  8 active torsions:
REMARK  status: ('A' for Active; 'I' for Inactive)
REMARK    1  A    between atoms: N_4  and  C_6 
REMARK    2  A    between atoms: C_6  and  C_7 
REMARK       I    between atoms: C_7  and  N_8 
REMARK    3  A    between atoms: N_8  and  C_9 
REMARK    4  A    between atoms: C_15  and  C_16 
REMARK    5  A    between atoms: C_21  and  C_22 
REMARK       I    between atoms: C_22  and  N_23 
REMARK    6  A    between atoms: N_23  and  C_24 
REMARK    7  A    between atoms: C_25  and  O_26 
REMARK    8  A    between atoms: C_29  and  O_30 
ROOT
HETATM    1  C   UNL     1      41.130 -13.953   2.293  1.00  0.00     0.093 C 
HETATM    2  S   UNL     1      39.609 -13.203   2.311  1.00  0.00    -0.075 SA
HETATM    3  C   UNL     1      39.826 -12.660   3.896  1.00  0.00    -0.008 C 
HETATM    4  C   UNL     1      40.999 -13.119   4.469  1.00  0.00    -0.026 C 
HETATM    5  C   UNL     1      41.286 -12.822   5.913  1.00  0.00     0.041 C 
HETATM    6  C   UNL     1      40.111 -12.173   6.654  1.00  0.00     0.010 C 
HETATM    7  C   UNL     1      39.323 -11.120   5.840  1.00  0.00    -0.002 C 
HETATM    8  C   UNL     1      38.789 -11.798   4.553  1.00  0.00     0.052 C 
HETATM    9  C   UNL     1      41.838 -13.802   3.488  1.00  0.00     0.073 C 
ENDROOT
BRANCH   9  10
HETATM   10  C   UNL     1      43.251 -14.245   3.554  1.00  0.00     0.259 C 
HETATM   11  N   UNL     1      43.501 -15.458   4.135  1.00  0.00    -0.320 N 
HETATM   12  H   UNL     1      44.189 -15.426   4.882  1.00  0.00     0.169 HD
HETATM   13  O   UNL     1      44.170 -13.438   3.388  1.00  0.00    -0.267 OA
BRANCH  11  14
HETATM   14  C   UNL     1      43.526 -16.724   3.505  1.00  0.00     0.068 A 
HETATM   15  C   UNL     1      43.247 -17.836   4.327  1.00  0.00     0.097 A 
HETATM   16  C   UNL     1      43.136 -19.112   3.768  1.00  0.00     0.075 A 
HETATM   17  C   UNL     1      43.302 -19.284   2.393  1.00  0.00     0.070 A 
HETATM   18  C   UNL     1      43.631 -18.184   1.594  1.00  0.00     0.039 A 
HETATM   19  C   UNL     1      43.756 -16.905   2.144  1.00  0.00     0.035 A 
BRANCH  15  20
HETATM   20  O   UNL     1      43.099 -17.554   5.667  1.00  0.00    -0.354 OA
HETATM   21  C   UNL     1      43.902 -18.308   6.566  1.00  0.00     0.210 C 
ENDBRANCH  15  20
BRANCH  17  22
HETATM   22  O   UNL     1      43.174 -20.465   1.712  1.00  0.00    -0.356 OA
HETATM   23  C   UNL     1      43.964 -21.562   2.158  1.00  0.00     0.210 C 
ENDBRANCH  17  22
ENDBRANCH  11  14
ENDBRANCH   9  10
BRANCH   1  24
HETATM   24  N   UNL     1      41.602 -14.501   1.104  1.00  0.00    -0.319 N 
HETATM   25  C   UNL     1      41.080 -15.610   0.476  1.00  0.00     0.248 C 
HETATM   26  O   UNL     1      40.363 -16.486   0.963  1.00  0.00    -0.271 OA
HETATM   27  H   UNL     1      42.491 -14.105   0.789  1.00  0.00     0.169 HD
BRANCH  25  28
HETATM   28  C   UNL     1      41.418 -15.713  -1.014  1.00  0.00     0.337 C 
BRANCH  28  29
HETATM   29  N   UNL     1      40.133 -15.558  -1.846  1.00  0.00    -0.062 N 
HETATM   30  C   UNL     1      39.549 -14.164  -1.765  1.00  0.00     0.239 C 
HETATM   31  C   UNL     1      38.153 -14.177  -2.392  1.00  0.00     0.007 C 
HETATM   32  C   UNL     1      37.520 -12.788  -2.328  1.00  0.00     0.011 C 
HETATM   33  C   UNL     1      38.214 -14.682  -3.838  1.00  0.00     0.007 C 
HETATM   34  C   UNL     1      38.895 -16.046  -3.920  1.00  0.00     0.028 C 
HETATM   35  C   UNL     1      40.266 -16.047  -3.255  1.00  0.00     0.235 C 
HETATM   36  H   UNL     1      39.460 -16.164  -1.342  1.00  0.00     0.280 HD
ENDBRANCH  28  29
ENDBRANCH  25  28
ENDBRANCH   1  24
BRANCH   7  37
HETATM   37  C   UNL     1      40.022  -9.717   5.649  1.00  0.00    -0.047 C 
HETATM   38  C   UNL     1      40.740  -9.520   4.304  1.00  0.00     0.015 C 
HETATM   39  C   UNL     1      38.964  -8.594   5.770  1.00  0.00     0.015 C 
HETATM   40  C   UNL     1      41.054  -9.488   6.777  1.00  0.00     0.015 C 
ENDBRANCH   7  37
TORSDOF 8
ENDMDL
MODEL 5
REMARK VINA RESULT:      -8.0      3.274      5.890
REMARK  8 active torsions:
REMARK  status: ('A' for Active; 'I' for Inactive)
REMARK    1  A    between atoms: N_4  and  C_6 
REMARK    2  A    between atoms: C_6  and  C_7 
REMARK       I    between atoms: C_7  and  N_8 
REMARK    3  A    between atoms: N_8  and  C_9 
REMARK    4  A    between atoms: C_15  and  C_16 
REMARK    5  A    between atoms: C_21  and  C_22 
REMARK       I    between atoms: C_22  and  N_23 
REMARK    6  A    between atoms: N_23  and  C_24 
REMARK    7  A    between atoms: C_25  and  O_26 
REMARK    8  A    between atoms: C_29  and  O_30 
ROOT
HETATM    1  C   UNL     1      40.690 -13.126   5.238  1.00  0.00     0.093 C 
HETATM    2  S   UNL     1      41.490 -14.465   5.902  1.00  0.00    -0.075 SA
HETATM    3  C   UNL     1      41.184 -15.406   4.533  1.00  0.00    -0.008 C 
HETATM    4  C   UNL     1      40.390 -14.762   3.601  1.00  0.00    -0.026 C 
HETATM    5  C   UNL     1      39.930 -15.503   2.378  1.00  0.00     0.041 C 
HETATM    6  C   UNL     1      40.261 -16.999   2.404  1.00  0.00     0.010 C 
HETATM    7  C   UNL     1      41.648 -17.354   2.987  1.00  0.00    -0.002 C 
HETATM    8  C   UNL     1      41.726 -16.800   4.432  1.00  0.00     0.052 C 
HETATM    9  C   UNL     1      40.179 -13.362   3.960  1.00  0.00     0.073 C 
ENDROOT
BRANCH   9  10
HETATM   10  C   UNL     1      39.617 -12.231   3.183  1.00  0.00     0.259 C 
HETATM   11  N   UNL     1      40.427 -11.650   2.247  1.00  0.00    -0.320 N 
HETATM   12  H   UNL     1      40.521 -10.644   2.347  1.00  0.00     0.169 HD
HETATM   13  O   UNL     1      38.602 -11.644   3.572  1.00  0.00    -0.267 OA
BRANCH  11  14
HETATM   14  C   UNL     1      40.575 -12.019   0.890  1.00  0.00     0.068 A 
HETATM   15  C   UNL     1      39.806 -11.292  -0.043  1.00  0.00     0.097 A 
HETATM   16  C   UNL     1      39.975 -11.509  -1.413  1.00  0.00     0.075 A 
HETATM   17  C   UNL     1      40.906 -12.449  -1.858  1.00  0.00     0.070 A 
HETATM   18  C   UNL     1      41.625 -13.203  -0.925  1.00  0.00     0.039 A 
HETATM   19  C   UNL     1      41.456 -13.002   0.448  1.00  0.00     0.035 A 
BRANCH  15  20
HETATM   20  O   UNL     1      38.921 -10.389   0.503  1.00  0.00    -0.354 OA
HETATM   21  C   UNL     1      37.549 -10.565   0.169  1.00  0.00     0.210 C 
ENDBRANCH  15  20
BRANCH  17  22
HETATM   22  O   UNL     1      41.203 -12.726  -3.165  1.00  0.00    -0.356 OA
HETATM   23  C   UNL     1      41.324 -14.096  -3.529  1.00  0.00     0.210 C 
ENDBRANCH  17  22
ENDBRANCH  11  14
ENDBRANCH   9  10
BRANCH   1  24
HETATM   24  N   UNL     1      40.732 -11.908   5.911  1.00  0.00    -0.319 N 
HETATM   25  C   UNL     1      40.044 -11.612   7.065  1.00  0.00     0.248 C 
HETATM   26  O   UNL     1      39.059 -12.192   7.527  1.00  0.00    -0.271 OA
HETATM   27  H   UNL     1      41.207 -11.164   5.393  1.00  0.00     0.169 HD
BRANCH  25  28
HETATM   28  C   UNL     1      40.623 -10.442   7.867  1.00  0.00     0.337 C 
BRANCH  28  29
HETATM   29  N   UNL     1      41.134 -10.952   9.226  1.00  0.00    -0.062 N 
HETATM   30  C   UNL     1      42.577 -10.577   9.485  1.00  0.00     0.239 C 
HETATM   31  C   UNL     1      43.073 -11.342  10.714  1.00  0.00     0.007 C 
HETATM   32  C   UNL     1      44.531 -11.000  11.012  1.00  0.00     0.011 C 
HETATM   33  C   UNL     1      42.184 -11.048  11.929  1.00  0.00     0.007 C 
HETATM   34  C   UNL     1      40.716 -11.335  11.625  1.00  0.00     0.028 C 
HETATM   35  C   UNL     1      40.234 -10.611  10.374  1.00  0.00     0.235 C 
HETATM   36  H   UNL     1      41.139 -11.980   9.097  1.00  0.00     0.280 HD
ENDBRANCH  28  29
ENDBRANCH  25  28
ENDBRANCH   1  24
BRANCH   7  37
HETATM   37  C   UNL     1      42.893 -17.060   2.061  1.00  0.00    -0.047 C 
HETATM   38  C   UNL     1      43.689 -15.793   2.414  1.00  0.00     0.015 C 
HETATM   39  C   UNL     1      43.879 -18.252   2.128  1.00  0.00     0.015 C 
HETATM   40  C   UNL     1      42.434 -16.938   0.589  1.00  0.00     0.015 C 
ENDBRANCH   7  37
TORSDOF 8
ENDMDL
MODEL 6
REMARK VINA RESULT:      -7.9      4.336      8.141
REMARK  8 active torsions:
REMARK  status: ('A' for Active; 'I' for Inactive)
REMARK    1  A    between atoms: N_4  and  C_6 
REMARK    2  A    between atoms: C_6  and  C_7 
REMARK       I    between atoms: C_7  and  N_8 
REMARK    3  A    between atoms: N_8  and  C_9 
REMARK    4  A    between atoms: C_15  and  C_16 
REMARK    5  A    between atoms: C_21  and  C_22 
REMARK       I    between atoms: C_22  and  N_23 
REMARK    6  A    between atoms: N_23  and  C_24 
REMARK    7  A    between atoms: C_25  and  O_26 
REMARK    8  A    between atoms: C_29  and  O_30 
ROOT
HETATM    1  C   UNL     1      40.335 -13.603   3.987  1.00  0.00     0.093 C 
HETATM    2  S   UNL     1      39.890 -14.292   5.471  1.00  0.00    -0.075 SA
HETATM    3  C   UNL     1      40.871 -15.643   5.209  1.00  0.00    -0.008 C 
HETATM    4  C   UNL     1      41.468 -15.643   3.961  1.00  0.00    -0.026 C 
HETATM    5  C   UNL     1      42.281 -16.830   3.528  1.00  0.00     0.041 C 
HETATM    6  C   UNL     1      42.195 -18.020   4.490  1.00  0.00     0.010 C 
HETATM    7  C   UNL     1      42.196 -17.651   5.991  1.00  0.00    -0.002 C 
HETATM    8  C   UNL     1      41.001 -16.703   6.262  1.00  0.00     0.052 C 
HETATM    9  C   UNL     1      41.244 -14.380   3.264  1.00  0.00     0.073 C 
ENDROOT
BRANCH   9  10
HETATM   10  C   UNL     1      41.862 -13.820   2.038  1.00  0.00     0.259 C 
HETATM   11  N   UNL     1      41.572 -14.437   0.853  1.00  0.00    -0.320 N 
HETATM   12  H   UNL     1      42.391 -14.713   0.318  1.00  0.00     0.169 HD
HETATM   13  O   UNL     1      42.824 -13.050   2.115  1.00  0.00    -0.267 OA
BRANCH  11  14
HETATM   14  C   UNL     1      40.493 -14.164  -0.019  1.00  0.00     0.068 A 
HETATM   15  C   UNL     1      40.825 -13.914  -1.366  1.00  0.00     0.097 A 
HETATM   16  C   UNL     1      39.816 -13.749  -2.319  1.00  0.00     0.075 A 
HETATM   17  C   UNL     1      38.478 -13.831  -1.935  1.00  0.00     0.070 A 
HETATM   18  C   UNL     1      38.157 -14.026  -0.587  1.00  0.00     0.039 A 
HETATM   19  C   UNL     1      39.158 -14.181   0.377  1.00  0.00     0.035 A 
BRANCH  15  20
HETATM   20  O   UNL     1      42.174 -13.856  -1.637  1.00  0.00    -0.354 OA
HETATM   21  C   UNL     1      42.622 -12.733  -2.387  1.00  0.00     0.210 C 
ENDBRANCH  15  20
BRANCH  17  22
HETATM   22  O   UNL     1      37.397 -13.736  -2.769  1.00  0.00    -0.356 OA
HETATM   23  C   UNL     1      37.284 -14.708  -3.802  1.00  0.00     0.210 C 
ENDBRANCH  17  22
ENDBRANCH  11  14
ENDBRANCH   9  10
BRANCH   1  24
HETATM   24  N   UNL     1      39.909 -12.313   3.682  1.00  0.00    -0.319 N 
HETATM   25  C   UNL     1      40.537 -11.154   4.079  1.00  0.00     0.248 C 
HETATM   26  O   UNL     1      41.346 -11.009   4.997  1.00  0.00    -0.271 OA
HETATM   27  H   UNL     1      38.981 -12.272   3.255  1.00  0.00     0.169 HD
BRANCH  25  28
HETATM   28  C   UNL     1      40.195  -9.925   3.231  1.00  0.00     0.337 C 
BRANCH  28  29
HETATM   29  N   UNL     1      39.432 -10.366   1.969  1.00  0.00    -0.062 N 
HETATM   30  C   UNL     1      37.939 -10.143   2.082  1.00  0.00     0.239 C 
HETATM   31  C   UNL     1      37.246 -10.847   0.914  1.00  0.00     0.007 C 
HETATM   32  C   UNL     1      35.732 -10.653   0.989  1.00  0.00     0.011 C 
HETATM   33  C   UNL     1      37.795 -10.341  -0.426  1.00  0.00     0.007 C 
HETATM   34  C   UNL     1      39.314 -10.479  -0.490  1.00  0.00     0.028 C 
HETATM   35  C   UNL     1      40.004  -9.820   0.698  1.00  0.00     0.235 C 
HETATM   36  H   UNL     1      39.554 -11.396   1.977  1.00  0.00     0.280 HD
ENDBRANCH  28  29
ENDBRANCH  25  28
ENDBRANCH   1  24
BRANCH   7  37
HETATM   37  C   UNL     1      43.584 -17.213   6.603  1.00  0.00    -0.047 C 
HETATM   38  C   UNL     1      43.936 -15.725   6.431  1.00  0.00     0.015 C 
HETATM   39  C   UNL     1      43.596 -17.511   8.122  1.00  0.00     0.015 C 
HETATM   40  C   UNL     1      44.723 -18.046   5.971  1.00  0.00     0.015 C 
ENDBRANCH   7  37
TORSDOF 8
ENDMDL
MODEL 7
REMARK VINA RESULT:      -7.9      4.335      7.109
REMARK  8 active torsions:
REMARK  status: ('A' for Active; 'I' for Inactive)
REMARK    1  A    between atoms: N_4  and  C_6 
REMARK    2  A    between atoms: C_6  and  C_7 
REMARK       I    between atoms: C_7  and  N_8 
REMARK    3  A    between atoms: N_8  and  C_9 
REMARK    4  A    between atoms: C_15  and  C_16 
REMARK    5  A    between atoms: C_21  and  C_22 
REMARK       I    between atoms: C_22  and  N_23 
REMARK    6  A    between atoms: N_23  and  C_24 
REMARK    7  A    between atoms: C_25  and  O_26 
REMARK    8  A    between atoms: C_29  and  O_30 
ROOT
HETATM    1  C   UNL     1      41.502 -13.262   3.080  1.00  0.00     0.093 C 
HETATM    2  S   UNL     1      41.337 -14.443   4.286  1.00  0.00    -0.075 SA
HETATM    3  C   UNL     1      41.412 -15.697   3.156  1.00  0.00    -0.008 C 
HETATM    4  C   UNL     1      41.462 -15.244   1.849  1.00  0.00    -0.026 C 
HETATM    5  C   UNL     1      41.417 -16.233   0.719  1.00  0.00     0.041 C 
HETATM    6  C   UNL     1      41.128 -17.670   1.169  1.00  0.00     0.010 C 
HETATM    7  C   UNL     1      41.825 -18.100   2.480  1.00  0.00    -0.002 C 
HETATM    8  C   UNL     1      41.391 -17.127   3.605  1.00  0.00     0.052 C 
HETATM    9  C   UNL     1      41.626 -13.794   1.795  1.00  0.00     0.073 C 
ENDROOT
BRANCH   9  10
HETATM   10  C   UNL     1      41.961 -12.893   0.666  1.00  0.00     0.259 C 
HETATM   11  N   UNL     1      41.749 -13.368  -0.599  1.00  0.00    -0.320 N 
HETATM   12  H   UNL     1      42.562 -13.311  -1.205  1.00  0.00     0.169 HD
HETATM   13  O   UNL     1      42.681 -11.906   0.843  1.00  0.00    -0.267 OA
BRANCH  11  14
HETATM   14  C   UNL     1      40.565 -13.273  -1.366  1.00  0.00     0.068 A 
HETATM   15  C   UNL     1      40.717 -12.842  -2.700  1.00  0.00     0.097 A 
HETATM   16  C   UNL     1      39.619 -12.830  -3.564  1.00  0.00     0.075 A 
HETATM   17  C   UNL     1      38.369 -13.245  -3.103  1.00  0.00     0.070 A 
HETATM   18  C   UNL     1      38.216 -13.619  -1.764  1.00  0.00     0.039 A 
HETATM   19  C   UNL     1      39.305 -13.624  -0.888  1.00  0.00     0.035 A 
BRANCH  15  20
HETATM   20  O   UNL     1      41.993 -12.458  -3.051  1.00  0.00    -0.354 OA
HETATM   21  C   UNL     1      42.107 -11.592  -4.174  1.00  0.00     0.210 C 
ENDBRANCH  15  20
BRANCH  17  22
HETATM   22  O   UNL     1      37.225 -13.327  -3.852  1.00  0.00    -0.356 OA
HETATM   23  C   UNL     1      36.790 -14.626  -4.236  1.00  0.00     0.210 C 
ENDBRANCH  17  22
ENDBRANCH  11  14
ENDBRANCH   9  10
BRANCH   1  24
HETATM   24  N   UNL     1      41.652 -11.929   3.452  1.00  0.00    -0.319 N 
HETATM   25  C   UNL     1      40.663 -11.138   3.991  1.00  0.00     0.248 C 
HETATM   26  O   UNL     1      39.444 -11.316   3.947  1.00  0.00    -0.271 OA
HETATM   27  H   UNL     1      42.535 -11.510   3.150  1.00  0.00     0.169 HD
BRANCH  25  28
HETATM   28  C   UNL     1      41.176  -9.919   4.764  1.00  0.00     0.337 C 
BRANCH  28  29
HETATM   29  N   UNL     1      40.609  -9.940   6.194  1.00  0.00    -0.062 N 
HETATM   30  C   UNL     1      41.687 -10.063   7.249  1.00  0.00     0.239 C 
HETATM   31  C   UNL     1      41.027 -10.343   8.600  1.00  0.00     0.007 C 
HETATM   32  C   UNL     1      42.080 -10.480   9.698  1.00  0.00     0.011 C 
HETATM   33  C   UNL     1      40.017  -9.242   8.948  1.00  0.00     0.007 C 
HETATM   34  C   UNL     1      38.991  -9.059   7.832  1.00  0.00     0.028 C 
HETATM   35  C   UNL     1      39.648  -8.826   6.477  1.00  0.00     0.235 C 
HETATM   36  H   UNL     1      40.096 -10.841   6.224  1.00  0.00     0.280 HD
ENDBRANCH  28  29
ENDBRANCH  25  28
ENDBRANCH   1  24
BRANCH   7  37
HETATM   37  C   UNL     1      43.371 -18.405   2.383  1.00  0.00    -0.047 C 
HETATM   38  C   UNL     1      44.155 -17.516   1.402  1.00  0.00     0.015 C 
HETATM   39  C   UNL     1      44.020 -18.228   3.777  1.00  0.00     0.015 C 
HETATM   40  C   UNL     1      43.590 -19.878   1.967  1.00  0.00     0.015 C 
ENDBRANCH   7  37
TORSDOF 8
ENDMDL
MODEL 8
REMARK VINA RESULT:      -7.8      3.462      8.301
REMARK  8 active torsions:
REMARK  status: ('A' for Active; 'I' for Inactive)
REMARK    1  A    between atoms: N_4  and  C_6 
REMARK    2  A    between atoms: C_6  and  C_7 
REMARK       I    between atoms: C_7  and  N_8 
REMARK    3  A    between atoms: N_8  and  C_9 
REMARK    4  A    between atoms: C_15  and  C_16 
REMARK    5  A    between atoms: C_21  and  C_22 
REMARK       I    between atoms: C_22  and  N_23 
REMARK    6  A    between atoms: N_23  and  C_24 
REMARK    7  A    between atoms: C_25  and  O_26 
REMARK    8  A    between atoms: C_29  and  O_30 
ROOT
HETATM    1  C   UNL     1      41.645 -15.138   1.665  1.00  0.00     0.093 C 
HETATM    2  S   UNL     1      40.838 -15.453   0.207  1.00  0.00    -0.075 SA
HETATM    3  C   UNL     1      40.854 -13.820  -0.227  1.00  0.00    -0.008 C 
HETATM    4  C   UNL     1      41.376 -13.003   0.760  1.00  0.00    -0.026 C 
HETATM    5  C   UNL     1      41.356 -11.512   0.578  1.00  0.00     0.041 C 
HETATM    6  C   UNL     1      40.564 -11.053  -0.652  1.00  0.00     0.010 C 
HETATM    7  C   UNL     1      40.736 -11.934  -1.910  1.00  0.00    -0.002 C 
HETATM    8  C   UNL     1      40.311 -13.381  -1.554  1.00  0.00     0.052 C 
HETATM    9  C   UNL     1      41.951 -13.787   1.850  1.00  0.00     0.073 C 
ENDROOT
BRANCH   9  10
HETATM   10  C   UNL     1      42.815 -13.388   2.987  1.00  0.00     0.259 C 
HETATM   11  N   UNL     1      42.443 -12.282   3.698  1.00  0.00    -0.320 N 
HETATM   12  H   UNL     1      43.172 -11.580   3.784  1.00  0.00     0.169 HD
HETATM   13  O   UNL     1      43.963 -13.833   3.089  1.00  0.00    -0.267 OA
BRANCH  11  14
HETATM   14  C   UNL     1      41.584 -12.228   4.820  1.00  0.00     0.068 A 
HETATM   15  C   UNL     1      41.133 -10.947   5.202  1.00  0.00     0.097 A 
HETATM   16  C   UNL     1      40.191 -10.811   6.225  1.00  0.00     0.075 A 
HETATM   17  C   UNL     1      39.697 -11.946   6.870  1.00  0.00     0.070 A 
HETATM   18  C   UNL     1      40.189 -13.208   6.521  1.00  0.00     0.039 A 
HETATM   19  C   UNL     1      41.140 -13.355   5.507  1.00  0.00     0.035 A 
BRANCH  15  20
HETATM   20  O   UNL     1      41.682  -9.898   4.499  1.00  0.00    -0.354 OA
HETATM   21  C   UNL     1      40.770  -9.046   3.817  1.00  0.00     0.210 C 
ENDBRANCH  15  20
BRANCH  17  22
HETATM   22  O   UNL     1      38.742 -11.958   7.851  1.00  0.00    -0.356 OA
HETATM   23  C   UNL     1      39.105 -11.423   9.119  1.00  0.00     0.210 C 
ENDBRANCH  17  22
ENDBRANCH  11  14
ENDBRANCH   9  10
BRANCH   1  24
HETATM   24  N   UNL     1      42.061 -16.206   2.455  1.00  0.00    -0.319 N 
HETATM   25  C   UNL     1      43.258 -16.872   2.325  1.00  0.00     0.248 C 
HETATM   26  O   UNL     1      44.009 -16.894   1.349  1.00  0.00    -0.271 OA
HETATM   27  H   UNL     1      41.330 -16.579   3.066  1.00  0.00     0.169 HD
BRANCH  25  28
HETATM   28  C   UNL     1      43.697 -17.636   3.578  1.00  0.00     0.337 C 
BRANCH  28  29
HETATM   29  N   UNL     1      44.087 -19.075   3.195  1.00  0.00    -0.062 N 
HETATM   30  C   UNL     1      44.283 -19.968   4.401  1.00  0.00     0.239 C 
HETATM   31  C   UNL     1      44.920 -21.282   3.943  1.00  0.00     0.007 C 
HETATM   32  C   UNL     1      45.143 -22.216   5.131  1.00  0.00     0.011 C 
HETATM   33  C   UNL     1      44.057 -21.958   2.871  1.00  0.00     0.007 C 
HETATM   34  C   UNL     1      43.782 -21.013   1.704  1.00  0.00     0.028 C 
HETATM   35  C   UNL     1      43.191 -19.686   2.163  1.00  0.00     0.235 C 
HETATM   36  H   UNL     1      45.033 -18.955   2.789  1.00  0.00     0.280 HD
ENDBRANCH  28  29
ENDBRANCH  25  28
ENDBRANCH   1  24
BRANCH   7  37
HETATM   37  C   UNL     1      42.101 -11.782  -2.690  1.00  0.00    -0.047 C 
HETATM   38  C   UNL     1      43.044 -12.994  -2.604  1.00  0.00     0.015 C 
HETATM   39  C   UNL     1      41.813 -11.533  -4.190  1.00  0.00     0.015 C 
HETATM   40  C   UNL     1      42.868 -10.546  -2.168  1.00  0.00     0.015 C 
ENDBRANCH   7  37
TORSDOF 8
ENDMDL
MODEL 9
REMARK VINA RESULT:      -7.7      4.060      7.669
REMARK  8 active torsions:
REMARK  status: ('A' for Active; 'I' for Inactive)
REMARK    1  A    between atoms: N_4  and  C_6 
REMARK    2  A    between atoms: C_6  and  C_7 
REMARK       I    between atoms: C_7  and  N_8 
REMARK    3  A    between atoms: N_8  and  C_9 
REMARK    4  A    between atoms: C_15  and  C_16 
REMARK    5  A    between atoms: C_21  and  C_22 
REMARK       I    between atoms: C_22  and  N_23 
REMARK    6  A    between atoms: N_23  and  C_24 
REMARK    7  A    between atoms: C_25  and  O_26 
REMARK    8  A    between atoms: C_29  and  O_30 
ROOT
HETATM    1  C   UNL     1      39.979 -14.029  -0.055  1.00  0.00     0.093 C 
HETATM    2  S   UNL     1      40.579 -13.727  -1.611  1.00  0.00    -0.075 SA
HETATM    3  C   UNL     1      40.485 -12.054  -1.390  1.00  0.00    -0.008 C 
HETATM    4  C   UNL     1      39.909 -11.700  -0.183  1.00  0.00    -0.026 C 
HETATM    5  C   UNL     1      39.648 -10.252   0.118  1.00  0.00     0.041 C 
HETATM    6  C   UNL     1      39.897  -9.320  -1.073  1.00  0.00     0.010 C 
HETATM    7  C   UNL     1      41.134  -9.669  -1.932  1.00  0.00    -0.002 C 
HETATM    8  C   UNL     1      40.971 -11.118  -2.456  1.00  0.00     0.052 C 
HETATM    9  C   UNL     1      39.702 -12.867   0.669  1.00  0.00     0.073 C 
ENDROOT
BRANCH   9  10
HETATM   10  C   UNL     1      39.348 -12.975   2.105  1.00  0.00     0.259 C 
HETATM   11  N   UNL     1      39.996 -13.928   2.841  1.00  0.00    -0.320 N 
HETATM   12  H   UNL     1      39.376 -14.557   3.343  1.00  0.00     0.169 HD
HETATM   13  O   UNL     1      38.312 -12.459   2.537  1.00  0.00    -0.267 OA
BRANCH  11  14
HETATM   14  C   UNL     1      41.218 -13.792   3.539  1.00  0.00     0.068 A 
HETATM   15  C   UNL     1      41.133 -13.746   4.946  1.00  0.00     0.097 A 
HETATM   16  C   UNL     1      42.296 -13.730   5.720  1.00  0.00     0.075 A 
HETATM   17  C   UNL     1      43.545 -13.759   5.097  1.00  0.00     0.070 A 
HETATM   18  C   UNL     1      43.620 -13.751   3.700  1.00  0.00     0.039 A 
HETATM   19  C   UNL     1      42.463 -13.756   2.916  1.00  0.00     0.035 A 
BRANCH  15  20
HETATM   20  O   UNL     1      39.854 -13.723   5.456  1.00  0.00    -0.354 OA
HETATM   21  C   UNL     1      39.479 -12.555   6.176  1.00  0.00     0.210 C 
ENDBRANCH  15  20
BRANCH  17  22
HETATM   22  O   UNL     1      44.757 -13.794   5.732  1.00  0.00    -0.356 OA
HETATM   23  C   UNL     1      44.748 -14.011   7.139  1.00  0.00     0.210 C 
ENDBRANCH  17  22
ENDBRANCH  11  14
ENDBRANCH   9  10
BRANCH   1  24
HETATM   24  N   UNL     1      39.955 -15.338   0.421  1.00  0.00    -0.319 N 
HETATM   25  C   UNL     1      41.063 -16.124   0.642  1.00  0.00     0.248 C 
HETATM   26  O   UNL     1      42.197 -15.978   0.184  1.00  0.00    -0.271 OA
HETATM   27  H   UNL     1      39.019 -15.749   0.455  1.00  0.00     0.169 HD
BRANCH  25  28
HETATM   28  C   UNL     1      40.830 -17.288   1.611  1.00  0.00     0.337 C 
BRANCH  28  29
HETATM   29  N   UNL     1      42.148 -17.633   2.327  1.00  0.00    -0.062 N 
HETATM   30  C   UNL     1      42.070 -17.427   3.824  1.00  0.00     0.239 C 
HETATM   31  C   UNL     1      43.479 -17.533   4.411  1.00  0.00     0.007 C 
HETATM   32  C   UNL     1      43.451 -17.326   5.924  1.00  0.00     0.011 C 
HETATM   33  C   UNL     1      44.112 -18.884   4.057  1.00  0.00     0.007 C 
HETATM   34  C   UNL     1      44.096 -19.126   2.549  1.00  0.00     0.028 C 
HETATM   35  C   UNL     1      42.701 -18.974   1.956  1.00  0.00     0.235 C 
HETATM   36  H   UNL     1      42.793 -16.897   1.985  1.00  0.00     0.280 HD
ENDBRANCH  28  29
ENDBRANCH  25  28
ENDBRANCH   1  24
BRANCH   7  37
HETATM   37  C   UNL     1      42.541  -9.308  -1.312  1.00  0.00    -0.047 C 
HETATM   38  C   UNL     1      42.513  -8.861   0.160  1.00  0.00     0.015 C 
HETATM   39  C   UNL     1      43.473 -10.541  -1.396  1.00  0.00     0.015 C 
HETATM   40  C   UNL     1      43.205  -8.183  -2.138  1.00  0.00     0.015 C 
ENDBRANCH   7  37
TORSDOF 8
ENDMDL
MODEL 10
REMARK VINA RESULT:      -7.6      2.877      6.070
REMARK  8 active torsions:
REMARK  status: ('A' for Active; 'I' for Inactive)
REMARK    1  A    between atoms: N_4  and  C_6 
REMARK    2  A    between atoms: C_6  and  C_7 
REMARK       I    between atoms: C_7  and  N_8 
REMARK    3  A    between atoms: N_8  and  C_9 
REMARK    4  A    between atoms: C_15  and  C_16 
REMARK    5  A    between atoms: C_21  and  C_22 
REMARK       I    between atoms: C_22  and  N_23 
REMARK    6  A    between atoms: N_23  and  C_24 
REMARK    7  A    between atoms: C_25  and  O_26 
REMARK    8  A    between atoms: C_29  and  O_30 
ROOT
HETATM    1  C   UNL     1      41.196 -14.375   5.021  1.00  0.00     0.093 C 
HETATM    2  S   UNL     1      41.004 -15.945   5.631  1.00  0.00    -0.075 SA
HETATM    3  C   UNL     1      41.311 -16.638   4.121  1.00  0.00    -0.008 C 
HETATM    4  C   UNL     1      41.463 -15.698   3.117  1.00  0.00    -0.026 C 
HETATM    5  C   UNL     1      41.627 -16.152   1.694  1.00  0.00     0.041 C 
HETATM    6  C   UNL     1      41.418 -17.658   1.500  1.00  0.00     0.010 C 
HETATM    7  C   UNL     1      42.003 -18.551   2.618  1.00  0.00    -0.002 C 
HETATM    8  C   UNL     1      41.366 -18.128   3.965  1.00  0.00     0.052 C 
HETATM    9  C   UNL     1      41.505 -14.343   3.659  1.00  0.00     0.073 C 
ENDROOT
BRANCH   9  10
HETATM   10  C   UNL     1      41.881 -13.053   3.031  1.00  0.00     0.259 C 
HETATM   11  N   UNL     1      40.882 -12.328   2.443  1.00  0.00    -0.320 N 
HETATM   12  H   UNL     1      41.069 -12.071   1.478  1.00  0.00     0.169 HD
HETATM   13  O   UNL     1      43.062 -12.801   2.774  1.00  0.00    -0.267 OA
BRANCH  11  14
HETATM   14  C   UNL     1      40.050 -11.359   3.050  1.00  0.00     0.068 A 
HETATM   15  C   UNL     1      38.674 -11.440   2.750  1.00  0.00     0.097 A 
HETATM   16  C   UNL     1      37.764 -10.598   3.396  1.00  0.00     0.075 A 
HETATM   17  C   UNL     1      38.220  -9.675   4.338  1.00  0.00     0.070 A 
HETATM   18  C   UNL     1      39.592  -9.565   4.590  1.00  0.00     0.039 A 
HETATM   19  C   UNL     1      40.512 -10.394   3.942  1.00  0.00     0.035 A 
BRANCH  15  20
HETATM   20  O   UNL     1      38.333 -12.387   1.810  1.00  0.00    -0.354 OA
HETATM   21  C   UNL     1      37.204 -12.093   0.996  1.00  0.00     0.210 C 
ENDBRANCH  15  20
BRANCH  17  22
HETATM   22  O   UNL     1      37.436  -8.827   5.073  1.00  0.00    -0.356 OA
HETATM   23  C   UNL     1      38.099  -7.928   5.955  1.00  0.00     0.210 C 
ENDBRANCH  17  22
ENDBRANCH  11  14
ENDBRANCH   9  10
BRANCH   1  24
HETATM   24  N   UNL     1      41.188 -13.298   5.903  1.00  0.00    -0.319 N 
HETATM   25  C   UNL     1      42.302 -12.744   6.492  1.00  0.00     0.248 C 
HETATM   26  O   UNL     1      43.417 -13.251   6.626  1.00  0.00    -0.271 OA
HETATM   27  H   UNL     1      40.253 -13.027   6.218  1.00  0.00     0.169 HD
BRANCH  25  28
HETATM   28  C   UNL     1      42.106 -11.310   6.994  1.00  0.00     0.337 C 
BRANCH  28  29
HETATM   29  N   UNL     1      41.860 -11.325   8.512  1.00  0.00    -0.062 N 
HETATM   30  C   UNL     1      43.024 -10.762   9.299  1.00  0.00     0.239 C 
HETATM   31  C   UNL     1      42.807 -11.061  10.784  1.00  0.00     0.007 C 
HETATM   32  C   UNL     1      43.964 -10.515  11.619  1.00  0.00     0.011 C 
HETATM   33  C   UNL     1      41.469 -10.483  11.261  1.00  0.00     0.007 C 
HETATM   34  C   UNL     1      40.311 -10.979  10.398  1.00  0.00     0.028 C 
HETATM   35  C   UNL     1      40.548 -10.725   8.915  1.00  0.00     0.235 C 
HETATM   36  H   UNL     1      41.848 -12.338   8.732  1.00  0.00     0.280 HD
ENDBRANCH  28  29
ENDBRANCH  25  28
ENDBRANCH   1  24
BRANCH   7  37
HETATM   37  C   UNL     1      43.571 -18.735   2.617  1.00  0.00    -0.047 C 
HETATM   38  C   UNL     1      44.259 -18.511   3.975  1.00  0.00     0.015 C 
HETATM   39  C   UNL     1      43.922 -20.172   2.161  1.00  0.00     0.015 C 
HETATM   40  C   UNL     1      44.213 -17.769   1.595  1.00  0.00     0.015 C 
ENDBRANCH   7  37
TORSDOF 8
ENDMDL
