MODEL 1
REMARK VINA RESULT:      -8.5      0.000      0.000
REMARK  7 active torsions:
REMARK  status: ('A' for Active; 'I' for Inactive)
REMARK    1  A    between atoms: O_2  and  C_3 
REMARK    2  A    between atoms: C_3  and  C_4 
REMARK    3  A    between atoms: C_8  and  C_9 
REMARK    4  A    between atoms: C_9  and  N_10 
REMARK    5  A    between atoms: C_13  and  C_14 
REMARK    6  A    between atoms: C_14  and  N_15 
REMARK       I    between atoms: N_15  and  C_16 
REMARK       I    between atoms: C_16  and  N_17 
REMARK    7  A    between atoms: N_17  and  C_18 
ROOT
HETATM    1  N   UNL     1      41.325 -14.017   2.923  1.00  0.00    -0.067 N 
HETATM    2  H   UNL     1      40.628 -14.729   2.670  1.00  0.00     0.280 HD
HETATM    3  C   UNL     1      42.288 -14.683   3.885  1.00  0.00     0.241 C 
HETATM    4  C   UNL     1      41.495 -15.216   5.078  1.00  0.00     0.029 C 
HETATM    5  C   UNL     1      40.736 -14.072   5.768  1.00  0.00     0.009 C 
HETATM    6  C   UNL     1      39.833 -13.342   4.778  1.00  0.00     0.028 C 
HETATM    7  C   UNL     1      40.599 -12.861   3.554  1.00  0.00     0.235 C 
ENDROOT
BRANCH   4   8
HETATM    8  C   UNL     1      42.379 -15.962   6.092  1.00  0.00     0.130 C 
BRANCH   8   9
HETATM    9  N   UNL     1      43.421 -16.821   5.547  1.00  0.00    -0.342 N 
HETATM   10  C   UNL     1      43.156 -18.074   5.022  1.00  0.00     0.320 C 
HETATM   11  N   UNL     1      44.321 -18.764   4.777  1.00  0.00    -0.309 N 
HETATM   12  O   UNL     1      42.018 -18.443   4.768  1.00  0.00    -0.247 OA
HETATM   13  H   UNL     1      45.183 -18.254   4.902  1.00  0.00     0.170 HD
HETATM   14  H   UNL     1      44.296 -16.779   6.055  1.00  0.00     0.164 HD
BRANCH  11  15
HETATM   15  C   UNL     1      44.453 -20.084   4.297  1.00  0.00     0.039 A 
HETATM   16  C   UNL     1      44.294 -20.447   2.960  1.00  0.00     0.071 A 
HETATM   17  C   UNL     1      44.428 -21.783   2.585  1.00  0.00     0.118 A 
HETATM   18  F   UNL     1      44.274 -22.120   1.298  1.00  0.00    -0.206 F 
HETATM   19  C   UNL     1      44.720 -22.770   3.516  1.00  0.00     0.042 A 
HETATM   20  C   UNL     1      44.877 -22.419   4.853  1.00  0.00     0.005 A 
HETATM   21  C   UNL     1      44.743 -21.082   5.241  1.00  0.00     0.030 A 
ENDBRANCH  11  15
ENDBRANCH   8   9
ENDBRANCH   4   8
BRANCH   1  22
HETATM   22  C   UNL     1      41.978 -13.620   1.621  1.00  0.00     0.274 C 
BRANCH  22  23
HETATM   23  C   UNL     1      41.543 -14.417   0.436  1.00  0.00    -0.015 A 
HETATM   24  C   UNL     1      41.169 -15.748   0.441  1.00  0.00     0.097 A 
HETATM   25  N   UNL     1      40.868 -16.126  -0.842  1.00  0.00    -0.360 N 
HETATM   26  C   UNL     1      41.031 -15.061  -1.696  1.00  0.00     0.108 A 
HETATM   27  H   UNL     1      40.575 -17.052  -1.143  1.00  0.00     0.165 HD
HETATM   28  C   UNL     1      41.457 -13.993  -0.926  1.00  0.00     0.046 A 
BRANCH  26  29
HETATM   29  C   UNL     1      40.780 -15.173  -3.115  1.00  0.00     0.309 C 
HETATM   30  O   UNL     1      41.199 -14.383  -3.950  1.00  0.00    -0.258 OA
BRANCH  29  31
HETATM   31  O   UNL     1      40.012 -16.266  -3.367  1.00  0.00    -0.321 OA
HETATM   32  C   UNL     1      38.781 -15.971  -4.030  1.00  0.00     0.213 C 
ENDBRANCH  29  31
ENDBRANCH  26  29
ENDBRANCH  22  23
ENDBRANCH   1  22
TORSDOF 7
ENDMDL
MODEL 2
REMARK VINA RESULT:      -8.2      3.933      8.785
REMARK  7 active torsions:
REMARK  status: ('A' for Active; 'I' for Inactive)
REMARK    1  A    between atoms: O_2  and  C_3 
REMARK    2  A    between atoms: C_3  and  C_4 
REMARK    3  A    between atoms: C_8  and  C_9 
REMARK    4  A    between atoms: C_9  and  N_10 
REMARK    5  A    between atoms: C_13  and  C_14 
REMARK    6  A    between atoms: C_14  and  N_15 
REMARK       I    between atoms: N_15  and  C_16 
REMARK       I    between atoms: C_16  and  N_17 
REMARK    7  A    between atoms: N_17  and  C_18 
ROOT
HETATM    1  N   UNL     1      44.103 -19.746   4.762  1.00  0.00    -0.067 N 
HETATM    2  H   UNL     1      43.222 -20.221   4.999  1.00  0.00     0.280 HD
HETATM    3  C   UNL     1      43.731 -18.573   3.877  1.00  0.00     0.241 C 
HETATM    4  C   UNL     1      42.971 -19.102   2.660  1.00  0.00     0.029 C 
HETATM    5  C   UNL     1      43.835 -20.115   1.892  1.00  0.00     0.009 C 
HETATM    6  C   UNL     1      44.286 -21.250   2.806  1.00  0.00     0.028 C 
HETATM    7  C   UNL     1      44.988 -20.735   4.054  1.00  0.00     0.235 C 
ENDROOT
BRANCH   4   8
HETATM    8  C   UNL     1      42.499 -17.978   1.722  1.00  0.00     0.130 C 
BRANCH   8   9
HETATM    9  N   UNL     1      41.313 -17.239   2.129  1.00  0.00    -0.342 N 
HETATM   10  C   UNL     1      41.375 -15.969   2.676  1.00  0.00     0.320 C 
HETATM   11  N   UNL     1      40.152 -15.583   3.173  1.00  0.00    -0.309 N 
HETATM   12  O   UNL     1      42.396 -15.296   2.637  1.00  0.00    -0.247 OA
HETATM   13  H   UNL     1      39.374 -16.200   2.987  1.00  0.00     0.170 HD
HETATM   14  H   UNL     1      40.592 -17.816   2.545  1.00  0.00     0.164 HD
BRANCH  11  15
HETATM   15  C   UNL     1      39.838 -14.385   3.849  1.00  0.00     0.039 A 
HETATM   16  C   UNL     1      39.811 -14.257   5.237  1.00  0.00     0.071 A 
HETATM   17  C   UNL     1      39.473 -13.035   5.813  1.00  0.00     0.118 A 
HETATM   18  F   UNL     1      39.452 -12.923   7.148  1.00  0.00    -0.206 F 
HETATM   19  C   UNL     1      39.159 -11.930   5.033  1.00  0.00     0.042 A 
HETATM   20  C   UNL     1      39.179 -12.048   3.648  1.00  0.00     0.005 A 
HETATM   21  C   UNL     1      39.516 -13.270   3.058  1.00  0.00     0.030 A 
ENDBRANCH  11  15
ENDBRANCH   8   9
ENDBRANCH   4   8
BRANCH   1  22
HETATM   22  C   UNL     1      44.693 -19.319   6.084  1.00  0.00     0.274 C 
BRANCH  22  23
HETATM   23  C   UNL     1      44.207 -18.000   6.588  1.00  0.00    -0.015 A 
HETATM   24  C   UNL     1      43.091 -17.790   7.377  1.00  0.00     0.097 A 
HETATM   25  N   UNL     1      42.961 -16.443   7.605  1.00  0.00    -0.360 N 
HETATM   26  C   UNL     1      43.980 -15.761   6.983  1.00  0.00     0.108 A 
HETATM   27  H   UNL     1      42.225 -15.994   8.141  1.00  0.00     0.165 HD
HETATM   28  C   UNL     1      44.760 -16.707   6.340  1.00  0.00     0.046 A 
BRANCH  26  29
HETATM   29  C   UNL     1      44.092 -14.322   7.056  1.00  0.00     0.309 C 
HETATM   30  O   UNL     1      43.692 -13.558   6.189  1.00  0.00    -0.258 OA
BRANCH  29  31
HETATM   31  O   UNL     1      44.711 -13.962   8.211  1.00  0.00    -0.321 OA
HETATM   32  C   UNL     1      45.583 -12.838   8.078  1.00  0.00     0.213 C 
ENDBRANCH  29  31
ENDBRANCH  26  29
ENDBRANCH  22  23
ENDBRANCH   1  22
TORSDOF 7
ENDMDL
MODEL 3
REMARK VINA RESULT:      -8.1      3.295      7.716
REMARK  7 active torsions:
REMARK  status: ('A' for Active; 'I' for Inactive)
REMARK    1  A    between atoms: O_2  and  C_3 
REMARK    2  A    between atoms: C_3  and  C_4 
REMARK    3  A    between atoms: C_8  and  C_9 
REMARK    4  A    between atoms: C_9  and  N_10 
REMARK    5  A    between atoms: C_13  and  C_14 
REMARK    6  A    between atoms: C_14  and  N_15 
REMARK       I    between atoms: N_15  and  C_16 
REMARK       I    between atoms: C_16  and  N_17 
REMARK    7  A    between atoms: N_17  and  C_18 
ROOT
HETATM    1  N   UNL     1      43.446 -17.558   5.239  1.00  0.00    -0.067 N 
HETATM    2  H   UNL     1      42.541 -18.028   5.364  1.00  0.00     0.280 HD
HETATM    3  C   UNL     1      43.606 -17.324   3.750  1.00  0.00     0.241 C 
HETATM    4  C   UNL     1      43.510 -18.670   3.033  1.00  0.00     0.029 C 
HETATM    5  C   UNL     1      44.590 -19.631   3.554  1.00  0.00     0.009 C 
HETATM    6  C   UNL     1      44.487 -19.796   5.067  1.00  0.00     0.028 C 
HETATM    7  C   UNL     1      44.517 -18.458   5.792  1.00  0.00     0.235 C 
ENDROOT
BRANCH   4   8
HETATM    8  C   UNL     1      43.605 -18.534   1.503  1.00  0.00     0.130 C 
BRANCH   8   9
HETATM    9  N   UNL     1      43.286 -17.231   0.939  1.00  0.00    -0.342 N 
HETATM   10  C   UNL     1      42.009 -16.888   0.527  1.00  0.00     0.320 C 
HETATM   11  N   UNL     1      42.015 -15.698  -0.162  1.00  0.00    -0.309 N 
HETATM   12  O   UNL     1      41.032 -17.561   0.822  1.00  0.00    -0.247 OA
HETATM   13  H   UNL     1      42.889 -15.193  -0.185  1.00  0.00     0.170 HD
HETATM   14  H   UNL     1      44.011 -16.852   0.343  1.00  0.00     0.164 HD
BRANCH  11  15
HETATM   15  C   UNL     1      40.920 -15.058  -0.780  1.00  0.00     0.039 A 
HETATM   16  C   UNL     1      39.969 -14.303  -0.093  1.00  0.00     0.071 A 
HETATM   17  C   UNL     1      38.912 -13.722  -0.791  1.00  0.00     0.118 A 
HETATM   18  F   UNL     1      38.004 -12.999  -0.122  1.00  0.00    -0.206 F 
HETATM   19  C   UNL     1      38.780 -13.876  -2.164  1.00  0.00     0.042 A 
HETATM   20  C   UNL     1      39.721 -14.629  -2.858  1.00  0.00     0.005 A 
HETATM   21  C   UNL     1      40.786 -15.218  -2.168  1.00  0.00     0.030 A 
ENDBRANCH  11  15
ENDBRANCH   8   9
ENDBRANCH   4   8
BRANCH   1  22
HETATM   22  C   UNL     1      43.339 -16.273   6.026  1.00  0.00     0.274 C 
BRANCH  22  23
HETATM   23  C   UNL     1      42.021 -15.581   5.915  1.00  0.00    -0.015 A 
HETATM   24  C   UNL     1      40.777 -16.167   6.063  1.00  0.00     0.097 A 
HETATM   25  N   UNL     1      39.814 -15.212   5.859  1.00  0.00    -0.360 N 
HETATM   26  C   UNL     1      40.404 -14.001   5.584  1.00  0.00     0.108 A 
HETATM   27  H   UNL     1      38.809 -15.357   5.891  1.00  0.00     0.165 HD
HETATM   28  C   UNL     1      41.772 -14.209   5.606  1.00  0.00     0.046 A 
BRANCH  26  29
HETATM   29  C   UNL     1      39.624 -12.812   5.328  1.00  0.00     0.309 C 
HETATM   30  O   UNL     1      38.696 -12.436   6.031  1.00  0.00    -0.258 OA
BRANCH  29  31
HETATM   31  O   UNL     1      40.067 -12.198   4.199  1.00  0.00    -0.321 OA
HETATM   32  C   UNL     1      39.210 -12.368   3.069  1.00  0.00     0.213 C 
ENDBRANCH  29  31
ENDBRANCH  26  29
ENDBRANCH  22  23
ENDBRANCH   1  22
TORSDOF 7
ENDMDL
MODEL 4
REMARK VINA RESULT:      -8.0      3.674      8.724
REMARK  7 active torsions:
REMARK  status: ('A' for Active; 'I' for Inactive)
REMARK    1  A    between atoms: O_2  and  C_3 
REMARK    2  A    between atoms: C_3  and  C_4 
REMARK    3  A    between atoms: C_8  and  C_9 
REMARK    4  A    between atoms: C_9  and  N_10 
REMARK    5  A    between atoms: C_13  and  C_14 
REMARK    6  A    between atoms: C_14  and  N_15 
REMARK       I    between atoms: N_15  and  C_16 
REMARK       I    between atoms: C_16  and  N_17 
REMARK    7  A    between atoms: N_17  and  C_18 
ROOT
HETATM    1  N   UNL     1      42.917 -18.676   5.317  1.00  0.00    -0.067 N 
HETATM    2  H   UNL     1      42.168 -19.335   5.073  1.00  0.00     0.280 HD
HETATM    3  C   UNL     1      43.173 -17.840   4.080  1.00  0.00     0.241 C 
HETATM    4  C   UNL     1      43.530 -18.775   2.925  1.00  0.00     0.029 C 
HETATM    5  C   UNL     1      44.766 -19.615   3.282  1.00  0.00     0.009 C 
HETATM    6  C   UNL     1      44.544 -20.388   4.578  1.00  0.00     0.028 C 
HETATM    7  C   UNL     1      44.125 -19.477   5.722  1.00  0.00     0.235 C 
ENDROOT
BRANCH   4   8
HETATM    8  C   UNL     1      43.756 -18.023   1.601  1.00  0.00     0.130 C 
BRANCH   8   9
HETATM    9  N   UNL     1      43.113 -16.723   1.468  1.00  0.00    -0.342 N 
HETATM   10  C   UNL     1      41.836 -16.571   0.955  1.00  0.00     0.320 C 
HETATM   11  N   UNL     1      41.548 -15.245   0.732  1.00  0.00    -0.309 N 
HETATM   12  O   UNL     1      41.082 -17.522   0.802  1.00  0.00    -0.247 OA
HETATM   13  H   UNL     1      42.228 -14.574   1.056  1.00  0.00     0.170 HD
HETATM   14  H   UNL     1      43.743 -15.980   1.193  1.00  0.00     0.164 HD
BRANCH  11  15
HETATM   15  C   UNL     1      40.372 -14.704   0.169  1.00  0.00     0.039 A 
HETATM   16  C   UNL     1      39.208 -14.446   0.891  1.00  0.00     0.071 A 
HETATM   17  C   UNL     1      38.091 -13.926   0.241  1.00  0.00     0.118 A 
HETATM   18  F   UNL     1      36.978 -13.682   0.945  1.00  0.00    -0.206 F 
HETATM   19  C   UNL     1      38.108 -13.654  -1.120  1.00  0.00     0.042 A 
HETATM   20  C   UNL     1      39.263 -13.911  -1.851  1.00  0.00     0.005 A 
HETATM   21  C   UNL     1      40.390 -14.435  -1.209  1.00  0.00     0.030 A 
ENDBRANCH  11  15
ENDBRANCH   8   9
ENDBRANCH   4   8
BRANCH   1  22
HETATM   22  C   UNL     1      42.375 -17.867   6.471  1.00  0.00     0.274 C 
BRANCH  22  23
HETATM   23  C   UNL     1      42.884 -16.464   6.543  1.00  0.00    -0.015 A 
HETATM   24  C   UNL     1      42.211 -15.331   6.127  1.00  0.00     0.097 A 
HETATM   25  N   UNL     1      43.018 -14.241   6.329  1.00  0.00    -0.360 N 
HETATM   26  C   UNL     1      44.214 -14.637   6.880  1.00  0.00     0.108 A 
HETATM   27  H   UNL     1      42.792 -13.276   6.105  1.00  0.00     0.165 HD
HETATM   28  C   UNL     1      44.155 -16.013   7.014  1.00  0.00     0.046 A 
BRANCH  26  29
HETATM   29  C   UNL     1      45.258 -13.692   7.202  1.00  0.00     0.309 C 
HETATM   30  O   UNL     1      46.122 -13.331   6.415  1.00  0.00    -0.258 OA
BRANCH  29  31
HETATM   31  O   UNL     1      45.137 -13.285   8.493  1.00  0.00    -0.321 OA
HETATM   32  C   UNL     1      45.822 -12.066   8.787  1.00  0.00     0.213 C 
ENDBRANCH  29  31
ENDBRANCH  26  29
ENDBRANCH  22  23
ENDBRANCH   1  22
TORSDOF 7
ENDMDL
MODEL 5
REMARK VINA RESULT:      -8.0      4.121      9.213
REMARK  7 active torsions:
REMARK  status: ('A' for Active; 'I' for Inactive)
REMARK    1  A    between atoms: O_2  and  C_3 
REMARK    2  A    between atoms: C_3  and  C_4 
REMARK    3  A    between atoms: C_8  and  C_9 
REMARK    4  A    between atoms: C_9  and  N_10 
REMARK    5  A    between atoms: C_13  and  C_14 
REMARK    6  A    between atoms: C_14  and  N_15 
REMARK       I    between atoms: N_15  and  C_16 
REMARK       I    between atoms: C_16  and  N_17 
REMARK    7  A    between atoms: N_17  and  C_18 
ROOT
HETATM    1  N   UNL     1      42.642 -18.543   4.210  1.00  0.00    -0.067 N 
HETATM    2  H   UNL     1      42.043 -19.354   4.012  1.00  0.00     0.280 HD
HETATM    3  C   UNL     1      42.213 -17.449   3.252  1.00  0.00     0.241 C 
HETATM    4  C   UNL     1      42.343 -17.975   1.823  1.00  0.00     0.029 C 
HETATM    5  C   UNL     1      43.791 -18.408   1.545  1.00  0.00     0.009 C 
HETATM    6  C   UNL     1      44.256 -19.443   2.564  1.00  0.00     0.028 C 
HETATM    7  C   UNL     1      44.072 -18.958   3.995  1.00  0.00     0.235 C 
ENDROOT
BRANCH   4   8
HETATM    8  C   UNL     1      41.877 -16.953   0.771  1.00  0.00     0.130 C 
BRANCH   8   9
HETATM    9  N   UNL     1      40.528 -16.427   0.921  1.00  0.00    -0.342 N 
HETATM   10  C   UNL     1      40.238 -15.077   0.824  1.00  0.00     0.320 C 
HETATM   11  N   UNL     1      38.945 -14.819   1.217  1.00  0.00    -0.309 N 
HETATM   12  O   UNL     1      41.044 -14.272   0.378  1.00  0.00    -0.247 OA
HETATM   13  H   UNL     1      38.364 -15.621   1.413  1.00  0.00     0.170 HD
HETATM   14  H   UNL     1      39.978 -16.902   1.626  1.00  0.00     0.164 HD
BRANCH  11  15
HETATM   15  C   UNL     1      38.309 -13.563   1.306  1.00  0.00     0.039 A 
HETATM   16  C   UNL     1      37.230 -13.177   0.511  1.00  0.00     0.071 A 
HETATM   17  C   UNL     1      36.678 -11.906   0.663  1.00  0.00     0.118 A 
HETATM   18  F   UNL     1      35.641 -11.546  -0.105  1.00  0.00    -0.206 F 
HETATM   19  C   UNL     1      37.180 -11.007   1.593  1.00  0.00     0.042 A 
HETATM   20  C   UNL     1      38.258 -11.380   2.388  1.00  0.00     0.005 A 
HETATM   21  C   UNL     1      38.821 -12.652   2.244  1.00  0.00     0.030 A 
ENDBRANCH  11  15
ENDBRANCH   8   9
ENDBRANCH   4   8
BRANCH   1  22
HETATM   22  C   UNL     1      42.375 -18.195   5.655  1.00  0.00     0.274 C 
BRANCH  22  23
HETATM   23  C   UNL     1      42.754 -16.803   6.042  1.00  0.00    -0.015 A 
HETATM   24  C   UNL     1      41.908 -15.711   6.089  1.00  0.00     0.097 A 
HETATM   25  N   UNL     1      42.634 -14.608   6.459  1.00  0.00    -0.360 N 
HETATM   26  C   UNL     1      43.948 -14.957   6.664  1.00  0.00     0.108 A 
HETATM   27  H   UNL     1      42.277 -13.661   6.564  1.00  0.00     0.165 HD
HETATM   28  C   UNL     1      44.046 -16.312   6.404  1.00  0.00     0.046 A 
BRANCH  26  29
HETATM   29  C   UNL     1      44.942 -13.988   7.066  1.00  0.00     0.309 C 
HETATM   30  O   UNL     1      45.789 -13.523   6.315  1.00  0.00    -0.258 OA
BRANCH  29  31
HETATM   31  O   UNL     1      44.798 -13.691   8.384  1.00  0.00    -0.321 OA
HETATM   32  C   UNL     1      45.237 -12.378   8.736  1.00  0.00     0.213 C 
ENDBRANCH  29  31
ENDBRANCH  26  29
ENDBRANCH  22  23
ENDBRANCH   1  22
TORSDOF 7
ENDMDL
MODEL 6
REMARK VINA RESULT:      -8.0      1.570      2.022
REMARK  7 active torsions:
REMARK  status: ('A' for Active; 'I' for Inactive)
REMARK    1  A    between atoms: O_2  and  C_3 
REMARK    2  A    between atoms: C_3  and  C_4 
REMARK    3  A    between atoms: C_8  and  C_9 
REMARK    4  A    between atoms: C_9  and  N_10 
REMARK    5  A    between atoms: C_13  and  C_14 
REMARK    6  A    between atoms: C_14  and  N_15 
REMARK       I    between atoms: N_15  and  C_16 
REMARK       I    between atoms: C_16  and  N_17 
REMARK    7  A    between atoms: N_17  and  C_18 
ROOT
HETATM    1  N   UNL     1      40.254 -13.220   1.236  1.00  0.00    -0.067 N 
HETATM    2  H   UNL     1      39.470 -13.879   1.150  1.00  0.00     0.280 HD
HETATM    3  C   UNL     1      41.316 -13.921   2.059  1.00  0.00     0.241 C 
HETATM    4  C   UNL     1      40.704 -14.326   3.401  1.00  0.00     0.029 C 
HETATM    5  C   UNL     1      40.170 -13.087   4.138  1.00  0.00     0.009 C 
HETATM    6  C   UNL     1      39.168 -12.329   3.273  1.00  0.00     0.028 C 
HETATM    7  C   UNL     1      39.742 -11.976   1.909  1.00  0.00     0.235 C 
ENDROOT
BRANCH   4   8
HETATM    8  C   UNL     1      41.692 -15.097   4.293  1.00  0.00     0.130 C 
BRANCH   8   9
HETATM    9  N   UNL     1      42.626 -15.988   3.619  1.00  0.00    -0.342 N 
HETATM   10  C   UNL     1      42.546 -17.367   3.718  1.00  0.00     0.320 C 
HETATM   11  N   UNL     1      43.659 -17.967   3.177  1.00  0.00    -0.309 N 
HETATM   12  O   UNL     1      41.560 -17.927   4.177  1.00  0.00    -0.247 OA
HETATM   13  H   UNL     1      44.312 -17.361   2.701  1.00  0.00     0.170 HD
HETATM   14  H   UNL     1      43.579 -15.645   3.600  1.00  0.00     0.164 HD
BRANCH  11  15
HETATM   15  C   UNL     1      43.961 -19.344   3.142  1.00  0.00     0.039 A 
HETATM   16  C   UNL     1      43.720 -20.169   2.044  1.00  0.00     0.071 A 
HETATM   17  C   UNL     1      44.038 -21.523   2.112  1.00  0.00     0.118 A 
HETATM   18  F   UNL     1      43.802 -22.306   1.050  1.00  0.00    -0.206 F 
HETATM   19  C   UNL     1      44.596 -22.079   3.255  1.00  0.00     0.042 A 
HETATM   20  C   UNL     1      44.838 -21.266   4.357  1.00  0.00     0.005 A 
HETATM   21  C   UNL     1      44.521 -19.905   4.302  1.00  0.00     0.030 A 
ENDBRANCH  11  15
ENDBRANCH   8   9
ENDBRANCH   4   8
BRANCH   1  22
HETATM   22  C   UNL     1      40.697 -12.944  -0.181  1.00  0.00     0.274 C 
BRANCH  22  23
HETATM   23  C   UNL     1      40.293 -13.982  -1.175  1.00  0.00    -0.015 A 
HETATM   24  C   UNL     1      40.968 -15.157  -1.447  1.00  0.00     0.097 A 
HETATM   25  N   UNL     1      40.301 -15.828  -2.439  1.00  0.00    -0.360 N 
HETATM   26  C   UNL     1      39.189 -15.116  -2.823  1.00  0.00     0.108 A 
HETATM   27  H   UNL     1      40.573 -16.716  -2.852  1.00  0.00     0.165 HD
HETATM   28  C   UNL     1      39.169 -13.963  -2.057  1.00  0.00     0.046 A 
BRANCH  26  29
HETATM   29  C   UNL     1      38.296 -15.591  -3.855  1.00  0.00     0.309 C 
HETATM   30  O   UNL     1      38.661 -16.207  -4.847  1.00  0.00    -0.258 OA
BRANCH  29  31
HETATM   31  O   UNL     1      37.016 -15.241  -3.561  1.00  0.00    -0.321 OA
HETATM   32  C   UNL     1      36.413 -14.377  -4.526  1.00  0.00     0.213 C 
ENDBRANCH  29  31
ENDBRANCH  26  29
ENDBRANCH  22  23
ENDBRANCH   1  22
TORSDOF 7
ENDMDL
MODEL 7
REMARK VINA RESULT:      -7.9      2.733      6.018
REMARK  7 active torsions:
REMARK  status: ('A' for Active; 'I' for Inactive)
REMARK    1  A    between atoms: O_2  and  C_3 
REMARK    2  A    between atoms: C_3  and  C_4 
REMARK    3  A    between atoms: C_8  and  C_9 
REMARK    4  A    between atoms: C_9  and  N_10 
REMARK    5  A    between atoms: C_13  and  C_14 
REMARK    6  A    between atoms: C_14  and  N_15 
REMARK       I    between atoms: N_15  and  C_16 
REMARK       I    between atoms: C_16  and  N_17 
REMARK    7  A    between atoms: N_17  and  C_18 
ROOT
HETATM    1  N   UNL     1      41.883 -12.613   2.024  1.00  0.00    -0.067 N 
HETATM    2  H   UNL     1      42.905 -12.706   2.072  1.00  0.00     0.280 HD
HETATM    3  C   UNL     1      41.342 -13.992   1.708  1.00  0.00     0.241 C 
HETATM    4  C   UNL     1      41.976 -14.477   0.404  1.00  0.00     0.029 C 
HETATM    5  C   UNL     1      41.668 -13.494  -0.736  1.00  0.00     0.009 C 
HETATM    6  C   UNL     1      42.131 -12.085  -0.380  1.00  0.00     0.028 C 
HETATM    7  C   UNL     1      41.558 -11.613   0.948  1.00  0.00     0.235 C 
ENDROOT
BRANCH   4   8
HETATM    8  C   UNL     1      41.531 -15.899   0.021  1.00  0.00     0.130 C 
BRANCH   8   9
HETATM    9  N   UNL     1      42.495 -16.969   0.238  1.00  0.00    -0.342 N 
HETATM   10  C   UNL     1      42.491 -17.758   1.376  1.00  0.00     0.320 C 
HETATM   11  N   UNL     1      43.621 -18.539   1.440  1.00  0.00    -0.309 N 
HETATM   12  O   UNL     1      41.548 -17.766   2.155  1.00  0.00    -0.247 OA
HETATM   13  H   UNL     1      44.229 -18.521   0.634  1.00  0.00     0.170 HD
HETATM   14  H   UNL     1      43.427 -16.756  -0.095  1.00  0.00     0.164 HD
BRANCH  11  15
HETATM   15  C   UNL     1      43.995 -19.426   2.471  1.00  0.00     0.039 A 
HETATM   16  C   UNL     1      44.273 -19.028   3.779  1.00  0.00     0.071 A 
HETATM   17  C   UNL     1      44.651 -19.978   4.725  1.00  0.00     0.118 A 
HETATM   18  F   UNL     1      44.914 -19.585   5.979  1.00  0.00    -0.206 F 
HETATM   19  C   UNL     1      44.759 -21.322   4.398  1.00  0.00     0.042 A 
HETATM   20  C   UNL     1      44.488 -21.729   3.096  1.00  0.00     0.005 A 
HETATM   21  C   UNL     1      44.109 -20.785   2.137  1.00  0.00     0.030 A 
ENDBRANCH  11  15
ENDBRANCH   8   9
ENDBRANCH   4   8
BRANCH   1  22
HETATM   22  C   UNL     1      41.464 -12.118   3.388  1.00  0.00     0.274 C 
BRANCH  22  23
HETATM   23  C   UNL     1      41.813 -13.030   4.518  1.00  0.00    -0.015 A 
HETATM   24  C   UNL     1      40.923 -13.614   5.399  1.00  0.00     0.097 A 
HETATM   25  N   UNL     1      41.629 -14.357   6.310  1.00  0.00    -0.360 N 
HETATM   26  C   UNL     1      42.974 -14.279   6.039  1.00  0.00     0.108 A 
HETATM   27  H   UNL     1      41.238 -14.888   7.084  1.00  0.00     0.165 HD
HETATM   28  C   UNL     1      43.112 -13.454   4.936  1.00  0.00     0.046 A 
BRANCH  26  29
HETATM   29  C   UNL     1      43.957 -14.969   6.842  1.00  0.00     0.309 C 
HETATM   30  O   UNL     1      44.672 -14.423   7.671  1.00  0.00    -0.258 OA
BRANCH  29  31
HETATM   31  O   UNL     1      43.970 -16.291   6.527  1.00  0.00    -0.321 OA
HETATM   32  C   UNL     1      43.407 -17.135   7.534  1.00  0.00     0.213 C 
ENDBRANCH  29  31
ENDBRANCH  26  29
ENDBRANCH  22  23
ENDBRANCH   1  22
TORSDOF 7
ENDMDL
MODEL 8
REMARK VINA RESULT:      -7.9      3.229      4.498
REMARK  7 active torsions:
REMARK  status: ('A' for Active; 'I' for Inactive)
REMARK    1  A    between atoms: O_2  and  C_3 
REMARK    2  A    between atoms: C_3  and  C_4 
REMARK    3  A    between atoms: C_8  and  C_9 
REMARK    4  A    between atoms: C_9  and  N_10 
REMARK    5  A    between atoms: C_13  and  C_14 
REMARK    6  A    between atoms: C_14  and  N_15 
REMARK       I    between atoms: N_15  and  C_16 
REMARK       I    between atoms: C_16  and  N_17 
REMARK    7  A    between atoms: N_17  and  C_18 
ROOT
HETATM    1  N   UNL     1      39.381 -14.700  -1.188  1.00  0.00    -0.067 N 
HETATM    2  H   UNL     1      39.068 -15.676  -1.112  1.00  0.00     0.280 HD
HETATM    3  C   UNL     1      40.694 -14.611  -0.436  1.00  0.00     0.241 C 
HETATM    4  C   UNL     1      40.462 -15.071   1.004  1.00  0.00     0.029 C 
HETATM    5  C   UNL     1      39.388 -14.202   1.675  1.00  0.00     0.009 C 
HETATM    6  C   UNL     1      38.093 -14.218   0.869  1.00  0.00     0.028 C 
HETATM    7  C   UNL     1      38.318 -13.823  -0.583  1.00  0.00     0.235 C 
ENDROOT
BRANCH   4   8
HETATM    8  C   UNL     1      41.754 -15.071   1.840  1.00  0.00     0.130 C 
BRANCH   8   9
HETATM    9  N   UNL     1      42.693 -16.156   1.597  1.00  0.00    -0.342 N 
HETATM   10  C   UNL     1      42.573 -17.396   2.201  1.00  0.00     0.320 C 
HETATM   11  N   UNL     1      43.693 -18.164   1.981  1.00  0.00    -0.309 N 
HETATM   12  O   UNL     1      41.554 -17.735   2.786  1.00  0.00    -0.247 OA
HETATM   13  H   UNL     1      44.382 -17.786   1.347  1.00  0.00     0.170 HD
HETATM   14  H   UNL     1      43.654 -15.853   1.499  1.00  0.00     0.164 HD
BRANCH  11  15
HETATM   15  C   UNL     1      43.960 -19.456   2.480  1.00  0.00     0.039 A 
HETATM   16  C   UNL     1      44.473 -19.710   3.752  1.00  0.00     0.071 A 
HETATM   17  C   UNL     1      44.719 -21.023   4.149  1.00  0.00     0.118 A 
HETATM   18  F   UNL     1      45.210 -21.256   5.374  1.00  0.00    -0.206 F 
HETATM   19  C   UNL     1      44.464 -22.094   3.304  1.00  0.00     0.042 A 
HETATM   20  C   UNL     1      43.956 -21.851   2.033  1.00  0.00     0.005 A 
HETATM   21  C   UNL     1      43.707 -20.538   1.622  1.00  0.00     0.030 A 
ENDBRANCH  11  15
ENDBRANCH   8   9
ENDBRANCH   4   8
BRANCH   1  22
HETATM   22  C   UNL     1      39.535 -14.446  -2.668  1.00  0.00     0.274 C 
BRANCH  22  23
HETATM   23  C   UNL     1      38.315 -13.905  -3.339  1.00  0.00    -0.015 A 
HETATM   24  C   UNL     1      37.998 -12.569  -3.501  1.00  0.00     0.097 A 
HETATM   25  N   UNL     1      36.787 -12.479  -4.137  1.00  0.00    -0.360 N 
HETATM   26  C   UNL     1      36.301 -13.737  -4.404  1.00  0.00     0.108 A 
HETATM   27  H   UNL     1      36.297 -11.621  -4.377  1.00  0.00     0.165 HD
HETATM   28  C   UNL     1      37.229 -14.637  -3.911  1.00  0.00     0.046 A 
BRANCH  26  29
HETATM   29  C   UNL     1      35.036 -13.942  -5.073  1.00  0.00     0.309 C 
HETATM   30  O   UNL     1      33.970 -13.490  -4.676  1.00  0.00    -0.258 OA
BRANCH  29  31
HETATM   31  O   UNL     1      35.213 -14.709  -6.180  1.00  0.00    -0.321 OA
HETATM   32  C   UNL     1      35.401 -13.961  -7.383  1.00  0.00     0.213 C 
ENDBRANCH  29  31
ENDBRANCH  26  29
ENDBRANCH  22  23
ENDBRANCH   1  22
TORSDOF 7
ENDMDL
MODEL 9
REMARK VINA RESULT:      -7.8      5.784      8.355
REMARK  7 active torsions:
REMARK  status: ('A' for Active; 'I' for Inactive)
REMARK    1  A    between atoms: O_2  and  C_3 
REMARK    2  A    between atoms: C_3  and  C_4 
REMARK    3  A    between atoms: C_8  and  C_9 
REMARK    4  A    between atoms: C_9  and  N_10 
REMARK    5  A    between atoms: C_13  and  C_14 
REMARK    6  A    between atoms: C_14  and  N_15 
REMARK       I    between atoms: N_15  and  C_16 
REMARK       I    between atoms: C_16  and  N_17 
REMARK    7  A    between atoms: N_17  and  C_18 
ROOT
HETATM    1  N   UNL     1      42.490 -15.164   5.057  1.00  0.00    -0.067 N 
HETATM    2  H   UNL     1      43.178 -15.151   4.294  1.00  0.00     0.280 HD
HETATM    3  C   UNL     1      42.978 -14.170   6.091  1.00  0.00     0.241 C 
HETATM    4  C   UNL     1      44.387 -14.573   6.527  1.00  0.00     0.029 C 
HETATM    5  C   UNL     1      44.380 -15.999   7.101  1.00  0.00     0.009 C 
HETATM    6  C   UNL     1      43.803 -16.988   6.093  1.00  0.00     0.028 C 
HETATM    7  C   UNL     1      42.426 -16.566   5.601  1.00  0.00     0.235 C 
ENDROOT
BRANCH   4   8
HETATM    8  C   UNL     1      44.997 -13.589   7.541  1.00  0.00     0.130 C 
BRANCH   8   9
HETATM    9  N   UNL     1      44.084 -12.644   8.168  1.00  0.00    -0.342 N 
HETATM   10  C   UNL     1      44.159 -12.311   9.510  1.00  0.00     0.320 C 
HETATM   11  N   UNL     1      43.064 -11.576   9.900  1.00  0.00    -0.309 N 
HETATM   12  O   UNL     1      45.129 -12.604  10.196  1.00  0.00    -0.247 OA
HETATM   13  H   UNL     1      42.428 -11.292   9.169  1.00  0.00     0.170 HD
HETATM   14  H   UNL     1      43.133 -12.702   7.826  1.00  0.00     0.164 HD
BRANCH  11  15
HETATM   15  C   UNL     1      42.762 -11.106  11.195  1.00  0.00     0.039 A 
HETATM   16  C   UNL     1      43.628 -10.329  11.965  1.00  0.00     0.071 A 
HETATM   17  C   UNL     1      43.245  -9.926  13.242  1.00  0.00     0.118 A 
HETATM   18  F   UNL     1      44.085  -9.180  13.972  1.00  0.00    -0.206 F 
HETATM   19  C   UNL     1      42.012 -10.279  13.773  1.00  0.00     0.042 A 
HETATM   20  C   UNL     1      41.143 -11.056  13.016  1.00  0.00     0.005 A 
HETATM   21  C   UNL     1      41.516 -11.468  11.733  1.00  0.00     0.030 A 
ENDBRANCH  11  15
ENDBRANCH   8   9
ENDBRANCH   4   8
BRANCH   1  22
HETATM   22  C   UNL     1      41.183 -14.755   4.421  1.00  0.00     0.274 C 
BRANCH  22  23
HETATM   23  C   UNL     1      41.033 -15.153   2.990  1.00  0.00    -0.015 A 
HETATM   24  C   UNL     1      40.465 -16.325   2.524  1.00  0.00     0.097 A 
HETATM   25  N   UNL     1      40.541 -16.336   1.155  1.00  0.00    -0.360 N 
HETATM   26  C   UNL     1      41.144 -15.185   0.708  1.00  0.00     0.108 A 
HETATM   27  H   UNL     1      40.214 -17.078   0.542  1.00  0.00     0.165 HD
HETATM   28  C   UNL     1      41.465 -14.440   1.830  1.00  0.00     0.046 A 
BRANCH  26  29
HETATM   29  C   UNL     1      41.354 -14.928  -0.699  1.00  0.00     0.309 C 
HETATM   30  O   UNL     1      41.046 -15.707  -1.591  1.00  0.00    -0.258 OA
BRANCH  29  31
HETATM   31  O   UNL     1      41.947 -13.717  -0.869  1.00  0.00    -0.321 OA
HETATM   32  C   UNL     1      41.167 -12.789  -1.624  1.00  0.00     0.213 C 
ENDBRANCH  29  31
ENDBRANCH  26  29
ENDBRANCH  22  23
ENDBRANCH   1  22
TORSDOF 7
ENDMDL
MODEL 10
REMARK VINA RESULT:      -7.7      2.922      3.823
REMARK  7 active torsions:
REMARK  status: ('A' for Active; 'I' for Inactive)
REMARK    1  A    between atoms: O_2  and  C_3 
REMARK    2  A    between atoms: C_3  and  C_4 
REMARK    3  A    between atoms: C_8  and  C_9 
REMARK    4  A    between atoms: C_9  and  N_10 
REMARK    5  A    between atoms: C_13  and  C_14 
REMARK    6  A    between atoms: C_14  and  N_15 
REMARK       I    between atoms: N_15  and  C_16 
REMARK       I    between atoms: C_16  and  N_17 
REMARK    7  A    between atoms: N_17  and  C_18 
ROOT
HETATM    1  N   UNL     1      39.868 -14.125  -0.491  1.00  0.00    -0.067 N 
HETATM    2  H   UNL     1      39.846 -15.097  -0.824  1.00  0.00     0.280 HD
HETATM    3  C   UNL     1      41.188 -13.949   0.233  1.00  0.00     0.241 C 
HETATM    4  C   UNL     1      41.269 -14.985   1.355  1.00  0.00     0.029 C 
HETATM    5  C   UNL     1      40.088 -14.816   2.323  1.00  0.00     0.009 C 
HETATM    6  C   UNL     1      38.758 -14.902   1.580  1.00  0.00     0.028 C 
HETATM    7  C   UNL     1      38.688 -13.920   0.420  1.00  0.00     0.235 C 
ENDROOT
BRANCH   4   8
HETATM    8  C   UNL     1      42.603 -14.926   2.120  1.00  0.00     0.130 C 
BRANCH   8   9
HETATM    9  N   UNL     1      42.921 -16.061   2.974  1.00  0.00    -0.342 N 
HETATM   10  C   UNL     1      43.447 -17.243   2.479  1.00  0.00     0.320 C 
HETATM   11  N   UNL     1      43.452 -18.224   3.443  1.00  0.00    -0.309 N 
HETATM   12  O   UNL     1      43.895 -17.327   1.344  1.00  0.00    -0.247 OA
HETATM   13  H   UNL     1      43.185 -17.942   4.375  1.00  0.00     0.170 HD
HETATM   14  H   UNL     1      42.261 -16.205   3.728  1.00  0.00     0.164 HD
BRANCH  11  15
HETATM   15  C   UNL     1      43.859 -19.567   3.300  1.00  0.00     0.039 A 
HETATM   16  C   UNL     1      43.662 -20.323   2.145  1.00  0.00     0.071 A 
HETATM   17  C   UNL     1      44.086 -21.649   2.106  1.00  0.00     0.118 A 
HETATM   18  F   UNL     1      43.893 -22.366   0.990  1.00  0.00    -0.206 F 
HETATM   19  C   UNL     1      44.706 -22.244   3.196  1.00  0.00     0.042 A 
HETATM   20  C   UNL     1      44.904 -21.500   4.354  1.00  0.00     0.005 A 
HETATM   21  C   UNL     1      44.481 -20.168   4.407  1.00  0.00     0.030 A 
ENDBRANCH  11  15
ENDBRANCH   8   9
ENDBRANCH   4   8
BRANCH   1  22
HETATM   22  C   UNL     1      39.764 -13.275  -1.735  1.00  0.00     0.274 C 
BRANCH  22  23
HETATM   23  C   UNL     1      38.787 -13.772  -2.749  1.00  0.00    -0.015 A 
HETATM   24  C   UNL     1      38.924 -14.908  -3.524  1.00  0.00     0.097 A 
HETATM   25  N   UNL     1      37.836 -15.008  -4.354  1.00  0.00    -0.360 N 
HETATM   26  C   UNL     1      36.978 -13.956  -4.133  1.00  0.00     0.108 A 
HETATM   27  H   UNL     1      37.671 -15.737  -5.043  1.00  0.00     0.165 HD
HETATM   28  C   UNL     1      37.553 -13.173  -3.147  1.00  0.00     0.046 A 
BRANCH  26  29
HETATM   29  C   UNL     1      35.744 -13.809  -4.870  1.00  0.00     0.309 C 
HETATM   30  O   UNL     1      34.956 -14.722  -5.077  1.00  0.00    -0.258 OA
BRANCH  29  31
HETATM   31  O   UNL     1      35.607 -12.526  -5.298  1.00  0.00    -0.321 OA
HETATM   32  C   UNL     1      34.330 -11.952  -5.017  1.00  0.00     0.213 C 
ENDBRANCH  29  31
ENDBRANCH  26  29
ENDBRANCH  22  23
ENDBRANCH   1  22
TORSDOF 7
ENDMDL
