MODEL 1
REMARK VINA RESULT:      -8.9      0.000      0.000
REMARK  5 active torsions:
REMARK  status: ('A' for Active; 'I' for Inactive)
REMARK    1  A    between atoms: C_5  and  C_6 
REMARK    2  A    between atoms: C_9  and  O_10 
REMARK    3  A    between atoms: N_14  and  C_15 
REMARK    4  A    between atoms: C_15  and  C_16 
REMARK       I    between atoms: C_16  and  N_17 
REMARK    5  A    between atoms: N_17  and  C_18 
ROOT
HETATM    1  C   UNL     1      40.492 -12.432   0.842  1.00  0.00     0.156 C 
HETATM    2  N   UNL     1      40.429 -13.285   2.004  1.00  0.00    -0.346 N 
HETATM    3  C   UNL     1      40.808 -14.582   2.057  1.00  0.00     0.113 A 
HETATM    4  C   UNL     1      40.572 -15.085   3.307  1.00  0.00     0.014 A 
HETATM    5  C   UNL     1      40.954 -16.519   3.366  1.00  0.00     0.158 A 
HETATM    6  N   UNL     1      41.531 -16.680   2.008  1.00  0.00    -0.325 N 
HETATM    7  C   UNL     1      41.385 -15.555   1.192  1.00  0.00     0.272 A 
HETATM    8  O   UNL     1      41.696 -15.437   0.021  1.00  0.00    -0.266 OA
HETATM    9  C   UNL     1      40.051 -14.048   4.101  1.00  0.00     0.002 A 
HETATM   10  C   UNL     1      39.979 -12.913   3.267  1.00  0.00     0.045 A 
HETATM   11  C   UNL     1      39.653 -13.936   5.446  1.00  0.00     0.014 A 
HETATM   12  C   UNL     1      39.202 -12.702   5.927  1.00  0.00     0.001 A 
HETATM   13  C   UNL     1      39.139 -11.592   5.089  1.00  0.00     0.002 A 
HETATM   14  C   UNL     1      39.523 -11.676   3.747  1.00  0.00     0.030 A 
ENDROOT
BRANCH   6  15
HETATM   15  C   UNL     1      41.931 -17.974   1.472  1.00  0.00     0.229 C 
BRANCH  15  16
HETATM   16  C   UNL     1      43.394 -18.358   1.748  1.00  0.00     0.235 C 
HETATM   17  N   UNL     1      43.555 -19.573   2.367  1.00  0.00    -0.355 N 
HETATM   18  H   UNL     1      42.695 -19.986   2.702  1.00  0.00     0.162 HD
HETATM   19  O   UNL     1      44.313 -17.644   1.363  1.00  0.00    -0.272 OA
BRANCH  17  20
HETATM   20  C   UNL     1      44.784 -20.204   2.832  1.00  0.00     0.084 C 
HETATM   21  C   UNL     1      45.131 -19.965   4.309  1.00  0.00     0.025 C 
HETATM   22  C   UNL     1      44.661 -21.041   5.288  1.00  0.00     0.002 C 
HETATM   23  C   UNL     1      44.893 -22.455   4.772  1.00  0.00     0.000 C 
HETATM   24  C   UNL     1      44.293 -22.652   3.387  1.00  0.00     0.002 C 
HETATM   25  C   UNL     1      44.888 -21.666   2.391  1.00  0.00     0.025 C 
ENDBRANCH  17  20
ENDBRANCH  15  16
ENDBRANCH   6  15
BRANCH   5  26
HETATM   26  C   UNL     1      41.943 -16.751   4.484  1.00  0.00    -0.030 A 
HETATM   27  C   UNL     1      41.786 -17.893   5.286  1.00  0.00     0.012 A 
HETATM   28  C   UNL     1      42.696 -18.187   6.306  1.00  0.00     0.037 A 
HETATM   29  C   UNL     1      43.787 -17.354   6.550  1.00  0.00     0.068 A 
HETATM   30  C   UNL     1      43.962 -16.220   5.761  1.00  0.00     0.037 A 
HETATM   31  C   UNL     1      43.053 -15.925   4.736  1.00  0.00     0.012 A 
BRANCH  29  32
HETATM   32  O   UNL     1      44.597 -17.758   7.574  1.00  0.00    -0.356 OA
HETATM   33  C   UNL     1      44.134 -18.839   8.372  1.00  0.00     0.210 C 
ENDBRANCH  29  32
ENDBRANCH   5  26
TORSDOF 5
ENDMDL
MODEL 2
REMARK VINA RESULT:      -8.7      2.563      5.154
REMARK  5 active torsions:
REMARK  status: ('A' for Active; 'I' for Inactive)
REMARK    1  A    between atoms: C_5  and  C_6 
REMARK    2  A    between atoms: C_9  and  O_10 
REMARK    3  A    between atoms: N_14  and  C_15 
REMARK    4  A    between atoms: C_15  and  C_16 
REMARK       I    between atoms: C_16  and  N_17 
REMARK    5  A    between atoms: N_17  and  C_18 
ROOT
HETATM    1  C   UNL     1      37.604 -12.765   0.275  1.00  0.00     0.156 C 
HETATM    2  N   UNL     1      38.843 -13.474   0.070  1.00  0.00    -0.346 N 
HETATM    3  C   UNL     1      39.819 -13.649   0.989  1.00  0.00     0.113 A 
HETATM    4  C   UNL     1      40.864 -14.336   0.434  1.00  0.00     0.014 A 
HETATM    5  C   UNL     1      41.956 -14.504   1.427  1.00  0.00     0.158 A 
HETATM    6  N   UNL     1      41.302 -13.910   2.620  1.00  0.00    -0.325 N 
HETATM    7  C   UNL     1      40.058 -13.330   2.356  1.00  0.00     0.272 A 
HETATM    8  O   UNL     1      39.343 -12.714   3.125  1.00  0.00    -0.266 OA
HETATM    9  C   UNL     1      40.522 -14.649  -0.893  1.00  0.00     0.002 A 
HETATM   10  C   UNL     1      39.235 -14.109  -1.105  1.00  0.00     0.045 A 
HETATM   11  C   UNL     1      41.149 -15.352  -1.938  1.00  0.00     0.014 A 
HETATM   12  C   UNL     1      40.482 -15.507  -3.158  1.00  0.00     0.001 A 
HETATM   13  C   UNL     1      39.213 -14.968  -3.348  1.00  0.00     0.002 A 
HETATM   14  C   UNL     1      38.568 -14.259  -2.330  1.00  0.00     0.030 A 
ENDROOT
BRANCH   6  15
HETATM   15  C   UNL     1      42.012 -13.675   3.870  1.00  0.00     0.229 C 
BRANCH  15  16
HETATM   16  C   UNL     1      41.659 -14.655   5.001  1.00  0.00     0.235 C 
HETATM   17  N   UNL     1      42.626 -15.593   5.262  1.00  0.00    -0.355 N 
HETATM   18  H   UNL     1      43.373 -15.621   4.580  1.00  0.00     0.162 HD
HETATM   19  O   UNL     1      40.622 -14.526   5.641  1.00  0.00    -0.272 OA
BRANCH  17  20
HETATM   20  C   UNL     1      42.591 -16.702   6.208  1.00  0.00     0.084 C 
HETATM   21  C   UNL     1      42.289 -18.079   5.599  1.00  0.00     0.025 C 
HETATM   22  C   UNL     1      43.506 -18.931   5.237  1.00  0.00     0.002 C 
HETATM   23  C   UNL     1      44.592 -18.900   6.304  1.00  0.00     0.000 C 
HETATM   24  C   UNL     1      44.987 -17.474   6.662  1.00  0.00     0.002 C 
HETATM   25  C   UNL     1      43.786 -16.686   7.165  1.00  0.00     0.025 C 
ENDBRANCH  17  20
ENDBRANCH  15  16
ENDBRANCH   6  15
BRANCH   5  26
HETATM   26  C   UNL     1      42.301 -15.967   1.582  1.00  0.00    -0.030 A 
HETATM   27  C   UNL     1      41.249 -16.888   1.710  1.00  0.00     0.012 A 
HETATM   28  C   UNL     1      41.502 -18.260   1.810  1.00  0.00     0.037 A 
HETATM   29  C   UNL     1      42.807 -18.748   1.779  1.00  0.00     0.068 A 
HETATM   30  C   UNL     1      43.863 -17.850   1.646  1.00  0.00     0.037 A 
HETATM   31  C   UNL     1      43.611 -16.475   1.543  1.00  0.00     0.012 A 
BRANCH  29  32
HETATM   32  O   UNL     1      42.912 -20.107   1.885  1.00  0.00    -0.356 OA
HETATM   33  C   UNL     1      44.198 -20.631   2.189  1.00  0.00     0.210 C 
ENDBRANCH  29  32
ENDBRANCH   5  26
TORSDOF 5
ENDMDL
MODEL 3
REMARK VINA RESULT:      -8.5      2.008      8.081
REMARK  5 active torsions:
REMARK  status: ('A' for Active; 'I' for Inactive)
REMARK    1  A    between atoms: C_5  and  C_6 
REMARK    2  A    between atoms: C_9  and  O_10 
REMARK    3  A    between atoms: N_14  and  C_15 
REMARK    4  A    between atoms: C_15  and  C_16 
REMARK       I    between atoms: C_16  and  N_17 
REMARK    5  A    between atoms: N_17  and  C_18 
ROOT
HETATM    1  C   UNL     1      45.228 -18.341   6.317  1.00  0.00     0.156 C 
HETATM    2  N   UNL     1      44.211 -18.313   5.294  1.00  0.00    -0.346 N 
HETATM    3  C   UNL     1      43.140 -17.488   5.264  1.00  0.00     0.113 A 
HETATM    4  C   UNL     1      42.368 -17.768   4.169  1.00  0.00     0.014 A 
HETATM    5  C   UNL     1      41.170 -16.891   4.144  1.00  0.00     0.158 A 
HETATM    6  N   UNL     1      41.468 -16.029   5.316  1.00  0.00    -0.325 N 
HETATM    7  C   UNL     1      42.600 -16.421   6.036  1.00  0.00     0.272 A 
HETATM    8  O   UNL     1      43.029 -15.944   7.070  1.00  0.00    -0.266 OA
HETATM    9  C   UNL     1      42.998 -18.795   3.444  1.00  0.00     0.002 A 
HETATM   10  C   UNL     1      44.170 -19.120   4.162  1.00  0.00     0.045 A 
HETATM   11  C   UNL     1      42.721 -19.475   2.244  1.00  0.00     0.014 A 
HETATM   12  C   UNL     1      43.613 -20.449   1.784  1.00  0.00     0.001 A 
HETATM   13  C   UNL     1      44.765 -20.755   2.505  1.00  0.00     0.002 A 
HETATM   14  C   UNL     1      45.063 -20.100   3.704  1.00  0.00     0.030 A 
ENDROOT
BRANCH   6  15
HETATM   15  C   UNL     1      40.512 -15.066   5.847  1.00  0.00     0.229 C 
BRANCH  15  16
HETATM   16  C   UNL     1      40.808 -13.602   5.482  1.00  0.00     0.235 C 
HETATM   17  N   UNL     1      39.819 -12.988   4.753  1.00  0.00    -0.355 N 
HETATM   18  H   UNL     1      39.100 -13.615   4.417  1.00  0.00     0.162 HD
HETATM   19  O   UNL     1      41.820 -13.046   5.891  1.00  0.00    -0.272 OA
BRANCH  17  20
HETATM   20  C   UNL     1      39.804 -11.645   4.188  1.00  0.00     0.084 C 
HETATM   21  C   UNL     1      41.018 -11.278   3.322  1.00  0.00     0.025 C 
HETATM   22  C   UNL     1      40.857 -11.499   1.817  1.00  0.00     0.002 C 
HETATM   23  C   UNL     1      39.504 -11.038   1.291  1.00  0.00     0.000 C 
HETATM   24  C   UNL     1      38.356 -11.657   2.079  1.00  0.00     0.002 C 
HETATM   25  C   UNL     1      38.453 -11.297   3.555  1.00  0.00     0.025 C 
ENDBRANCH  17  20
ENDBRANCH  15  16
ENDBRANCH   6  15
BRANCH   5  26
HETATM   26  C   UNL     1      41.098 -16.141   2.834  1.00  0.00    -0.030 A 
HETATM   27  C   UNL     1      39.831 -15.819   2.321  1.00  0.00     0.012 A 
HETATM   28  C   UNL     1      39.699 -15.086   1.138  1.00  0.00     0.037 A 
HETATM   29  C   UNL     1      40.825 -14.651   0.439  1.00  0.00     0.068 A 
HETATM   30  C   UNL     1      42.090 -14.956   0.937  1.00  0.00     0.037 A 
HETATM   31  C   UNL     1      42.224 -15.688   2.124  1.00  0.00     0.012 A 
BRANCH  29  32
HETATM   32  O   UNL     1      40.554 -13.945  -0.699  1.00  0.00    -0.356 OA
HETATM   33  C   UNL     1      39.200 -13.916  -1.131  1.00  0.00     0.210 C 
ENDBRANCH  29  32
ENDBRANCH   5  26
TORSDOF 5
ENDMDL
MODEL 4
REMARK VINA RESULT:      -8.5      1.307      1.851
REMARK  5 active torsions:
REMARK  status: ('A' for Active; 'I' for Inactive)
REMARK    1  A    between atoms: C_5  and  C_6 
REMARK    2  A    between atoms: C_9  and  O_10 
REMARK    3  A    between atoms: N_14  and  C_15 
REMARK    4  A    between atoms: C_15  and  C_16 
REMARK       I    between atoms: C_16  and  N_17 
REMARK    5  A    between atoms: N_17  and  C_18 
ROOT
HETATM    1  C   UNL     1      40.229 -12.911  -0.793  1.00  0.00     0.156 C 
HETATM    2  N   UNL     1      40.116 -13.356   0.575  1.00  0.00    -0.346 N 
HETATM    3  C   UNL     1      40.446 -14.581   1.041  1.00  0.00     0.113 A 
HETATM    4  C   UNL     1      40.170 -14.660   2.379  1.00  0.00     0.014 A 
HETATM    5  C   UNL     1      40.498 -16.014   2.894  1.00  0.00     0.158 A 
HETATM    6  N   UNL     1      41.092 -16.609   1.670  1.00  0.00    -0.325 N 
HETATM    7  C   UNL     1      41.000 -15.793   0.540  1.00  0.00     0.272 A 
HETATM    8  O   UNL     1      41.335 -16.057  -0.601  1.00  0.00    -0.266 OA
HETATM    9  C   UNL     1      39.675 -13.411   2.795  1.00  0.00     0.002 A 
HETATM   10  C   UNL     1      39.659 -12.593   1.646  1.00  0.00     0.045 A 
HETATM   11  C   UNL     1      39.259 -12.872   4.026  1.00  0.00     0.014 A 
HETATM   12  C   UNL     1      38.846 -11.536   4.085  1.00  0.00     0.001 A 
HETATM   13  C   UNL     1      38.838 -10.743   2.941  1.00  0.00     0.002 A 
HETATM   14  C   UNL     1      39.241 -11.255   1.703  1.00  0.00     0.030 A 
ENDROOT
BRANCH   6  15
HETATM   15  C   UNL     1      41.452 -18.018   1.576  1.00  0.00     0.229 C 
BRANCH  15  16
HETATM   16  C   UNL     1      42.927 -18.324   1.884  1.00  0.00     0.235 C 
HETATM   17  N   UNL     1      43.136 -18.967   3.079  1.00  0.00    -0.355 N 
HETATM   18  H   UNL     1      42.319 -19.018   3.672  1.00  0.00     0.162 HD
HETATM   19  O   UNL     1      43.805 -18.064   1.069  1.00  0.00    -0.272 OA
BRANCH  17  20
HETATM   20  C   UNL     1      44.398 -19.340   3.706  1.00  0.00     0.084 C 
HETATM   21  C   UNL     1      44.402 -19.324   5.242  1.00  0.00     0.025 C 
HETATM   22  C   UNL     1      44.110 -20.661   5.924  1.00  0.00     0.002 C 
HETATM   23  C   UNL     1      44.833 -21.831   5.270  1.00  0.00     0.000 C 
HETATM   24  C   UNL     1      44.563 -21.891   3.773  1.00  0.00     0.002 C 
HETATM   25  C   UNL     1      45.002 -20.604   3.089  1.00  0.00     0.025 C 
ENDBRANCH  17  20
ENDBRANCH  15  16
ENDBRANCH   6  15
BRANCH   5  26
HETATM   26  C   UNL     1      41.460 -15.913   4.055  1.00  0.00    -0.030 A 
HETATM   27  C   UNL     1      42.608 -15.120   3.900  1.00  0.00     0.012 A 
HETATM   28  C   UNL     1      43.512 -14.949   4.953  1.00  0.00     0.037 A 
HETATM   29  C   UNL     1      43.292 -15.558   6.187  1.00  0.00     0.068 A 
HETATM   30  C   UNL     1      42.155 -16.344   6.361  1.00  0.00     0.037 A 
HETATM   31  C   UNL     1      41.247 -16.514   5.308  1.00  0.00     0.012 A 
BRANCH  29  32
HETATM   32  O   UNL     1      44.252 -15.308   7.128  1.00  0.00    -0.356 OA
HETATM   33  C   UNL     1      44.560 -13.945   7.385  1.00  0.00     0.210 C 
ENDBRANCH  29  32
ENDBRANCH   5  26
TORSDOF 5
ENDMDL
MODEL 5
REMARK VINA RESULT:      -8.4      1.596      2.472
REMARK  5 active torsions:
REMARK  status: ('A' for Active; 'I' for Inactive)
REMARK    1  A    between atoms: C_5  and  C_6 
REMARK    2  A    between atoms: C_9  and  O_10 
REMARK    3  A    between atoms: N_14  and  C_15 
REMARK    4  A    between atoms: C_15  and  C_16 
REMARK       I    between atoms: C_16  and  N_17 
REMARK    5  A    between atoms: N_17  and  C_18 
ROOT
HETATM    1  C   UNL     1      39.687 -10.180   2.809  1.00  0.00     0.156 C 
HETATM    2  N   UNL     1      39.704 -11.192   3.838  1.00  0.00    -0.346 N 
HETATM    3  C   UNL     1      39.854 -12.521   3.641  1.00  0.00     0.113 A 
HETATM    4  C   UNL     1      39.782 -13.180   4.838  1.00  0.00     0.014 A 
HETATM    5  C   UNL     1      39.911 -14.645   4.628  1.00  0.00     0.158 A 
HETATM    6  N   UNL     1      40.176 -14.666   3.168  1.00  0.00    -0.325 N 
HETATM    7  C   UNL     1      40.072 -13.415   2.554  1.00  0.00     0.272 A 
HETATM    8  O   UNL     1      40.165 -13.155   1.368  1.00  0.00    -0.266 OA
HETATM    9  C   UNL     1      39.615 -12.221   5.852  1.00  0.00     0.002 A 
HETATM   10  C   UNL     1      39.582 -10.967   5.205  1.00  0.00     0.045 A 
HETATM   11  C   UNL     1      39.512 -12.270   7.254  1.00  0.00     0.014 A 
HETATM   12  C   UNL     1      39.387 -11.078   7.976  1.00  0.00     0.001 A 
HETATM   13  C   UNL     1      39.357  -9.850   7.320  1.00  0.00     0.002 A 
HETATM   14  C   UNL     1      39.451  -9.771   5.927  1.00  0.00     0.030 A 
ENDROOT
BRANCH   6  15
HETATM   15  C   UNL     1      40.231 -15.901   2.397  1.00  0.00     0.229 C 
BRANCH  15  16
HETATM   16  C   UNL     1      41.643 -16.312   1.946  1.00  0.00     0.235 C 
HETATM   17  N   UNL     1      42.268 -17.204   2.780  1.00  0.00    -0.355 N 
HETATM   18  H   UNL     1      41.791 -17.356   3.659  1.00  0.00     0.162 HD
HETATM   19  O   UNL     1      42.103 -15.910   0.883  1.00  0.00    -0.272 OA
BRANCH  17  20
HETATM   20  C   UNL     1      43.620 -17.743   2.692  1.00  0.00     0.084 C 
HETATM   21  C   UNL     1      44.246 -18.178   4.025  1.00  0.00     0.025 C 
HETATM   22  C   UNL     1      44.093 -19.657   4.384  1.00  0.00     0.002 C 
HETATM   23  C   UNL     1      44.340 -20.583   3.200  1.00  0.00     0.000 C 
HETATM   24  C   UNL     1      43.483 -20.201   2.001  1.00  0.00     0.002 C 
HETATM   25  C   UNL     1      43.763 -18.770   1.565  1.00  0.00     0.025 C 
ENDBRANCH  17  20
ENDBRANCH  15  16
ENDBRANCH   6  15
BRANCH   5  26
HETATM   26  C   UNL     1      41.044 -15.193   5.465  1.00  0.00    -0.030 A 
HETATM   27  C   UNL     1      40.830 -16.386   6.175  1.00  0.00     0.012 A 
HETATM   28  C   UNL     1      41.853 -16.968   6.929  1.00  0.00     0.037 A 
HETATM   29  C   UNL     1      43.116 -16.382   6.990  1.00  0.00     0.068 A 
HETATM   30  C   UNL     1      43.349 -15.202   6.287  1.00  0.00     0.037 A 
HETATM   31  C   UNL     1      42.326 -14.618   5.529  1.00  0.00     0.012 A 
BRANCH  29  32
HETATM   32  O   UNL     1      44.023 -17.054   7.760  1.00  0.00    -0.356 OA
HETATM   33  C   UNL     1      43.852 -18.461   7.874  1.00  0.00     0.210 C 
ENDBRANCH  29  32
ENDBRANCH   5  26
TORSDOF 5
ENDMDL
MODEL 6
REMARK VINA RESULT:      -8.4      2.597      8.381
REMARK  5 active torsions:
REMARK  status: ('A' for Active; 'I' for Inactive)
REMARK    1  A    between atoms: C_5  and  C_6 
REMARK    2  A    between atoms: C_9  and  O_10 
REMARK    3  A    between atoms: N_14  and  C_15 
REMARK    4  A    between atoms: C_15  and  C_16 
REMARK       I    between atoms: C_16  and  N_17 
REMARK    5  A    between atoms: N_17  and  C_18 
ROOT
HETATM    1  C   UNL     1      45.195 -18.286   6.380  1.00  0.00     0.156 C 
HETATM    2  N   UNL     1      44.199 -18.217   5.337  1.00  0.00    -0.346 N 
HETATM    3  C   UNL     1      43.159 -17.355   5.291  1.00  0.00     0.113 A 
HETATM    4  C   UNL     1      42.399 -17.602   4.179  1.00  0.00     0.014 A 
HETATM    5  C   UNL     1      41.234 -16.683   4.137  1.00  0.00     0.158 A 
HETATM    6  N   UNL     1      41.539 -15.838   5.318  1.00  0.00    -0.325 N 
HETATM    7  C   UNL     1      42.642 -16.273   6.058  1.00  0.00     0.272 A 
HETATM    8  O   UNL     1      43.066 -15.816   7.103  1.00  0.00    -0.266 OA
HETATM    9  C   UNL     1      43.007 -18.647   3.462  1.00  0.00     0.002 A 
HETATM   10  C   UNL     1      44.152 -19.016   4.200  1.00  0.00     0.045 A 
HETATM   11  C   UNL     1      42.729 -19.310   2.252  1.00  0.00     0.014 A 
HETATM   12  C   UNL     1      43.596 -20.314   1.805  1.00  0.00     0.001 A 
HETATM   13  C   UNL     1      44.721 -20.664   2.546  1.00  0.00     0.002 A 
HETATM   14  C   UNL     1      45.019 -20.026   3.754  1.00  0.00     0.030 A 
ENDROOT
BRANCH   6  15
HETATM   15  C   UNL     1      40.607 -14.844   5.836  1.00  0.00     0.229 C 
BRANCH  15  16
HETATM   16  C   UNL     1      41.096 -13.390   5.727  1.00  0.00     0.235 C 
HETATM   17  N   UNL     1      40.606 -12.552   6.698  1.00  0.00    -0.355 N 
HETATM   18  H   UNL     1      39.870 -12.956   7.262  1.00  0.00     0.162 HD
HETATM   19  O   UNL     1      41.914 -13.066   4.874  1.00  0.00    -0.272 OA
BRANCH  17  20
HETATM   20  C   UNL     1      40.806 -11.116   6.850  1.00  0.00     0.084 C 
HETATM   21  C   UNL     1      39.544 -10.305   7.178  1.00  0.00     0.025 C 
HETATM   22  C   UNL     1      39.289 -10.038   8.662  1.00  0.00     0.002 C 
HETATM   23  C   UNL     1      40.549  -9.641   9.419  1.00  0.00     0.000 C 
HETATM   24  C   UNL     1      41.670 -10.651   9.212  1.00  0.00     0.002 C 
HETATM   25  C   UNL     1      42.012 -10.789   7.735  1.00  0.00     0.025 C 
ENDBRANCH  17  20
ENDBRANCH  15  16
ENDBRANCH   6  15
BRANCH   5  26
HETATM   26  C   UNL     1      41.214 -15.924   2.830  1.00  0.00    -0.030 A 
HETATM   27  C   UNL     1      39.990 -15.796   2.153  1.00  0.00     0.012 A 
HETATM   28  C   UNL     1      39.898 -15.067   0.964  1.00  0.00     0.037 A 
HETATM   29  C   UNL     1      41.020 -14.443   0.421  1.00  0.00     0.068 A 
HETATM   30  C   UNL     1      42.242 -14.554   1.082  1.00  0.00     0.037 A 
HETATM   31  C   UNL     1      42.335 -15.282   2.275  1.00  0.00     0.012 A 
BRANCH  29  32
HETATM   32  O   UNL     1      40.791 -13.763  -0.742  1.00  0.00    -0.356 OA
HETATM   33  C   UNL     1      40.421 -14.536  -1.876  1.00  0.00     0.210 C 
ENDBRANCH  29  32
ENDBRANCH   5  26
TORSDOF 5
ENDMDL
MODEL 7
REMARK VINA RESULT:      -8.0      2.156      3.753
REMARK  5 active torsions:
REMARK  status: ('A' for Active; 'I' for Inactive)
REMARK    1  A    between atoms: C_5  and  C_6 
REMARK    2  A    between atoms: C_9  and  O_10 
REMARK    3  A    between atoms: N_14  and  C_15 
REMARK    4  A    between atoms: C_15  and  C_16 
REMARK       I    between atoms: C_16  and  N_17 
REMARK    5  A    between atoms: N_17  and  C_18 
ROOT
HETATM    1  C   UNL     1      40.956 -15.363  -1.620  1.00  0.00     0.156 C 
HETATM    2  N   UNL     1      40.380 -14.836  -0.406  1.00  0.00    -0.346 N 
HETATM    3  C   UNL     1      40.529 -15.356   0.833  1.00  0.00     0.113 A 
HETATM    4  C   UNL     1      39.811 -14.620   1.736  1.00  0.00     0.014 A 
HETATM    5  C   UNL     1      39.941 -15.203   3.096  1.00  0.00     0.158 A 
HETATM    6  N   UNL     1      40.917 -16.284   2.812  1.00  0.00    -0.325 N 
HETATM    7  C   UNL     1      41.219 -16.434   1.456  1.00  0.00     0.272 A 
HETATM    8  O   UNL     1      41.924 -17.281   0.937  1.00  0.00    -0.266 OA
HETATM    9  C   UNL     1      39.205 -13.555   1.045  1.00  0.00     0.002 A 
HETATM   10  C   UNL     1      39.586 -13.698  -0.306  1.00  0.00     0.045 A 
HETATM   11  C   UNL     1      38.394 -12.468   1.416  1.00  0.00     0.014 A 
HETATM   12  C   UNL     1      37.988 -11.550   0.442  1.00  0.00     0.001 A 
HETATM   13  C   UNL     1      38.374 -11.707  -0.887  1.00  0.00     0.002 A 
HETATM   14  C   UNL     1      39.175 -12.781  -1.286  1.00  0.00     0.030 A 
ENDROOT
BRANCH   6  15
HETATM   15  C   UNL     1      41.285 -17.290   3.799  1.00  0.00     0.229 C 
BRANCH  15  16
HETATM   16  C   UNL     1      42.786 -17.624   3.844  1.00  0.00     0.235 C 
HETATM   17  N   UNL     1      43.095 -18.906   3.461  1.00  0.00    -0.355 N 
HETATM   18  H   UNL     1      42.291 -19.511   3.349  1.00  0.00     0.162 HD
HETATM   19  O   UNL     1      43.611 -16.765   4.132  1.00  0.00    -0.272 OA
BRANCH  17  20
HETATM   20  C   UNL     1      44.393 -19.568   3.452  1.00  0.00     0.084 C 
HETATM   21  C   UNL     1      44.903 -20.038   4.823  1.00  0.00     0.025 C 
HETATM   22  C   UNL     1      44.594 -21.490   5.188  1.00  0.00     0.002 C 
HETATM   23  C   UNL     1      44.817 -22.454   4.031  1.00  0.00     0.000 C 
HETATM   24  C   UNL     1      44.064 -22.015   2.782  1.00  0.00     0.002 C 
HETATM   25  C   UNL     1      44.499 -20.622   2.346  1.00  0.00     0.025 C 
ENDBRANCH  17  20
ENDBRANCH  15  16
ENDBRANCH   6  15
BRANCH   5  26
HETATM   26  C   UNL     1      40.447 -14.160   4.065  1.00  0.00    -0.030 A 
HETATM   27  C   UNL     1      39.638 -13.825   5.164  1.00  0.00     0.012 A 
HETATM   28  C   UNL     1      40.070 -12.902   6.121  1.00  0.00     0.037 A 
HETATM   29  C   UNL     1      41.320 -12.294   6.011  1.00  0.00     0.068 A 
HETATM   30  C   UNL     1      42.138 -12.619   4.932  1.00  0.00     0.037 A 
HETATM   31  C   UNL     1      41.708 -13.546   3.973  1.00  0.00     0.012 A 
BRANCH  29  32
HETATM   32  O   UNL     1      41.618 -11.414   7.014  1.00  0.00    -0.356 OA
HETATM   33  C   UNL     1      40.534 -10.960   7.814  1.00  0.00     0.210 C 
ENDBRANCH  29  32
ENDBRANCH   5  26
TORSDOF 5
ENDMDL
MODEL 8
REMARK VINA RESULT:      -7.7      2.000      3.146
REMARK  5 active torsions:
REMARK  status: ('A' for Active; 'I' for Inactive)
REMARK    1  A    between atoms: C_5  and  C_6 
REMARK    2  A    between atoms: C_9  and  O_10 
REMARK    3  A    between atoms: N_14  and  C_15 
REMARK    4  A    between atoms: C_15  and  C_16 
REMARK       I    between atoms: C_16  and  N_17 
REMARK    5  A    between atoms: N_17  and  C_18 
ROOT
HETATM    1  C   UNL     1      40.310 -13.609  -2.002  1.00  0.00     0.156 C 
HETATM    2  N   UNL     1      40.063 -13.691  -0.582  1.00  0.00    -0.346 N 
HETATM    3  C   UNL     1      40.450 -14.698   0.233  1.00  0.00     0.113 A 
HETATM    4  C   UNL     1      40.011 -14.460   1.507  1.00  0.00     0.014 A 
HETATM    5  C   UNL     1      40.402 -15.577   2.404  1.00  0.00     0.158 A 
HETATM    6  N   UNL     1      41.207 -16.388   1.457  1.00  0.00    -0.325 N 
HETATM    7  C   UNL     1      41.183 -15.915   0.142  1.00  0.00     0.272 A 
HETATM    8  O   UNL     1      41.689 -16.421  -0.843  1.00  0.00    -0.266 OA
HETATM    9  C   UNL     1      39.344 -13.222   1.512  1.00  0.00     0.002 A 
HETATM   10  C   UNL     1      39.397 -12.742   0.186  1.00  0.00     0.045 A 
HETATM   11  C   UNL     1      38.719 -12.438   2.499  1.00  0.00     0.014 A 
HETATM   12  C   UNL     1      38.171 -11.200   2.147  1.00  0.00     0.001 A 
HETATM   13  C   UNL     1      38.234 -10.742   0.834  1.00  0.00     0.002 A 
HETATM   14  C   UNL     1      38.844 -11.502  -0.169  1.00  0.00     0.030 A 
ENDROOT
BRANCH   6  15
HETATM   15  C   UNL     1      41.716 -17.712   1.790  1.00  0.00     0.229 C 
BRANCH  15  16
HETATM   16  C   UNL     1      43.087 -17.715   2.487  1.00  0.00     0.235 C 
HETATM   17  N   UNL     1      43.074 -18.218   3.764  1.00  0.00    -0.355 N 
HETATM   18  H   UNL     1      42.148 -18.375   4.140  1.00  0.00     0.162 HD
HETATM   19  O   UNL     1      44.095 -17.359   1.887  1.00  0.00    -0.272 OA
BRANCH  17  20
HETATM   20  C   UNL     1      44.169 -18.302   4.722  1.00  0.00     0.084 C 
HETATM   21  C   UNL     1      44.087 -17.326   5.906  1.00  0.00     0.025 C 
HETATM   22  C   UNL     1      43.440 -17.874   7.179  1.00  0.00     0.002 C 
HETATM   23  C   UNL     1      43.893 -19.288   7.514  1.00  0.00     0.000 C 
HETATM   24  C   UNL     1      43.705 -20.233   6.335  1.00  0.00     0.002 C 
HETATM   25  C   UNL     1      44.483 -19.747   5.119  1.00  0.00     0.025 C 
ENDBRANCH  17  20
ENDBRANCH  15  16
ENDBRANCH   6  15
BRANCH   5  26
HETATM   26  C   UNL     1      41.189 -15.050   3.582  1.00  0.00    -0.030 A 
HETATM   27  C   UNL     1      42.368 -14.331   3.326  1.00  0.00     0.012 A 
HETATM   28  C   UNL     1      43.115 -13.778   4.371  1.00  0.00     0.037 A 
HETATM   29  C   UNL     1      42.704 -13.922   5.695  1.00  0.00     0.068 A 
HETATM   30  C   UNL     1      41.534 -14.627   5.968  1.00  0.00     0.037 A 
HETATM   31  C   UNL     1      40.783 -15.179   4.922  1.00  0.00     0.012 A 
BRANCH  29  32
HETATM   32  O   UNL     1      43.524 -13.333   6.616  1.00  0.00    -0.356 OA
HETATM   33  C   UNL     1      44.793 -13.938   6.827  1.00  0.00     0.210 C 
ENDBRANCH  29  32
ENDBRANCH   5  26
TORSDOF 5
ENDMDL
MODEL 9
REMARK VINA RESULT:      -7.7      2.945      6.988
REMARK  5 active torsions:
REMARK  status: ('A' for Active; 'I' for Inactive)
REMARK    1  A    between atoms: C_5  and  C_6 
REMARK    2  A    between atoms: C_9  and  O_10 
REMARK    3  A    between atoms: N_14  and  C_15 
REMARK    4  A    between atoms: C_15  and  C_16 
REMARK       I    between atoms: C_16  and  N_17 
REMARK    5  A    between atoms: N_17  and  C_18 
ROOT
HETATM    1  C   UNL     1      42.454 -18.494   2.335  1.00  0.00     0.156 C 
HETATM    2  N   UNL     1      42.619 -17.281   3.099  1.00  0.00    -0.346 N 
HETATM    3  C   UNL     1      42.131 -16.064   2.770  1.00  0.00     0.113 A 
HETATM    4  C   UNL     1      42.513 -15.141   3.705  1.00  0.00     0.014 A 
HETATM    5  C   UNL     1      42.011 -13.793   3.334  1.00  0.00     0.158 A 
HETATM    6  N   UNL     1      41.214 -14.146   2.132  1.00  0.00    -0.325 N 
HETATM    7  C   UNL     1      41.336 -15.482   1.742  1.00  0.00     0.272 A 
HETATM    8  O   UNL     1      40.857 -16.020   0.760  1.00  0.00    -0.266 OA
HETATM    9  C   UNL     1      43.248 -15.809   4.700  1.00  0.00     0.002 A 
HETATM   10  C   UNL     1      43.294 -17.164   4.310  1.00  0.00     0.045 A 
HETATM   11  C   UNL     1      43.862 -15.422   5.905  1.00  0.00     0.014 A 
HETATM   12  C   UNL     1      44.498 -16.388   6.692  1.00  0.00     0.001 A 
HETATM   13  C   UNL     1      44.533 -17.721   6.292  1.00  0.00     0.002 A 
HETATM   14  C   UNL     1      43.936 -18.133   5.096  1.00  0.00     0.030 A 
ENDROOT
BRANCH   6  15
HETATM   15  C   UNL     1      40.614 -13.141   1.264  1.00  0.00     0.229 C 
BRANCH  15  16
HETATM   16  C   UNL     1      41.129 -13.156  -0.185  1.00  0.00     0.235 C 
HETATM   17  N   UNL     1      40.210 -13.582  -1.111  1.00  0.00    -0.355 N 
HETATM   18  H   UNL     1      39.369 -13.978  -0.710  1.00  0.00     0.162 HD
HETATM   19  O   UNL     1      42.251 -12.743  -0.455  1.00  0.00    -0.272 OA
BRANCH  17  20
HETATM   20  C   UNL     1      40.384 -13.782  -2.544  1.00  0.00     0.084 C 
HETATM   21  C   UNL     1      41.067 -15.097  -2.949  1.00  0.00     0.025 C 
HETATM   22  C   UNL     1      40.132 -16.259  -3.289  1.00  0.00     0.002 C 
HETATM   23  C   UNL     1      38.947 -15.835  -4.146  1.00  0.00     0.000 C 
HETATM   24  C   UNL     1      38.193 -14.668  -3.523  1.00  0.00     0.002 C 
HETATM   25  C   UNL     1      39.109 -13.468  -3.333  1.00  0.00     0.025 C 
ENDBRANCH  17  20
ENDBRANCH  15  16
ENDBRANCH   6  15
BRANCH   5  26
HETATM   26  C   UNL     1      41.192 -13.212   4.463  1.00  0.00    -0.030 A 
HETATM   27  C   UNL     1      41.628 -12.013   5.052  1.00  0.00     0.012 A 
HETATM   28  C   UNL     1      40.890 -11.401   6.069  1.00  0.00     0.037 A 
HETATM   29  C   UNL     1      39.696 -11.963   6.521  1.00  0.00     0.068 A 
HETATM   30  C   UNL     1      39.245 -13.148   5.944  1.00  0.00     0.037 A 
HETATM   31  C   UNL     1      39.983 -13.762   4.923  1.00  0.00     0.012 A 
BRANCH  29  32
HETATM   32  O   UNL     1      39.076 -11.263   7.517  1.00  0.00    -0.356 OA
HETATM   33  C   UNL     1      39.883 -10.849   8.611  1.00  0.00     0.210 C 
ENDBRANCH  29  32
ENDBRANCH   5  26
TORSDOF 5
ENDMDL
MODEL 10
REMARK VINA RESULT:      -7.5      2.189      7.530
REMARK  5 active torsions:
REMARK  status: ('A' for Active; 'I' for Inactive)
REMARK    1  A    between atoms: C_5  and  C_6 
REMARK    2  A    between atoms: C_9  and  O_10 
REMARK    3  A    between atoms: N_14  and  C_15 
REMARK    4  A    between atoms: C_15  and  C_16 
REMARK       I    between atoms: C_16  and  N_17 
REMARK    5  A    between atoms: N_17  and  C_18 
ROOT
HETATM    1  C   UNL     1      43.181 -19.656   2.091  1.00  0.00     0.156 C 
HETATM    2  N   UNL     1      43.277 -18.499   2.948  1.00  0.00    -0.346 N 
HETATM    3  C   UNL     1      42.948 -17.232   2.610  1.00  0.00     0.113 A 
HETATM    4  C   UNL     1      43.204 -16.389   3.657  1.00  0.00     0.014 A 
HETATM    5  C   UNL     1      42.878 -14.989   3.284  1.00  0.00     0.158 A 
HETATM    6  N   UNL     1      42.307 -15.218   1.933  1.00  0.00    -0.325 N 
HETATM    7  C   UNL     1      42.410 -16.539   1.488  1.00  0.00     0.272 A 
HETATM    8  O   UNL     1      42.094 -16.988   0.402  1.00  0.00    -0.266 OA
HETATM    9  C   UNL     1      43.684 -17.162   4.729  1.00  0.00     0.002 A 
HETATM   10  C   UNL     1      43.712 -18.496   4.269  1.00  0.00     0.045 A 
HETATM   11  C   UNL     1      44.078 -16.885   6.051  1.00  0.00     0.014 A 
HETATM   12  C   UNL     1      44.481 -17.936   6.881  1.00  0.00     0.001 A 
HETATM   13  C   UNL     1      44.501 -19.246   6.411  1.00  0.00     0.002 A 
HETATM   14  C   UNL     1      44.120 -19.550   5.100  1.00  0.00     0.030 A 
ENDROOT
BRANCH   6  15
HETATM   15  C   UNL     1      41.957 -14.127   1.032  1.00  0.00     0.229 C 
BRANCH  15  16
HETATM   16  C   UNL     1      40.459 -13.784   0.993  1.00  0.00     0.235 C 
HETATM   17  N   UNL     1      40.114 -12.663   1.707  1.00  0.00    -0.355 N 
HETATM   18  H   UNL     1      40.855 -12.299   2.291  1.00  0.00     0.162 HD
HETATM   19  O   UNL     1      39.683 -14.440   0.307  1.00  0.00    -0.272 OA
BRANCH  17  20
HETATM   20  C   UNL     1      38.790 -12.100   1.938  1.00  0.00     0.084 C 
HETATM   21  C   UNL     1      38.542 -11.555   3.353  1.00  0.00     0.025 C 
HETATM   22  C   UNL     1      38.790 -10.059   3.545  1.00  0.00     0.002 C 
HETATM   23  C   UNL     1      38.242  -9.214   2.403  1.00  0.00     0.000 C 
HETATM   24  C   UNL     1      38.749  -9.701   1.052  1.00  0.00     0.002 C 
HETATM   25  C   UNL     1      38.358 -11.153   0.815  1.00  0.00     0.025 C 
ENDBRANCH  17  20
ENDBRANCH  15  16
ENDBRANCH   6  15
BRANCH   5  26
HETATM   26  C   UNL     1      41.898 -14.400   4.272  1.00  0.00    -0.030 A 
HETATM   27  C   UNL     1      42.202 -13.157   4.850  1.00  0.00     0.012 A 
HETATM   28  C   UNL     1      41.314 -12.539   5.736  1.00  0.00     0.037 A 
HETATM   29  C   UNL     1      40.099 -13.139   6.062  1.00  0.00     0.068 A 
HETATM   30  C   UNL     1      39.777 -14.369   5.493  1.00  0.00     0.037 A 
HETATM   31  C   UNL     1      40.665 -14.989   4.604  1.00  0.00     0.012 A 
BRANCH  29  32
HETATM   32  O   UNL     1      39.327 -12.428   6.937  1.00  0.00    -0.356 OA
HETATM   33  C   UNL     1      39.848 -11.185   7.392  1.00  0.00     0.210 C 
ENDBRANCH  29  32
ENDBRANCH   5  26
TORSDOF 5
ENDMDL
