MODEL 1
REMARK VINA RESULT:      -9.2      0.000      0.000
REMARK  4 active torsions:
REMARK  status: ('A' for Active; 'I' for Inactive)
REMARK    1  A    between atoms: C_3  and  C_4 
REMARK    2  A    between atoms: C_15  and  C_16 
REMARK       I    between atoms: C_16  and  N_17 
REMARK    3  A    between atoms: N_17  and  C_18 
REMARK    4  A    between atoms: C_18  and  C_19 
ROOT
HETATM    1  C   UNL     1      44.205 -20.469   6.723  1.00  0.00     0.055 C 
HETATM    2  C   UNL     1      44.050 -19.097   6.139  1.00  0.00     0.024 A 
HETATM    3  C   UNL     1      43.900 -18.776   4.841  1.00  0.00     0.096 A 
HETATM    4  O   UNL     1      43.705 -17.497   4.353  1.00  0.00    -0.307 OA
HETATM    5  C   UNL     1      43.712 -16.432   5.218  1.00  0.00     0.106 A 
HETATM    6  C   UNL     1      43.909 -16.617   6.588  1.00  0.00     0.050 A 
HETATM    7  C   UNL     1      44.063 -17.981   7.117  1.00  0.00     0.193 A 
HETATM    8  O   UNL     1      44.202 -18.180   8.319  1.00  0.00    -0.287 OA
HETATM    9  C   UNL     1      43.530 -15.134   4.713  1.00  0.00     0.066 A 
HETATM   10  C   UNL     1      43.589 -14.044   5.604  1.00  0.00     0.020 A 
HETATM   11  C   UNL     1      43.804 -14.238   6.969  1.00  0.00     0.002 A 
HETATM   12  C   UNL     1      43.956 -15.527   7.464  1.00  0.00     0.018 A 
ENDROOT
BRANCH   9  13
HETATM   13  C   UNL     1      43.241 -14.802   3.280  1.00  0.00     0.255 C 
HETATM   14  N   UNL     1      42.545 -15.719   2.530  1.00  0.00    -0.349 N 
HETATM   15  H   UNL     1      42.318 -16.624   2.924  1.00  0.00     0.163 HD
HETATM   16  O   UNL     1      43.596 -13.719   2.821  1.00  0.00    -0.268 OA
BRANCH  14  17
HETATM   17  C   UNL     1      42.155 -15.463   1.154  1.00  0.00     0.114 C 
HETATM   18  C   UNL     1      42.210 -16.746   0.320  1.00  0.00     0.037 C 
BRANCH  17  19
HETATM   19  C   UNL     1      40.806 -14.768   1.149  1.00  0.00    -0.033 A 
HETATM   20  C   UNL     1      40.588 -13.530   0.536  1.00  0.00     0.028 A 
HETATM   21  C   UNL     1      39.311 -12.989   0.555  1.00  0.00     0.116 A 
HETATM   22  N   UNL     1      38.243 -13.594   1.115  1.00  0.00    -0.273 NA
HETATM   23  C   UNL     1      38.465 -14.793   1.692  1.00  0.00     0.116 A 
HETATM   24  C   UNL     1      39.705 -15.411   1.730  1.00  0.00     0.028 A 
ENDBRANCH  17  19
ENDBRANCH  14  17
ENDBRANCH   9  13
BRANCH   3  25
HETATM   25  C   UNL     1      43.931 -19.783   3.771  1.00  0.00    -0.002 A 
HETATM   26  C   UNL     1      43.203 -19.587   2.592  1.00  0.00     0.014 A 
HETATM   27  C   UNL     1      43.225 -20.553   1.584  1.00  0.00     0.001 A 
HETATM   28  C   UNL     1      43.982 -21.714   1.742  1.00  0.00     0.000 A 
HETATM   29  C   UNL     1      44.721 -21.910   2.907  1.00  0.00     0.001 A 
HETATM   30  C   UNL     1      44.697 -20.948   3.918  1.00  0.00     0.014 A 
ENDBRANCH   3  25
TORSDOF 4
ENDMDL
MODEL 2
REMARK VINA RESULT:      -9.1      1.797      4.763
REMARK  4 active torsions:
REMARK  status: ('A' for Active; 'I' for Inactive)
REMARK    1  A    between atoms: C_3  and  C_4 
REMARK    2  A    between atoms: C_15  and  C_16 
REMARK       I    between atoms: C_16  and  N_17 
REMARK    3  A    between atoms: N_17  and  C_18 
REMARK    4  A    between atoms: C_18  and  C_19 
ROOT
HETATM    1  C   UNL     1      43.222 -16.927   8.115  1.00  0.00     0.055 C 
HETATM    2  C   UNL     1      43.294 -17.298   6.664  1.00  0.00     0.024 A 
HETATM    3  C   UNL     1      42.872 -16.568   5.616  1.00  0.00     0.096 A 
HETATM    4  O   UNL     1      43.009 -16.928   4.288  1.00  0.00    -0.307 OA
HETATM    5  C   UNL     1      43.565 -18.140   3.966  1.00  0.00     0.106 A 
HETATM    6  C   UNL     1      44.000 -19.020   4.960  1.00  0.00     0.050 A 
HETATM    7  C   UNL     1      43.905 -18.618   6.372  1.00  0.00     0.193 A 
HETATM    8  O   UNL     1      44.310 -19.352   7.266  1.00  0.00    -0.287 OA
HETATM    9  C   UNL     1      43.687 -18.506   2.615  1.00  0.00     0.066 A 
HETATM   10  C   UNL     1      44.214 -19.774   2.300  1.00  0.00     0.020 A 
HETATM   11  C   UNL     1      44.629 -20.653   3.300  1.00  0.00     0.002 A 
HETATM   12  C   UNL     1      44.530 -20.273   4.633  1.00  0.00     0.018 A 
ENDROOT
BRANCH   9  13
HETATM   13  C   UNL     1      43.325 -17.632   1.453  1.00  0.00     0.255 C 
HETATM   14  N   UNL     1      42.288 -16.743   1.608  1.00  0.00    -0.349 N 
HETATM   15  H   UNL     1      41.739 -16.753   2.459  1.00  0.00     0.163 HD
HETATM   16  O   UNL     1      43.974 -17.700   0.413  1.00  0.00    -0.268 OA
BRANCH  14  17
HETATM   17  C   UNL     1      41.905 -15.805   0.568  1.00  0.00     0.114 C 
HETATM   18  C   UNL     1      41.002 -16.475  -0.472  1.00  0.00     0.037 C 
BRANCH  17  19
HETATM   19  C   UNL     1      41.307 -14.570   1.217  1.00  0.00    -0.033 A 
HETATM   20  C   UNL     1      39.930 -14.364   1.338  1.00  0.00     0.028 A 
HETATM   21  C   UNL     1      39.479 -13.218   1.977  1.00  0.00     0.116 A 
HETATM   22  N   UNL     1      40.291 -12.286   2.518  1.00  0.00    -0.273 NA
HETATM   23  C   UNL     1      41.616 -12.505   2.406  1.00  0.00     0.116 A 
HETATM   24  C   UNL     1      42.163 -13.614   1.779  1.00  0.00     0.028 A 
ENDBRANCH  17  19
ENDBRANCH  14  17
ENDBRANCH   9  13
BRANCH   3  25
HETATM   25  C   UNL     1      42.197 -15.273   5.776  1.00  0.00    -0.002 A 
HETATM   26  C   UNL     1      40.800 -15.201   5.812  1.00  0.00     0.014 A 
HETATM   27  C   UNL     1      40.164 -13.966   5.950  1.00  0.00     0.001 A 
HETATM   28  C   UNL     1      40.916 -12.798   6.065  1.00  0.00     0.000 A 
HETATM   29  C   UNL     1      42.308 -12.862   6.044  1.00  0.00     0.001 A 
HETATM   30  C   UNL     1      42.948 -14.095   5.901  1.00  0.00     0.014 A 
ENDBRANCH   3  25
TORSDOF 4
ENDMDL
MODEL 3
REMARK VINA RESULT:      -8.7      2.202      5.234
REMARK  4 active torsions:
REMARK  status: ('A' for Active; 'I' for Inactive)
REMARK    1  A    between atoms: C_3  and  C_4 
REMARK    2  A    between atoms: C_15  and  C_16 
REMARK       I    between atoms: C_16  and  N_17 
REMARK    3  A    between atoms: N_17  and  C_18 
REMARK    4  A    between atoms: C_18  and  C_19 
ROOT
HETATM    1  C   UNL     1      43.689 -15.981   7.524  1.00  0.00     0.055 C 
HETATM    2  C   UNL     1      43.338 -16.393   6.126  1.00  0.00     0.024 A 
HETATM    3  C   UNL     1      42.551 -15.734   5.256  1.00  0.00     0.096 A 
HETATM    4  O   UNL     1      42.299 -16.125   3.954  1.00  0.00    -0.307 OA
HETATM    5  C   UNL     1      42.829 -17.300   3.484  1.00  0.00     0.106 A 
HETATM    6  C   UNL     1      43.624 -18.109   4.298  1.00  0.00     0.050 A 
HETATM    7  C   UNL     1      43.938 -17.669   5.666  1.00  0.00     0.193 A 
HETATM    8  O   UNL     1      44.662 -18.339   6.394  1.00  0.00    -0.287 OA
HETATM    9  C   UNL     1      42.556 -17.700   2.165  1.00  0.00     0.066 A 
HETATM   10  C   UNL     1      43.064 -18.932   1.710  1.00  0.00     0.020 A 
HETATM   11  C   UNL     1      43.842 -19.742   2.536  1.00  0.00     0.002 A 
HETATM   12  C   UNL     1      44.131 -19.327   3.831  1.00  0.00     0.018 A 
ENDROOT
BRANCH   9  13
HETATM   13  C   UNL     1      41.777 -16.896   1.168  1.00  0.00     0.255 C 
HETATM   14  N   UNL     1      40.849 -15.999   1.641  1.00  0.00    -0.349 N 
HETATM   15  H   UNL     1      40.648 -15.958   2.632  1.00  0.00     0.163 HD
HETATM   16  O   UNL     1      42.005 -17.025  -0.032  1.00  0.00    -0.268 OA
BRANCH  14  17
HETATM   17  C   UNL     1      40.094 -15.124   0.761  1.00  0.00     0.114 C 
HETATM   18  C   UNL     1      38.732 -14.776   1.368  1.00  0.00     0.037 C 
BRANCH  17  19
HETATM   19  C   UNL     1      40.952 -13.921   0.413  1.00  0.00    -0.033 A 
HETATM   20  C   UNL     1      41.326 -13.604  -0.896  1.00  0.00     0.028 A 
HETATM   21  C   UNL     1      42.085 -12.464  -1.118  1.00  0.00     0.116 A 
HETATM   22  N   UNL     1      42.475 -11.615  -0.144  1.00  0.00    -0.273 NA
HETATM   23  C   UNL     1      42.096 -11.927   1.111  1.00  0.00     0.116 A 
HETATM   24  C   UNL     1      41.344 -13.045   1.434  1.00  0.00     0.028 A 
ENDBRANCH  17  19
ENDBRANCH  14  17
ENDBRANCH   9  13
BRANCH   3  25
HETATM   25  C   UNL     1      41.851 -14.491   5.610  1.00  0.00    -0.002 A 
HETATM   26  C   UNL     1      42.550 -13.281   5.690  1.00  0.00     0.014 A 
HETATM   27  C   UNL     1      41.882 -12.106   6.041  1.00  0.00     0.001 A 
HETATM   28  C   UNL     1      40.513 -12.129   6.302  1.00  0.00     0.000 A 
HETATM   29  C   UNL     1      39.807 -13.327   6.212  1.00  0.00     0.001 A 
HETATM   30  C   UNL     1      40.472 -14.504   5.865  1.00  0.00     0.014 A 
ENDBRANCH   3  25
TORSDOF 4
ENDMDL
MODEL 4
REMARK VINA RESULT:      -8.6      2.315      6.227
REMARK  4 active torsions:
REMARK  status: ('A' for Active; 'I' for Inactive)
REMARK    1  A    between atoms: C_3  and  C_4 
REMARK    2  A    between atoms: C_15  and  C_16 
REMARK       I    between atoms: C_16  and  N_17 
REMARK    3  A    between atoms: N_17  and  C_18 
REMARK    4  A    between atoms: C_18  and  C_19 
ROOT
HETATM    1  C   UNL     1      41.378 -17.197   1.019  1.00  0.00     0.055 C 
HETATM    2  C   UNL     1      42.107 -17.149   2.329  1.00  0.00     0.024 A 
HETATM    3  C   UNL     1      42.193 -16.106   3.175  1.00  0.00     0.096 A 
HETATM    4  O   UNL     1      42.831 -16.123   4.401  1.00  0.00    -0.307 OA
HETATM    5  C   UNL     1      43.489 -17.257   4.807  1.00  0.00     0.106 A 
HETATM    6  C   UNL     1      43.523 -18.398   4.003  1.00  0.00     0.050 A 
HETATM    7  C   UNL     1      42.800 -18.400   2.722  1.00  0.00     0.193 A 
HETATM    8  O   UNL     1      42.780 -19.397   2.009  1.00  0.00    -0.287 OA
HETATM    9  C   UNL     1      44.150 -17.263   6.047  1.00  0.00     0.066 A 
HETATM   10  C   UNL     1      44.864 -18.416   6.430  1.00  0.00     0.020 A 
HETATM   11  C   UNL     1      44.907 -19.544   5.612  1.00  0.00     0.002 A 
HETATM   12  C   UNL     1      44.228 -19.540   4.399  1.00  0.00     0.018 A 
ENDROOT
BRANCH   9  13
HETATM   13  C   UNL     1      44.135 -16.135   7.034  1.00  0.00     0.255 C 
HETATM   14  N   UNL     1      44.641 -14.920   6.636  1.00  0.00    -0.349 N 
HETATM   15  H   UNL     1      45.086 -14.831   5.732  1.00  0.00     0.163 HD
HETATM   16  O   UNL     1      43.647 -16.305   8.148  1.00  0.00    -0.268 OA
BRANCH  14  17
HETATM   17  C   UNL     1      44.608 -13.747   7.493  1.00  0.00     0.114 C 
HETATM   18  C   UNL     1      45.953 -13.015   7.472  1.00  0.00     0.037 C 
BRANCH  17  19
HETATM   19  C   UNL     1      43.419 -12.889   7.102  1.00  0.00    -0.033 A 
HETATM   20  C   UNL     1      42.579 -13.193   6.028  1.00  0.00     0.028 A 
HETATM   21  C   UNL     1      41.497 -12.364   5.769  1.00  0.00     0.116 A 
HETATM   22  N   UNL     1      41.182 -11.280   6.507  1.00  0.00    -0.273 NA
HETATM   23  C   UNL     1      41.994 -11.006   7.548  1.00  0.00     0.116 A 
HETATM   24  C   UNL     1      43.102 -11.769   7.882  1.00  0.00     0.028 A 
ENDBRANCH  17  19
ENDBRANCH  14  17
ENDBRANCH   9  13
BRANCH   3  25
HETATM   25  C   UNL     1      41.601 -14.794   2.873  1.00  0.00    -0.002 A 
HETATM   26  C   UNL     1      42.386 -13.769   2.333  1.00  0.00     0.014 A 
HETATM   27  C   UNL     1      41.822 -12.521   2.062  1.00  0.00     0.001 A 
HETATM   28  C   UNL     1      40.471 -12.292   2.317  1.00  0.00     0.000 A 
HETATM   29  C   UNL     1      39.679 -13.312   2.842  1.00  0.00     0.001 A 
HETATM   30  C   UNL     1      40.240 -14.559   3.118  1.00  0.00     0.014 A 
ENDBRANCH   3  25
TORSDOF 4
ENDMDL
MODEL 5
REMARK VINA RESULT:      -8.5      2.919      5.771
REMARK  4 active torsions:
REMARK  status: ('A' for Active; 'I' for Inactive)
REMARK    1  A    between atoms: C_3  and  C_4 
REMARK    2  A    between atoms: C_15  and  C_16 
REMARK       I    between atoms: C_16  and  N_17 
REMARK    3  A    between atoms: N_17  and  C_18 
REMARK    4  A    between atoms: C_18  and  C_19 
ROOT
HETATM    1  C   UNL     1      43.224 -15.890   6.966  1.00  0.00     0.055 C 
HETATM    2  C   UNL     1      42.909 -15.910   5.500  1.00  0.00     0.024 A 
HETATM    3  C   UNL     1      42.149 -15.033   4.819  1.00  0.00     0.096 A 
HETATM    4  O   UNL     1      41.930 -15.059   3.454  1.00  0.00    -0.307 OA
HETATM    5  C   UNL     1      42.468 -16.071   2.699  1.00  0.00     0.106 A 
HETATM    6  C   UNL     1      43.237 -17.078   3.287  1.00  0.00     0.050 A 
HETATM    7  C   UNL     1      43.516 -17.023   4.730  1.00  0.00     0.193 A 
HETATM    8  O   UNL     1      44.218 -17.871   5.270  1.00  0.00    -0.287 OA
HETATM    9  C   UNL     1      42.229 -16.101   1.315  1.00  0.00     0.066 A 
HETATM   10  C   UNL     1      42.745 -17.172   0.560  1.00  0.00     0.020 A 
HETATM   11  C   UNL     1      43.498 -18.182   1.158  1.00  0.00     0.002 A 
HETATM   12  C   UNL     1      43.753 -18.132   2.524  1.00  0.00     0.018 A 
ENDROOT
BRANCH   9  13
HETATM   13  C   UNL     1      41.481 -15.051   0.550  1.00  0.00     0.255 C 
HETATM   14  N   UNL     1      41.908 -14.748  -0.721  1.00  0.00    -0.349 N 
HETATM   15  H   UNL     1      42.756 -15.168  -1.081  1.00  0.00     0.163 HD
HETATM   16  O   UNL     1      40.497 -14.515   1.052  1.00  0.00    -0.268 OA
BRANCH  14  17
HETATM   17  C   UNL     1      41.210 -13.797  -1.569  1.00  0.00     0.114 C 
HETATM   18  C   UNL     1      42.195 -13.012  -2.440  1.00  0.00     0.037 C 
BRANCH  17  19
HETATM   19  C   UNL     1      40.133 -14.533  -2.346  1.00  0.00    -0.033 A 
HETATM   20  C   UNL     1      38.801 -14.109  -2.390  1.00  0.00     0.028 A 
HETATM   21  C   UNL     1      37.895 -14.830  -3.154  1.00  0.00     0.116 A 
HETATM   22  N   UNL     1      38.220 -15.915  -3.887  1.00  0.00    -0.273 NA
HETATM   23  C   UNL     1      39.510 -16.304  -3.845  1.00  0.00     0.116 A 
HETATM   24  C   UNL     1      40.487 -15.655  -3.106  1.00  0.00     0.028 A 
ENDBRANCH  17  19
ENDBRANCH  14  17
ENDBRANCH   9  13
BRANCH   3  25
HETATM   25  C   UNL     1      41.444 -13.923   5.475  1.00  0.00    -0.002 A 
HETATM   26  C   UNL     1      42.118 -12.733   5.773  1.00  0.00     0.014 A 
HETATM   27  C   UNL     1      41.447 -11.687   6.409  1.00  0.00     0.001 A 
HETATM   28  C   UNL     1      40.099 -11.817   6.740  1.00  0.00     0.000 A 
HETATM   29  C   UNL     1      39.418 -12.993   6.435  1.00  0.00     0.001 A 
HETATM   30  C   UNL     1      40.086 -14.043   5.803  1.00  0.00     0.014 A 
ENDBRANCH   3  25
TORSDOF 4
ENDMDL
MODEL 6
REMARK VINA RESULT:      -8.5      2.197      2.877
REMARK  4 active torsions:
REMARK  status: ('A' for Active; 'I' for Inactive)
REMARK    1  A    between atoms: C_3  and  C_4 
REMARK    2  A    between atoms: C_15  and  C_16 
REMARK       I    between atoms: C_16  and  N_17 
REMARK    3  A    between atoms: N_17  and  C_18 
REMARK    4  A    between atoms: C_18  and  C_19 
ROOT
HETATM    1  C   UNL     1      45.123 -18.144   6.460  1.00  0.00     0.055 C 
HETATM    2  C   UNL     1      44.182 -17.280   5.676  1.00  0.00     0.024 A 
HETATM    3  C   UNL     1      43.570 -17.586   4.517  1.00  0.00     0.096 A 
HETATM    4  O   UNL     1      42.664 -16.777   3.856  1.00  0.00    -0.307 OA
HETATM    5  C   UNL     1      42.375 -15.532   4.355  1.00  0.00     0.106 A 
HETATM    6  C   UNL     1      42.979 -15.066   5.524  1.00  0.00     0.050 A 
HETATM    7  C   UNL     1      43.902 -15.945   6.259  1.00  0.00     0.193 A 
HETATM    8  O   UNL     1      44.421 -15.580   7.308  1.00  0.00    -0.287 OA
HETATM    9  C   UNL     1      41.467 -14.709   3.669  1.00  0.00     0.066 A 
HETATM   10  C   UNL     1      41.216 -13.414   4.164  1.00  0.00     0.020 A 
HETATM   11  C   UNL     1      41.838 -12.951   5.324  1.00  0.00     0.002 A 
HETATM   12  C   UNL     1      42.715 -13.781   6.011  1.00  0.00     0.018 A 
ENDROOT
BRANCH   9  13
HETATM   13  C   UNL     1      40.699 -15.109   2.445  1.00  0.00     0.255 C 
HETATM   14  N   UNL     1      40.561 -14.186   1.436  1.00  0.00    -0.349 N 
HETATM   15  H   UNL     1      40.897 -13.241   1.569  1.00  0.00     0.163 HD
HETATM   16  O   UNL     1      40.247 -16.247   2.354  1.00  0.00    -0.268 OA
BRANCH  14  17
HETATM   17  C   UNL     1      39.897 -14.498   0.183  1.00  0.00     0.114 C 
HETATM   18  C   UNL     1      38.462 -13.964   0.173  1.00  0.00     0.037 C 
BRANCH  17  19
HETATM   19  C   UNL     1      40.759 -14.004  -0.965  1.00  0.00    -0.033 A 
HETATM   20  C   UNL     1      41.770 -13.052  -0.804  1.00  0.00     0.028 A 
HETATM   21  C   UNL     1      42.528 -12.688  -1.907  1.00  0.00     0.116 A 
HETATM   22  N   UNL     1      42.368 -13.213  -3.139  1.00  0.00    -0.273 NA
HETATM   23  C   UNL     1      41.398 -14.140  -3.277  1.00  0.00     0.116 A 
HETATM   24  C   UNL     1      40.585 -14.564  -2.237  1.00  0.00     0.028 A 
ENDBRANCH  17  19
ENDBRANCH  14  17
ENDBRANCH   9  13
BRANCH   3  25
HETATM   25  C   UNL     1      43.810 -18.850   3.808  1.00  0.00    -0.002 A 
HETATM   26  C   UNL     1      43.365 -19.021   2.492  1.00  0.00     0.014 A 
HETATM   27  C   UNL     1      43.583 -20.229   1.828  1.00  0.00     0.001 A 
HETATM   28  C   UNL     1      44.256 -21.270   2.467  1.00  0.00     0.000 A 
HETATM   29  C   UNL     1      44.714 -21.103   3.773  1.00  0.00     0.001 A 
HETATM   30  C   UNL     1      44.494 -19.898   4.441  1.00  0.00     0.014 A 
ENDBRANCH   3  25
TORSDOF 4
ENDMDL
MODEL 7
REMARK VINA RESULT:      -8.3      2.857      7.669
REMARK  4 active torsions:
REMARK  status: ('A' for Active; 'I' for Inactive)
REMARK    1  A    between atoms: C_3  and  C_4 
REMARK    2  A    between atoms: C_15  and  C_16 
REMARK       I    between atoms: C_16  and  N_17 
REMARK    3  A    between atoms: N_17  and  C_18 
REMARK    4  A    between atoms: C_18  and  C_19 
ROOT
HETATM    1  C   UNL     1      38.523 -10.747   1.863  1.00  0.00     0.055 C 
HETATM    2  C   UNL     1      39.084 -12.073   2.280  1.00  0.00     0.024 A 
HETATM    3  C   UNL     1      39.426 -13.100   1.480  1.00  0.00     0.096 A 
HETATM    4  O   UNL     1      39.992 -14.287   1.905  1.00  0.00    -0.307 OA
HETATM    5  C   UNL     1      40.190 -14.504   3.245  1.00  0.00     0.106 A 
HETATM    6  C   UNL     1      39.832 -13.541   4.191  1.00  0.00     0.050 A 
HETATM    7  C   UNL     1      39.280 -12.255   3.739  1.00  0.00     0.193 A 
HETATM    8  O   UNL     1      38.989 -11.375   4.541  1.00  0.00    -0.287 OA
HETATM    9  C   UNL     1      40.751 -15.719   3.672  1.00  0.00     0.066 A 
HETATM   10  C   UNL     1      40.903 -15.949   5.053  1.00  0.00     0.020 A 
HETATM   11  C   UNL     1      40.527 -14.988   5.992  1.00  0.00     0.002 A 
HETATM   12  C   UNL     1      39.998 -13.777   5.561  1.00  0.00     0.018 A 
ENDROOT
BRANCH   9  13
HETATM   13  C   UNL     1      41.240 -16.805   2.762  1.00  0.00     0.255 C 
HETATM   14  N   UNL     1      42.538 -17.235   2.905  1.00  0.00    -0.349 N 
HETATM   15  H   UNL     1      43.157 -16.760   3.551  1.00  0.00     0.163 HD
HETATM   16  O   UNL     1      40.474 -17.307   1.944  1.00  0.00    -0.268 OA
BRANCH  14  17
HETATM   17  C   UNL     1      43.086 -18.328   2.122  1.00  0.00     0.114 C 
HETATM   18  C   UNL     1      43.973 -17.802   0.989  1.00  0.00     0.037 C 
BRANCH  17  19
HETATM   19  C   UNL     1      43.776 -19.304   3.057  1.00  0.00    -0.033 A 
HETATM   20  C   UNL     1      44.030 -19.020   4.403  1.00  0.00     0.028 A 
HETATM   21  C   UNL     1      44.637 -19.990   5.188  1.00  0.00     0.116 A 
HETATM   22  N   UNL     1      44.984 -21.214   4.741  1.00  0.00    -0.273 NA
HETATM   23  C   UNL     1      44.721 -21.478   3.445  1.00  0.00     0.116 A 
HETATM   24  C   UNL     1      44.126 -20.574   2.580  1.00  0.00     0.028 A 
ENDBRANCH  17  19
ENDBRANCH  14  17
ENDBRANCH   9  13
BRANCH   3  25
HETATM   25  C   UNL     1      39.224 -13.068   0.024  1.00  0.00    -0.002 A 
HETATM   26  C   UNL     1      40.199 -12.515  -0.814  1.00  0.00     0.014 A 
HETATM   27  C   UNL     1      39.995 -12.474  -2.195  1.00  0.00     0.001 A 
HETATM   28  C   UNL     1      38.826 -12.996  -2.748  1.00  0.00     0.000 A 
HETATM   29  C   UNL     1      37.857 -13.561  -1.920  1.00  0.00     0.001 A 
HETATM   30  C   UNL     1      38.055 -13.599  -0.539  1.00  0.00     0.014 A 
ENDBRANCH   3  25
TORSDOF 4
ENDMDL
MODEL 8
REMARK VINA RESULT:      -8.3      2.383      5.501
REMARK  4 active torsions:
REMARK  status: ('A' for Active; 'I' for Inactive)
REMARK    1  A    between atoms: C_3  and  C_4 
REMARK    2  A    between atoms: C_15  and  C_16 
REMARK       I    between atoms: C_16  and  N_17 
REMARK    3  A    between atoms: N_17  and  C_18 
REMARK    4  A    between atoms: C_18  and  C_19 
ROOT
HETATM    1  C   UNL     1      43.584 -15.768   7.161  1.00  0.00     0.055 C 
HETATM    2  C   UNL     1      43.147 -16.005   5.746  1.00  0.00     0.024 A 
HETATM    3  C   UNL     1      42.295 -15.258   5.021  1.00  0.00     0.096 A 
HETATM    4  O   UNL     1      41.963 -15.485   3.698  1.00  0.00    -0.307 OA
HETATM    5  C   UNL     1      42.477 -16.578   3.047  1.00  0.00     0.106 A 
HETATM    6  C   UNL     1      43.335 -17.467   3.697  1.00  0.00     0.050 A 
HETATM    7  C   UNL     1      43.733 -17.199   5.088  1.00  0.00     0.193 A 
HETATM    8  O   UNL     1      44.513 -17.940   5.676  1.00  0.00    -0.287 OA
HETATM    9  C   UNL     1      42.123 -16.812   1.708  1.00  0.00     0.066 A 
HETATM   10  C   UNL     1      42.617 -17.964   1.066  1.00  0.00     0.020 A 
HETATM   11  C   UNL     1      43.460 -18.855   1.729  1.00  0.00     0.002 A 
HETATM   12  C   UNL     1      43.828 -18.603   3.045  1.00  0.00     0.018 A 
ENDROOT
BRANCH   9  13
HETATM   13  C   UNL     1      41.269 -15.905   0.874  1.00  0.00     0.255 C 
HETATM   14  N   UNL     1      40.384 -15.074   1.520  1.00  0.00    -0.349 N 
HETATM   15  H   UNL     1      40.263 -15.148   2.522  1.00  0.00     0.163 HD
HETATM   16  O   UNL     1      41.399 -15.895  -0.347  1.00  0.00    -0.268 OA
BRANCH  14  17
HETATM   17  C   UNL     1      39.563 -14.109   0.809  1.00  0.00     0.114 C 
HETATM   18  C   UNL     1      38.073 -14.412   0.996  1.00  0.00     0.037 C 
BRANCH  17  19
HETATM   19  C   UNL     1      39.977 -12.711   1.227  1.00  0.00    -0.033 A 
HETATM   20  C   UNL     1      40.081 -12.314   2.564  1.00  0.00     0.028 A 
HETATM   21  C   UNL     1      40.500 -11.022   2.847  1.00  0.00     0.116 A 
HETATM   22  N   UNL     1      40.841 -10.115   1.908  1.00  0.00    -0.273 NA
HETATM   23  C   UNL     1      40.748 -10.516   0.624  1.00  0.00     0.116 A 
HETATM   24  C   UNL     1      40.334 -11.782   0.241  1.00  0.00     0.028 A 
ENDBRANCH  17  19
ENDBRANCH  14  17
ENDBRANCH   9  13
BRANCH   3  25
HETATM   25  C   UNL     1      41.602 -14.087   5.577  1.00  0.00    -0.002 A 
HETATM   26  C   UNL     1      40.234 -14.143   5.864  1.00  0.00     0.014 A 
HETATM   27  C   UNL     1      39.578 -13.023   6.379  1.00  0.00     0.001 A 
HETATM   28  C   UNL     1      40.285 -11.846   6.620  1.00  0.00     0.000 A 
HETATM   29  C   UNL     1      41.651 -11.786   6.349  1.00  0.00     0.001 A 
HETATM   30  C   UNL     1      42.309 -12.903   5.831  1.00  0.00     0.014 A 
ENDBRANCH   3  25
TORSDOF 4
ENDMDL
MODEL 9
REMARK VINA RESULT:      -8.3      3.046      4.187
REMARK  4 active torsions:
REMARK  status: ('A' for Active; 'I' for Inactive)
REMARK    1  A    between atoms: C_3  and  C_4 
REMARK    2  A    between atoms: C_15  and  C_16 
REMARK       I    between atoms: C_16  and  N_17 
REMARK    3  A    between atoms: N_17  and  C_18 
REMARK    4  A    between atoms: C_18  and  C_19 
ROOT
HETATM    1  C   UNL     1      42.245 -18.272   6.118  1.00  0.00     0.055 C 
HETATM    2  C   UNL     1      41.928 -17.468   4.893  1.00  0.00     0.024 A 
HETATM    3  C   UNL     1      42.296 -17.735   3.627  1.00  0.00     0.096 A 
HETATM    4  O   UNL     1      41.934 -16.993   2.518  1.00  0.00    -0.307 OA
HETATM    5  C   UNL     1      41.185 -15.855   2.678  1.00  0.00     0.106 A 
HETATM    6  C   UNL     1      40.778 -15.432   3.945  1.00  0.00     0.050 A 
HETATM    7  C   UNL     1      41.116 -16.248   5.121  1.00  0.00     0.193 A 
HETATM    8  O   UNL     1      40.743 -15.924   6.243  1.00  0.00    -0.287 OA
HETATM    9  C   UNL     1      40.834 -15.096   1.548  1.00  0.00     0.066 A 
HETATM   10  C   UNL     1      40.108 -13.903   1.731  1.00  0.00     0.020 A 
HETATM   11  C   UNL     1      39.721 -13.479   3.002  1.00  0.00     0.002 A 
HETATM   12  C   UNL     1      40.049 -14.249   4.112  1.00  0.00     0.018 A 
ENDROOT
BRANCH   9  13
HETATM   13  C   UNL     1      41.147 -15.471   0.131  1.00  0.00     0.255 C 
HETATM   14  N   UNL     1      40.779 -14.599  -0.866  1.00  0.00    -0.349 N 
HETATM   15  H   UNL     1      40.236 -13.775  -0.640  1.00  0.00     0.163 HD
HETATM   16  O   UNL     1      41.747 -16.516  -0.106  1.00  0.00    -0.268 OA
BRANCH  14  17
HETATM   17  C   UNL     1      41.098 -14.837  -2.263  1.00  0.00     0.114 C 
HETATM   18  C   UNL     1      40.099 -15.809  -2.897  1.00  0.00     0.037 C 
BRANCH  17  19
HETATM   19  C   UNL     1      41.212 -13.500  -2.973  1.00  0.00    -0.033 A 
HETATM   20  C   UNL     1      40.121 -12.854  -3.562  1.00  0.00     0.028 A 
HETATM   21  C   UNL     1      40.318 -11.618  -4.161  1.00  0.00     0.116 A 
HETATM   22  N   UNL     1      41.504 -10.977  -4.195  1.00  0.00    -0.273 NA
HETATM   23  C   UNL     1      42.545 -11.606  -3.612  1.00  0.00     0.116 A 
HETATM   24  C   UNL     1      42.449 -12.844  -2.996  1.00  0.00     0.028 A 
ENDBRANCH  17  19
ENDBRANCH  14  17
ENDBRANCH   9  13
BRANCH   3  25
HETATM   25  C   UNL     1      43.151 -18.879   3.277  1.00  0.00    -0.002 A 
HETATM   26  C   UNL     1      44.211 -19.252   4.110  1.00  0.00     0.014 A 
HETATM   27  C   UNL     1      45.029 -20.330   3.766  1.00  0.00     0.001 A 
HETATM   28  C   UNL     1      44.785 -21.049   2.597  1.00  0.00     0.000 A 
HETATM   29  C   UNL     1      43.723 -20.692   1.769  1.00  0.00     0.001 A 
HETATM   30  C   UNL     1      42.906 -19.612   2.107  1.00  0.00     0.014 A 
ENDBRANCH   3  25
TORSDOF 4
ENDMDL
MODEL 10
REMARK VINA RESULT:      -8.1      2.883      7.659
REMARK  4 active torsions:
REMARK  status: ('A' for Active; 'I' for Inactive)
REMARK    1  A    between atoms: C_3  and  C_4 
REMARK    2  A    between atoms: C_15  and  C_16 
REMARK       I    between atoms: C_16  and  N_17 
REMARK    3  A    between atoms: N_17  and  C_18 
REMARK    4  A    between atoms: C_18  and  C_19 
ROOT
HETATM    1  C   UNL     1      40.141 -10.123   0.465  1.00  0.00     0.055 C 
HETATM    2  C   UNL     1      40.251 -11.454   1.147  1.00  0.00     0.024 A 
HETATM    3  C   UNL     1      40.605 -12.627   0.591  1.00  0.00     0.096 A 
HETATM    4  O   UNL     1      40.747 -13.822   1.271  1.00  0.00    -0.307 OA
HETATM    5  C   UNL     1      40.462 -13.877   2.612  1.00  0.00     0.106 A 
HETATM    6  C   UNL     1      40.033 -12.743   3.306  1.00  0.00     0.050 A 
HETATM    7  C   UNL     1      39.933 -11.458   2.596  1.00  0.00     0.193 A 
HETATM    8  O   UNL     1      39.594 -10.437   3.183  1.00  0.00    -0.287 OA
HETATM    9  C   UNL     1      40.592 -15.098   3.295  1.00  0.00     0.066 A 
HETATM   10  C   UNL     1      40.249 -15.153   4.660  1.00  0.00     0.020 A 
HETATM   11  C   UNL     1      39.804 -14.019   5.340  1.00  0.00     0.002 A 
HETATM   12  C   UNL     1      39.704 -12.809   4.664  1.00  0.00     0.018 A 
ENDROOT
BRANCH   9  13
HETATM   13  C   UNL     1      41.105 -16.370   2.690  1.00  0.00     0.255 C 
HETATM   14  N   UNL     1      42.420 -16.706   2.907  1.00  0.00    -0.349 N 
HETATM   15  H   UNL     1      43.033 -16.060   3.389  1.00  0.00     0.163 HD
HETATM   16  O   UNL     1      40.345 -17.093   2.052  1.00  0.00    -0.268 OA
BRANCH  14  17
HETATM   17  C   UNL     1      42.995 -17.950   2.424  1.00  0.00     0.114 C 
HETATM   18  C   UNL     1      44.045 -17.686   1.340  1.00  0.00     0.037 C 
BRANCH  17  19
HETATM   19  C   UNL     1      43.503 -18.748   3.610  1.00  0.00    -0.033 A 
HETATM   20  C   UNL     1      43.094 -18.505   4.924  1.00  0.00     0.028 A 
HETATM   21  C   UNL     1      43.590 -19.310   5.939  1.00  0.00     0.116 A 
HETATM   22  N   UNL     1      44.437 -20.342   5.739  1.00  0.00    -0.273 NA
HETATM   23  C   UNL     1      44.813 -20.572   4.465  1.00  0.00     0.116 A 
HETATM   24  C   UNL     1      44.378 -19.819   3.386  1.00  0.00     0.028 A 
ENDBRANCH  17  19
ENDBRANCH  14  17
ENDBRANCH   9  13
BRANCH   3  25
HETATM   25  C   UNL     1      40.886 -12.767  -0.845  1.00  0.00    -0.002 A 
HETATM   26  C   UNL     1      39.848 -13.023  -1.749  1.00  0.00     0.014 A 
HETATM   27  C   UNL     1      40.122 -13.169  -3.110  1.00  0.00     0.001 A 
HETATM   28  C   UNL     1      41.430 -13.049  -3.579  1.00  0.00     0.000 A 
HETATM   29  C   UNL     1      42.467 -12.781  -2.687  1.00  0.00     0.001 A 
HETATM   30  C   UNL     1      42.197 -12.638  -1.325  1.00  0.00     0.014 A 
ENDBRANCH   3  25
TORSDOF 4
ENDMDL
