MODEL 1
REMARK VINA RESULT:      -9.1      0.000      0.000
REMARK  4 active torsions:
REMARK  status: ('A' for Active; 'I' for Inactive)
REMARK    1  A    between atoms: C_6  and  N_7 
REMARK       I    between atoms: N_7  and  C_8 
REMARK    2  A    between atoms: C_8  and  C_9 
REMARK    3  A    between atoms: C_10  and  C_11 
REMARK    4  A    between atoms: C_13  and  O_14 
ROOT
HETATM    1  C   UNL     1      41.218 -15.435   4.444  1.00  0.00     0.062 A 
HETATM    2  C   UNL     1      41.423 -14.143   3.663  1.00  0.00     0.202 A 
HETATM    3  N   UNL     1      41.071 -12.970   4.475  1.00  0.00    -0.084 N 
HETATM    4  C   UNL     1      40.613 -13.039   5.764  1.00  0.00     0.725 A 
HETATM    5  N   UNL     1      40.443 -14.240   6.343  1.00  0.00    -0.192 N 
HETATM    6  N   UNL     1      41.325 -11.692   4.119  1.00  0.00    -0.149 NA
HETATM    7  C   UNL     1      40.880 -11.041   5.199  1.00  0.00     0.275 A 
HETATM    8  N   UNL     1      40.449 -11.829   6.234  1.00  0.00    -0.054 NA
HETATM    9  C   UNL     1      40.742 -15.442   5.713  1.00  0.00     0.037 A 
HETATM   10  C   UNL     1      40.515 -16.687   6.535  1.00  0.00     0.070 C 
HETATM   11  H   UNL     1      40.098 -14.279   7.298  1.00  0.00     0.184 HD
ENDROOT
BRANCH   1  12
HETATM   12  C   UNL     1      41.453 -16.716   3.732  1.00  0.00     0.256 C 
HETATM   13  N   UNL     1      42.712 -17.233   3.956  1.00  0.00    -0.323 N 
HETATM   14  H   UNL     1      43.322 -16.713   4.568  1.00  0.00     0.169 HD
HETATM   15  O   UNL     1      40.550 -17.193   3.059  1.00  0.00    -0.267 OA
BRANCH  13  16
HETATM   16  C   UNL     1      43.240 -18.451   3.457  1.00  0.00     0.041 A 
HETATM   17  C   UNL     1      44.123 -19.194   4.270  1.00  0.00    -0.035 A 
HETATM   18  C   UNL     1      44.628 -20.423   3.800  1.00  0.00     0.015 A 
HETATM   19  C   UNL     1      44.555 -18.727   5.635  1.00  0.00     0.050 C 
HETATM   20  C   UNL     1      44.288 -20.914   2.536  1.00  0.00    -0.061 A 
HETATM   21  C   UNL     1      44.798 -22.242   2.061  1.00  0.00     0.048 C 
HETATM   22  C   UNL     1      43.418 -20.171   1.741  1.00  0.00     0.009 A 
HETATM   23  C   UNL     1      42.906 -18.952   2.194  1.00  0.00     0.030 A 
ENDBRANCH  13  16
ENDBRANCH   1  12
BRANCH   2  24
HETATM   24  C   UNL     1      40.718 -14.083   2.310  1.00  0.00    -0.025 A 
HETATM   25  C   UNL     1      41.423 -14.135   1.093  1.00  0.00     0.046 A 
HETATM   26  C   UNL     1      40.748 -14.048  -0.128  1.00  0.00     0.068 A 
HETATM   27  C   UNL     1      39.355 -13.967  -0.141  1.00  0.00     0.037 A 
HETATM   28  C   UNL     1      38.638 -13.944   1.053  1.00  0.00     0.003 A 
HETATM   29  C   UNL     1      39.315 -13.996   2.270  1.00  0.00     0.010 A 
BRANCH  26  30
HETATM   30  O   UNL     1      41.337 -14.049  -1.363  1.00  0.00    -0.356 OA
HETATM   31  C   UNL     1      40.959 -15.113  -2.232  1.00  0.00     0.210 C 
ENDBRANCH  26  30
ENDBRANCH   2  24
TORSDOF 4
ENDMDL
MODEL 2
REMARK VINA RESULT:      -8.9      1.226      1.819
REMARK  4 active torsions:
REMARK  status: ('A' for Active; 'I' for Inactive)
REMARK    1  A    between atoms: C_6  and  N_7 
REMARK       I    between atoms: N_7  and  C_8 
REMARK    2  A    between atoms: C_8  and  C_9 
REMARK    3  A    between atoms: C_10  and  C_11 
REMARK    4  A    between atoms: C_13  and  O_14 
ROOT
HETATM    1  C   UNL     1      41.697 -14.935   4.739  1.00  0.00     0.062 A 
HETATM    2  C   UNL     1      41.390 -13.668   3.950  1.00  0.00     0.202 A 
HETATM    3  N   UNL     1      40.377 -12.850   4.633  1.00  0.00    -0.084 N 
HETATM    4  C   UNL     1      39.788 -13.192   5.821  1.00  0.00     0.725 A 
HETATM    5  N   UNL     1      40.119 -14.353   6.414  1.00  0.00    -0.192 N 
HETATM    6  N   UNL     1      40.043 -11.592   4.270  1.00  0.00    -0.149 NA
HETATM    7  C   UNL     1      39.155 -11.288   5.224  1.00  0.00     0.275 A 
HETATM    8  N   UNL     1      38.981 -12.235   6.200  1.00  0.00    -0.054 NA
HETATM    9  C   UNL     1      41.067 -15.230   5.902  1.00  0.00     0.037 A 
HETATM   10  C   UNL     1      41.326 -16.468   6.726  1.00  0.00     0.070 C 
HETATM   11  H   UNL     1      39.671 -14.598   7.293  1.00  0.00     0.184 HD
ENDROOT
BRANCH   1  12
HETATM   12  C   UNL     1      42.644 -15.908   4.139  1.00  0.00     0.256 C 
HETATM   13  N   UNL     1      42.152 -17.196   4.121  1.00  0.00    -0.323 N 
HETATM   14  H   UNL     1      41.225 -17.342   4.494  1.00  0.00     0.169 HD
HETATM   15  O   UNL     1      43.717 -15.504   3.713  1.00  0.00    -0.267 OA
BRANCH  13  16
HETATM   16  C   UNL     1      42.784 -18.348   3.588  1.00  0.00     0.041 A 
HETATM   17  C   UNL     1      42.572 -18.677   2.232  1.00  0.00    -0.035 A 
HETATM   18  C   UNL     1      43.221 -19.799   1.681  1.00  0.00     0.015 A 
HETATM   19  C   UNL     1      41.671 -17.870   1.335  1.00  0.00     0.050 C 
HETATM   20  C   UNL     1      44.058 -20.608   2.456  1.00  0.00    -0.061 A 
HETATM   21  C   UNL     1      44.777 -21.778   1.851  1.00  0.00     0.048 C 
HETATM   22  C   UNL     1      44.258 -20.277   3.795  1.00  0.00     0.009 A 
HETATM   23  C   UNL     1      43.624 -19.164   4.354  1.00  0.00     0.030 A 
ENDBRANCH  13  16
ENDBRANCH   1  12
BRANCH   2  24
HETATM   24  C   UNL     1      40.996 -13.890   2.492  1.00  0.00    -0.025 A 
HETATM   25  C   UNL     1      41.848 -13.551   1.424  1.00  0.00     0.046 A 
HETATM   26  C   UNL     1      41.444 -13.742   0.100  1.00  0.00     0.068 A 
HETATM   27  C   UNL     1      40.207 -14.329  -0.166  1.00  0.00     0.037 A 
HETATM   28  C   UNL     1      39.362 -14.699   0.878  1.00  0.00     0.003 A 
HETATM   29  C   UNL     1      39.752 -14.476   2.198  1.00  0.00     0.010 A 
BRANCH  26  30
HETATM   30  O   UNL     1      42.175 -13.412  -1.009  1.00  0.00    -0.356 OA
HETATM   31  C   UNL     1      42.427 -12.022  -1.199  1.00  0.00     0.210 C 
ENDBRANCH  26  30
ENDBRANCH   2  24
TORSDOF 4
ENDMDL
MODEL 3
REMARK VINA RESULT:      -8.4      2.677      7.648
REMARK  4 active torsions:
REMARK  status: ('A' for Active; 'I' for Inactive)
REMARK    1  A    between atoms: C_6  and  N_7 
REMARK       I    between atoms: N_7  and  C_8 
REMARK    2  A    between atoms: C_8  and  C_9 
REMARK    3  A    between atoms: C_10  and  C_11 
REMARK    4  A    between atoms: C_13  and  O_14 
ROOT
HETATM    1  C   UNL     1      42.813 -17.058   2.674  1.00  0.00     0.062 A 
HETATM    2  C   UNL     1      43.873 -17.564   3.644  1.00  0.00     0.202 A 
HETATM    3  N   UNL     1      44.119 -19.001   3.459  1.00  0.00    -0.084 N 
HETATM    4  C   UNL     1      43.472 -19.777   2.535  1.00  0.00     0.725 A 
HETATM    5  N   UNL     1      42.531 -19.225   1.749  1.00  0.00    -0.192 N 
HETATM    6  N   UNL     1      45.130 -19.682   4.043  1.00  0.00    -0.149 NA
HETATM    7  C   UNL     1      44.949 -20.896   3.510  1.00  0.00     0.275 A 
HETATM    8  N   UNL     1      43.954 -20.993   2.572  1.00  0.00    -0.054 NA
HETATM    9  C   UNL     1      42.191 -17.879   1.793  1.00  0.00     0.037 A 
HETATM   10  C   UNL     1      41.133 -17.438   0.811  1.00  0.00     0.070 C 
HETATM   11  H   UNL     1      42.053 -19.813   1.071  1.00  0.00     0.184 HD
ENDROOT
BRANCH   1  12
HETATM   12  C   UNL     1      42.392 -15.639   2.790  1.00  0.00     0.256 C 
HETATM   13  N   UNL     1      41.078 -15.497   3.183  1.00  0.00    -0.323 N 
HETATM   14  H   UNL     1      40.554 -16.343   3.356  1.00  0.00     0.169 HD
HETATM   15  O   UNL     1      43.211 -14.759   2.562  1.00  0.00    -0.267 OA
BRANCH  13  16
HETATM   16  C   UNL     1      40.379 -14.287   3.421  1.00  0.00     0.041 A 
HETATM   17  C   UNL     1      40.130 -13.894   4.754  1.00  0.00    -0.035 A 
HETATM   18  C   UNL     1      39.468 -12.676   5.005  1.00  0.00     0.015 A 
HETATM   19  C   UNL     1      40.548 -14.729   5.935  1.00  0.00     0.050 C 
HETATM   20  C   UNL     1      39.032 -11.856   3.960  1.00  0.00    -0.061 A 
HETATM   21  C   UNL     1      38.364 -10.542   4.237  1.00  0.00     0.048 C 
HETATM   22  C   UNL     1      39.281 -12.254   2.648  1.00  0.00     0.009 A 
HETATM   23  C   UNL     1      39.940 -13.458   2.382  1.00  0.00     0.030 A 
ENDBRANCH  13  16
ENDBRANCH   1  12
BRANCH   2  24
HETATM   24  C   UNL     1      43.606 -17.257   5.115  1.00  0.00    -0.025 A 
HETATM   25  C   UNL     1      44.118 -16.109   5.749  1.00  0.00     0.046 A 
HETATM   26  C   UNL     1      43.878 -15.874   7.105  1.00  0.00     0.068 A 
HETATM   27  C   UNL     1      43.073 -16.756   7.825  1.00  0.00     0.037 A 
HETATM   28  C   UNL     1      42.533 -17.882   7.209  1.00  0.00     0.003 A 
HETATM   29  C   UNL     1      42.801 -18.134   5.865  1.00  0.00     0.010 A 
BRANCH  26  30
HETATM   30  O   UNL     1      44.360 -14.814   7.825  1.00  0.00    -0.356 OA
HETATM   31  C   UNL     1      45.134 -13.866   7.096  1.00  0.00     0.210 C 
ENDBRANCH  26  30
ENDBRANCH   2  24
TORSDOF 4
ENDMDL
MODEL 4
REMARK VINA RESULT:      -8.3      2.633      6.323
REMARK  4 active torsions:
REMARK  status: ('A' for Active; 'I' for Inactive)
REMARK    1  A    between atoms: C_6  and  N_7 
REMARK       I    between atoms: N_7  and  C_8 
REMARK    2  A    between atoms: C_8  and  C_9 
REMARK    3  A    between atoms: C_10  and  C_11 
REMARK    4  A    between atoms: C_13  and  O_14 
ROOT
HETATM    1  C   UNL     1      43.305 -17.432   3.589  1.00  0.00     0.062 A 
HETATM    2  C   UNL     1      43.502 -16.734   4.929  1.00  0.00     0.202 A 
HETATM    3  N   UNL     1      43.664 -17.709   6.016  1.00  0.00    -0.084 N 
HETATM    4  C   UNL     1      43.637 -19.067   5.840  1.00  0.00     0.725 A 
HETATM    5  N   UNL     1      43.427 -19.571   4.611  1.00  0.00    -0.192 N 
HETATM    6  N   UNL     1      44.039 -17.391   7.275  1.00  0.00    -0.149 NA
HETATM    7  C   UNL     1      44.098 -18.607   7.830  1.00  0.00     0.275 A 
HETATM    8  N   UNL     1      43.874 -19.660   6.982  1.00  0.00    -0.054 NA
HETATM    9  C   UNL     1      43.267 -18.782   3.478  1.00  0.00     0.037 A 
HETATM   10  C   UNL     1      43.073 -19.530   2.182  1.00  0.00     0.070 C 
HETATM   11  H   UNL     1      43.403 -20.580   4.493  1.00  0.00     0.184 HD
ENDROOT
BRANCH   1  12
HETATM   12  C   UNL     1      43.044 -16.582   2.400  1.00  0.00     0.256 C 
HETATM   13  N   UNL     1      41.728 -16.613   1.994  1.00  0.00    -0.323 N 
HETATM   14  H   UNL     1      41.092 -17.183   2.532  1.00  0.00     0.169 HD
HETATM   15  O   UNL     1      43.968 -15.940   1.918  1.00  0.00    -0.267 OA
BRANCH  13  16
HETATM   16  C   UNL     1      41.143 -15.893   0.922  1.00  0.00     0.041 A 
HETATM   17  C   UNL     1      40.125 -14.956   1.204  1.00  0.00    -0.035 A 
HETATM   18  C   UNL     1      39.560 -14.209   0.152  1.00  0.00     0.015 A 
HETATM   19  C   UNL     1      39.611 -14.716   2.599  1.00  0.00     0.050 C 
HETATM   20  C   UNL     1      39.972 -14.389  -1.172  1.00  0.00    -0.061 A 
HETATM   21  C   UNL     1      39.394 -13.560  -2.280  1.00  0.00     0.048 C 
HETATM   22  C   UNL     1      40.976 -15.318  -1.440  1.00  0.00     0.009 A 
HETATM   23  C   UNL     1      41.549 -16.065  -0.407  1.00  0.00     0.030 A 
ENDBRANCH  13  16
ENDBRANCH   1  12
BRANCH   2  24
HETATM   24  C   UNL     1      42.429 -15.710   5.291  1.00  0.00    -0.025 A 
HETATM   25  C   UNL     1      42.646 -14.323   5.182  1.00  0.00     0.046 A 
HETATM   26  C   UNL     1      41.652 -13.413   5.550  1.00  0.00     0.068 A 
HETATM   27  C   UNL     1      40.409 -13.884   5.974  1.00  0.00     0.037 A 
HETATM   28  C   UNL     1      40.165 -15.253   6.061  1.00  0.00     0.003 A 
HETATM   29  C   UNL     1      41.169 -16.160   5.727  1.00  0.00     0.010 A 
BRANCH  26  30
HETATM   30  O   UNL     1      41.773 -12.050   5.521  1.00  0.00    -0.356 OA
HETATM   31  C   UNL     1      41.319 -11.359   6.681  1.00  0.00     0.210 C 
ENDBRANCH  26  30
ENDBRANCH   2  24
TORSDOF 4
ENDMDL
MODEL 5
REMARK VINA RESULT:      -8.3      2.108      6.059
REMARK  4 active torsions:
REMARK  status: ('A' for Active; 'I' for Inactive)
REMARK    1  A    between atoms: C_6  and  N_7 
REMARK       I    between atoms: N_7  and  C_8 
REMARK    2  A    between atoms: C_8  and  C_9 
REMARK    3  A    between atoms: C_10  and  C_11 
REMARK    4  A    between atoms: C_13  and  O_14 
ROOT
HETATM    1  C   UNL     1      41.675 -15.130   4.254  1.00  0.00     0.062 A 
HETATM    2  C   UNL     1      41.992 -16.582   4.593  1.00  0.00     0.202 A 
HETATM    3  N   UNL     1      42.735 -16.680   5.858  1.00  0.00    -0.084 N 
HETATM    4  C   UNL     1      43.096 -15.602   6.622  1.00  0.00     0.725 A 
HETATM    5  N   UNL     1      42.785 -14.362   6.206  1.00  0.00    -0.192 N 
HETATM    6  N   UNL     1      42.989 -17.840   6.504  1.00  0.00    -0.149 NA
HETATM    7  C   UNL     1      43.614 -17.382   7.595  1.00  0.00     0.275 A 
HETATM    8  N   UNL     1      43.687 -16.019   7.712  1.00  0.00    -0.054 NA
HETATM    9  C   UNL     1      42.076 -14.102   5.040  1.00  0.00     0.037 A 
HETATM   10  C   UNL     1      41.796 -12.647   4.755  1.00  0.00     0.070 C 
HETATM   11  H   UNL     1      43.063 -13.570   6.779  1.00  0.00     0.184 HD
ENDROOT
BRANCH   1  12
HETATM   12  C   UNL     1      40.997 -14.857   2.962  1.00  0.00     0.256 C 
HETATM   13  N   UNL     1      41.871 -14.491   1.961  1.00  0.00    -0.323 N 
HETATM   14  H   UNL     1      42.853 -14.457   2.195  1.00  0.00     0.169 HD
HETATM   15  O   UNL     1      39.783 -14.994   2.891  1.00  0.00    -0.267 OA
BRANCH  13  16
HETATM   16  C   UNL     1      41.555 -14.199   0.610  1.00  0.00     0.041 A 
HETATM   17  C   UNL     1      41.252 -15.264  -0.265  1.00  0.00    -0.035 A 
HETATM   18  C   UNL     1      40.902 -14.985  -1.601  1.00  0.00     0.015 A 
HETATM   19  C   UNL     1      41.283 -16.705   0.172  1.00  0.00     0.050 C 
HETATM   20  C   UNL     1      40.869 -13.674  -2.086  1.00  0.00    -0.061 A 
HETATM   21  C   UNL     1      40.457 -13.383  -3.498  1.00  0.00     0.048 C 
HETATM   22  C   UNL     1      41.174 -12.630  -1.215  1.00  0.00     0.009 A 
HETATM   23  C   UNL     1      41.519 -12.890   0.115  1.00  0.00     0.030 A 
ENDBRANCH  13  16
ENDBRANCH   1  12
BRANCH   2  24
HETATM   24  C   UNL     1      42.707 -17.364   3.496  1.00  0.00    -0.025 A 
HETATM   25  C   UNL     1      42.353 -18.686   3.162  1.00  0.00     0.046 A 
HETATM   26  C   UNL     1      43.048 -19.384   2.172  1.00  0.00     0.068 A 
HETATM   27  C   UNL     1      44.066 -18.744   1.464  1.00  0.00     0.037 A 
HETATM   28  C   UNL     1      44.412 -17.427   1.759  1.00  0.00     0.003 A 
HETATM   29  C   UNL     1      43.741 -16.743   2.771  1.00  0.00     0.010 A 
BRANCH  26  30
HETATM   30  O   UNL     1      42.813 -20.679   1.798  1.00  0.00    -0.356 OA
HETATM   31  C   UNL     1      43.937 -21.553   1.838  1.00  0.00     0.210 C 
ENDBRANCH  26  30
ENDBRANCH   2  24
TORSDOF 4
ENDMDL
MODEL 6
REMARK VINA RESULT:      -8.2      1.738      2.527
REMARK  4 active torsions:
REMARK  status: ('A' for Active; 'I' for Inactive)
REMARK    1  A    between atoms: C_6  and  N_7 
REMARK       I    between atoms: N_7  and  C_8 
REMARK    2  A    between atoms: C_8  and  C_9 
REMARK    3  A    between atoms: C_10  and  C_11 
REMARK    4  A    between atoms: C_13  and  O_14 
ROOT
HETATM    1  C   UNL     1      41.151 -13.870   4.123  1.00  0.00     0.062 A 
HETATM    2  C   UNL     1      40.989 -12.707   3.152  1.00  0.00     0.202 A 
HETATM    3  N   UNL     1      39.918 -11.799   3.586  1.00  0.00    -0.084 N 
HETATM    4  C   UNL     1      39.165 -11.984   4.715  1.00  0.00     0.725 A 
HETATM    5  N   UNL     1      39.380 -13.067   5.483  1.00  0.00    -0.192 N 
HETATM    6  N   UNL     1      39.672 -10.591   3.032  1.00  0.00    -0.149 NA
HETATM    7  C   UNL     1      38.673 -10.161   3.812  1.00  0.00     0.275 A 
HETATM    8  N   UNL     1      38.343 -10.978   4.862  1.00  0.00    -0.054 NA
HETATM    9  C   UNL     1      40.362 -14.013   5.216  1.00  0.00     0.037 A 
HETATM   10  C   UNL     1      40.472 -15.142   6.210  1.00  0.00     0.070 C 
HETATM   11  H   UNL     1      38.811 -13.197   6.316  1.00  0.00     0.184 HD
ENDROOT
BRANCH   1  12
HETATM   12  C   UNL     1      42.141 -14.922   3.779  1.00  0.00     0.256 C 
HETATM   13  N   UNL     1      41.570 -16.167   3.618  1.00  0.00    -0.323 N 
HETATM   14  H   UNL     1      40.570 -16.234   3.734  1.00  0.00     0.169 HD
HETATM   15  O   UNL     1      43.317 -14.608   3.653  1.00  0.00    -0.267 OA
BRANCH  13  16
HETATM   16  C   UNL     1      42.226 -17.370   3.255  1.00  0.00     0.041 A 
HETATM   17  C   UNL     1      42.116 -17.833   1.926  1.00  0.00    -0.035 A 
HETATM   18  C   UNL     1      42.791 -19.010   1.544  1.00  0.00     0.015 A 
HETATM   19  C   UNL     1      41.299 -17.116   0.884  1.00  0.00     0.050 C 
HETATM   20  C   UNL     1      43.553 -19.741   2.460  1.00  0.00    -0.061 A 
HETATM   21  C   UNL     1      44.301 -20.970   2.035  1.00  0.00     0.048 C 
HETATM   22  C   UNL     1      43.653 -19.277   3.771  1.00  0.00     0.009 A 
HETATM   23  C   UNL     1      42.992 -18.110   4.164  1.00  0.00     0.030 A 
ENDBRANCH  13  16
ENDBRANCH   1  12
BRANCH   2  24
HETATM   24  C   UNL     1      40.788 -13.103   1.691  1.00  0.00    -0.025 A 
HETATM   25  C   UNL     1      39.522 -13.427   1.168  1.00  0.00     0.046 A 
HETATM   26  C   UNL     1      39.379 -13.814  -0.167  1.00  0.00     0.068 A 
HETATM   27  C   UNL     1      40.494 -13.822  -1.006  1.00  0.00     0.037 A 
HETATM   28  C   UNL     1      41.750 -13.476  -0.514  1.00  0.00     0.003 A 
HETATM   29  C   UNL     1      41.898 -13.124   0.826  1.00  0.00     0.010 A 
BRANCH  26  30
HETATM   30  O   UNL     1      38.205 -14.186  -0.765  1.00  0.00    -0.356 OA
HETATM   31  C   UNL     1      38.172 -14.088  -2.186  1.00  0.00     0.210 C 
ENDBRANCH  26  30
ENDBRANCH   2  24
TORSDOF 4
ENDMDL
MODEL 7
REMARK VINA RESULT:      -8.0      2.093      2.588
REMARK  4 active torsions:
REMARK  status: ('A' for Active; 'I' for Inactive)
REMARK    1  A    between atoms: C_6  and  N_7 
REMARK       I    between atoms: N_7  and  C_8 
REMARK    2  A    between atoms: C_8  and  C_9 
REMARK    3  A    between atoms: C_10  and  C_11 
REMARK    4  A    between atoms: C_13  and  O_14 
ROOT
HETATM    1  C   UNL     1      41.135 -13.226   3.665  1.00  0.00     0.062 A 
HETATM    2  C   UNL     1      41.006 -12.243   2.508  1.00  0.00     0.202 A 
HETATM    3  N   UNL     1      39.849 -11.356   2.694  1.00  0.00    -0.084 N 
HETATM    4  C   UNL     1      39.000 -11.415   3.768  1.00  0.00     0.725 A 
HETATM    5  N   UNL     1      39.198 -12.347   4.716  1.00  0.00    -0.192 N 
HETATM    6  N   UNL     1      39.592 -10.269   1.933  1.00  0.00    -0.149 NA
HETATM    7  C   UNL     1      38.499  -9.794   2.542  1.00  0.00     0.275 A 
HETATM    8  N   UNL     1      38.113 -10.458   3.677  1.00  0.00    -0.054 NA
HETATM    9  C   UNL     1      40.252 -13.252   4.692  1.00  0.00     0.037 A 
HETATM   10  C   UNL     1      40.326 -14.203   5.862  1.00  0.00     0.070 C 
HETATM   11  H   UNL     1      38.558 -12.386   5.506  1.00  0.00     0.184 HD
ENDROOT
BRANCH   1  12
HETATM   12  C   UNL     1      42.211 -14.247   3.584  1.00  0.00     0.256 C 
HETATM   13  N   UNL     1      41.742 -15.499   3.247  1.00  0.00    -0.323 N 
HETATM   14  H   UNL     1      40.750 -15.591   3.084  1.00  0.00     0.169 HD
HETATM   15  O   UNL     1      43.367 -13.904   3.791  1.00  0.00    -0.267 OA
BRANCH  13  16
HETATM   16  C   UNL     1      42.505 -16.677   3.054  1.00  0.00     0.041 A 
HETATM   17  C   UNL     1      42.449 -17.694   4.032  1.00  0.00    -0.035 A 
HETATM   18  C   UNL     1      43.176 -18.885   3.836  1.00  0.00     0.015 A 
HETATM   19  C   UNL     1      41.636 -17.560   5.293  1.00  0.00     0.050 C 
HETATM   20  C   UNL     1      43.969 -19.075   2.700  1.00  0.00    -0.061 A 
HETATM   21  C   UNL     1      44.707 -20.362   2.480  1.00  0.00     0.048 C 
HETATM   22  C   UNL     1      44.019 -18.064   1.742  1.00  0.00     0.009 A 
HETATM   23  C   UNL     1      43.301 -16.878   1.921  1.00  0.00     0.030 A 
ENDBRANCH  13  16
ENDBRANCH   1  12
BRANCH   2  24
HETATM   24  C   UNL     1      40.971 -12.874   1.119  1.00  0.00    -0.025 A 
HETATM   25  C   UNL     1      41.967 -12.624   0.155  1.00  0.00     0.046 A 
HETATM   26  C   UNL     1      41.889 -13.196  -1.117  1.00  0.00     0.068 A 
HETATM   27  C   UNL     1      40.845 -14.071  -1.417  1.00  0.00     0.037 A 
HETATM   28  C   UNL     1      39.866 -14.354  -0.467  1.00  0.00     0.003 A 
HETATM   29  C   UNL     1      39.926 -13.756   0.791  1.00  0.00     0.010 A 
BRANCH  26  30
HETATM   30  O   UNL     1      42.778 -12.988  -2.137  1.00  0.00    -0.356 OA
HETATM   31  C   UNL     1      42.659 -11.747  -2.825  1.00  0.00     0.210 C 
ENDBRANCH  26  30
ENDBRANCH   2  24
TORSDOF 4
ENDMDL
MODEL 8
REMARK VINA RESULT:      -8.0      2.438      6.671
REMARK  4 active torsions:
REMARK  status: ('A' for Active; 'I' for Inactive)
REMARK    1  A    between atoms: C_6  and  N_7 
REMARK       I    between atoms: N_7  and  C_8 
REMARK    2  A    between atoms: C_8  and  C_9 
REMARK    3  A    between atoms: C_10  and  C_11 
REMARK    4  A    between atoms: C_13  and  O_14 
ROOT
HETATM    1  C   UNL     1      42.836 -15.359   5.383  1.00  0.00     0.062 A 
HETATM    2  C   UNL     1      42.541 -16.783   4.930  1.00  0.00     0.202 A 
HETATM    3  N   UNL     1      43.269 -17.762   5.750  1.00  0.00    -0.084 N 
HETATM    4  C   UNL     1      44.105 -17.428   6.783  1.00  0.00     0.725 A 
HETATM    5  N   UNL     1      44.311 -16.131   7.074  1.00  0.00    -0.192 N 
HETATM    6  N   UNL     1      43.063 -19.097   5.706  1.00  0.00    -0.149 NA
HETATM    7  C   UNL     1      43.904 -19.508   6.662  1.00  0.00     0.275 A 
HETATM    8  N   UNL     1      44.549 -18.517   7.354  1.00  0.00    -0.054 NA
HETATM    9  C   UNL     1      43.689 -15.087   6.401  1.00  0.00     0.037 A 
HETATM   10  C   UNL     1      44.023 -13.700   6.892  1.00  0.00     0.070 C 
HETATM   11  H   UNL     1      44.938 -15.895   7.839  1.00  0.00     0.184 HD
ENDROOT
BRANCH   1  12
HETATM   12  C   UNL     1      42.238 -14.248   4.600  1.00  0.00     0.256 C 
HETATM   13  N   UNL     1      40.870 -14.159   4.750  1.00  0.00    -0.323 N 
HETATM   14  H   UNL     1      40.429 -14.827   5.364  1.00  0.00     0.169 HD
HETATM   15  O   UNL     1      42.974 -13.529   3.938  1.00  0.00    -0.267 OA
BRANCH  13  16
HETATM   16  C   UNL     1      40.005 -13.196   4.172  1.00  0.00     0.041 A 
HETATM   17  C   UNL     1      39.477 -12.175   4.991  1.00  0.00    -0.035 A 
HETATM   18  C   UNL     1      38.643 -11.192   4.422  1.00  0.00     0.015 A 
HETATM   19  C   UNL     1      39.769 -12.088   6.466  1.00  0.00     0.050 C 
HETATM   20  C   UNL     1      38.311 -11.217   3.064  1.00  0.00    -0.061 A 
HETATM   21  C   UNL     1      37.456 -10.143   2.458  1.00  0.00     0.048 C 
HETATM   22  C   UNL     1      38.836 -12.230   2.265  1.00  0.00     0.009 A 
HETATM   23  C   UNL     1      39.667 -13.211   2.814  1.00  0.00     0.030 A 
ENDBRANCH  13  16
ENDBRANCH   1  12
BRANCH   2  24
HETATM   24  C   UNL     1      42.777 -17.055   3.447  1.00  0.00    -0.025 A 
HETATM   25  C   UNL     1      41.825 -16.729   2.462  1.00  0.00     0.046 A 
HETATM   26  C   UNL     1      42.062 -17.019   1.116  1.00  0.00     0.068 A 
HETATM   27  C   UNL     1      43.280 -17.583   0.736  1.00  0.00     0.037 A 
HETATM   28  C   UNL     1      44.246 -17.885   1.692  1.00  0.00     0.003 A 
HETATM   29  C   UNL     1      43.996 -17.628   3.038  1.00  0.00     0.010 A 
BRANCH  26  30
HETATM   30  O   UNL     1      41.191 -16.781   0.087  1.00  0.00    -0.356 OA
HETATM   31  C   UNL     1      41.186 -15.454  -0.431  1.00  0.00     0.210 C 
ENDBRANCH  26  30
ENDBRANCH   2  24
TORSDOF 4
ENDMDL
MODEL 9
REMARK VINA RESULT:      -7.8      2.517      7.174
REMARK  4 active torsions:
REMARK  status: ('A' for Active; 'I' for Inactive)
REMARK    1  A    between atoms: C_6  and  N_7 
REMARK       I    between atoms: N_7  and  C_8 
REMARK    2  A    between atoms: C_8  and  C_9 
REMARK    3  A    between atoms: C_10  and  C_11 
REMARK    4  A    between atoms: C_13  and  O_14 
ROOT
HETATM    1  C   UNL     1      43.220 -14.935   5.840  1.00  0.00     0.062 A 
HETATM    2  C   UNL     1      42.523 -16.151   5.242  1.00  0.00     0.202 A 
HETATM    3  N   UNL     1      43.165 -17.399   5.679  1.00  0.00    -0.084 N 
HETATM    4  C   UNL     1      44.251 -17.452   6.512  1.00  0.00     0.725 A 
HETATM    5  N   UNL     1      44.801 -16.309   6.957  1.00  0.00    -0.192 N 
HETATM    6  N   UNL     1      42.658 -18.633   5.463  1.00  0.00    -0.149 NA
HETATM    7  C   UNL     1      43.564 -19.386   6.097  1.00  0.00     0.275 A 
HETATM    8  N   UNL     1      44.546 -18.701   6.764  1.00  0.00    -0.054 NA
HETATM    9  C   UNL     1      44.305 -15.049   6.644  1.00  0.00     0.037 A 
HETATM   10  C   UNL     1      45.038 -13.884   7.263  1.00  0.00     0.070 C 
HETATM   11  H   UNL     1      45.610 -16.361   7.570  1.00  0.00     0.184 HD
ENDROOT
BRANCH   1  12
HETATM   12  C   UNL     1      42.738 -13.593   5.428  1.00  0.00     0.256 C 
HETATM   13  N   UNL     1      41.784 -13.078   6.279  1.00  0.00    -0.323 N 
HETATM   14  H   UNL     1      41.524 -13.641   7.076  1.00  0.00     0.169 HD
HETATM   15  O   UNL     1      43.220 -13.072   4.431  1.00  0.00    -0.267 OA
BRANCH  13  16
HETATM   16  C   UNL     1      41.150 -11.813   6.192  1.00  0.00     0.041 A 
HETATM   17  C   UNL     1      39.988 -11.686   5.401  1.00  0.00    -0.035 A 
HETATM   18  C   UNL     1      39.328 -10.443   5.333  1.00  0.00     0.015 A 
HETATM   19  C   UNL     1      39.413 -12.835   4.616  1.00  0.00     0.050 C 
HETATM   20  C   UNL     1      39.811  -9.324   6.019  1.00  0.00    -0.061 A 
HETATM   21  C   UNL     1      39.080  -8.015   5.974  1.00  0.00     0.048 C 
HETATM   22  C   UNL     1      40.961  -9.460   6.795  1.00  0.00     0.009 A 
HETATM   23  C   UNL     1      41.625 -10.687   6.875  1.00  0.00     0.030 A 
ENDBRANCH  13  16
ENDBRANCH   1  12
BRANCH   2  24
HETATM   24  C   UNL     1      42.377 -16.134   3.722  1.00  0.00    -0.025 A 
HETATM   25  C   UNL     1      41.193 -15.717   3.086  1.00  0.00     0.046 A 
HETATM   26  C   UNL     1      41.084 -15.742   1.693  1.00  0.00     0.068 A 
HETATM   27  C   UNL     1      42.181 -16.127   0.922  1.00  0.00     0.037 A 
HETATM   28  C   UNL     1      43.371 -16.515   1.533  1.00  0.00     0.003 A 
HETATM   29  C   UNL     1      43.468 -16.524   2.923  1.00  0.00     0.010 A 
BRANCH  26  30
HETATM   30  O   UNL     1      39.969 -15.396   0.977  1.00  0.00    -0.356 OA
HETATM   31  C   UNL     1      38.835 -15.000   1.743  1.00  0.00     0.210 C 
ENDBRANCH  26  30
ENDBRANCH   2  24
TORSDOF 4
ENDMDL
MODEL 10
REMARK VINA RESULT:      -7.7      3.603      5.649
REMARK  4 active torsions:
REMARK  status: ('A' for Active; 'I' for Inactive)
REMARK    1  A    between atoms: C_6  and  N_7 
REMARK       I    between atoms: N_7  and  C_8 
REMARK    2  A    between atoms: C_8  and  C_9 
REMARK    3  A    between atoms: C_10  and  C_11 
REMARK    4  A    between atoms: C_13  and  O_14 
ROOT
HETATM    1  C   UNL     1      41.190 -13.196  -0.571  1.00  0.00     0.062 A 
HETATM    2  C   UNL     1      41.302 -13.330  -2.085  1.00  0.00     0.202 A 
HETATM    3  N   UNL     1      41.199 -12.019  -2.742  1.00  0.00    -0.084 N 
HETATM    4  C   UNL     1      41.021 -10.837  -2.074  1.00  0.00     0.725 A 
HETATM    5  N   UNL     1      40.907 -10.845  -0.734  1.00  0.00    -0.192 N 
HETATM    6  N   UNL     1      41.448 -11.802  -4.053  1.00  0.00    -0.149 NA
HETATM    7  C   UNL     1      41.280 -10.477  -4.120  1.00  0.00     0.275 A 
HETATM    8  N   UNL     1      41.032  -9.847  -2.928  1.00  0.00    -0.054 NA
HETATM    9  C   UNL     1      40.994 -12.000   0.035  1.00  0.00     0.037 A 
HETATM   10  C   UNL     1      40.873 -11.804   1.526  1.00  0.00     0.070 C 
HETATM   11  H   UNL     1      40.769  -9.962  -0.249  1.00  0.00     0.184 HD
ENDROOT
BRANCH   1  12
HETATM   12  C   UNL     1      41.194 -14.444   0.234  1.00  0.00     0.256 C 
HETATM   13  N   UNL     1      42.464 -14.874   0.554  1.00  0.00    -0.323 N 
HETATM   14  H   UNL     1      43.237 -14.312   0.230  1.00  0.00     0.169 HD
HETATM   15  O   UNL     1      40.124 -14.948   0.548  1.00  0.00    -0.267 OA
BRANCH  13  16
HETATM   16  C   UNL     1      42.815 -16.003   1.336  1.00  0.00     0.041 A 
HETATM   17  C   UNL     1      43.123 -15.818   2.701  1.00  0.00    -0.035 A 
HETATM   18  C   UNL     1      43.440 -16.936   3.498  1.00  0.00     0.015 A 
HETATM   19  C   UNL     1      43.127 -14.461   3.353  1.00  0.00     0.050 C 
HETATM   20  C   UNL     1      43.476 -18.226   2.960  1.00  0.00    -0.061 A 
HETATM   21  C   UNL     1      43.775 -19.415   3.824  1.00  0.00     0.048 C 
HETATM   22  C   UNL     1      43.173 -18.398   1.610  1.00  0.00     0.009 A 
HETATM   23  C   UNL     1      42.853 -17.299   0.808  1.00  0.00     0.030 A 
ENDBRANCH  13  16
ENDBRANCH   1  12
BRANCH   2  24
HETATM   24  C   UNL     1      40.332 -14.321  -2.723  1.00  0.00    -0.025 A 
HETATM   25  C   UNL     1      38.997 -13.983  -3.015  1.00  0.00     0.046 A 
HETATM   26  C   UNL     1      38.127 -14.924  -3.572  1.00  0.00     0.068 A 
HETATM   27  C   UNL     1      38.603 -16.194  -3.898  1.00  0.00     0.037 A 
HETATM   28  C   UNL     1      39.929 -16.538  -3.643  1.00  0.00     0.003 A 
HETATM   29  C   UNL     1      40.786 -15.610  -3.056  1.00  0.00     0.010 A 
BRANCH  26  30
HETATM   30  O   UNL     1      36.806 -14.713  -3.858  1.00  0.00    -0.356 OA
HETATM   31  C   UNL     1      36.470 -13.410  -4.327  1.00  0.00     0.210 C 
ENDBRANCH  26  30
ENDBRANCH   2  24
TORSDOF 4
ENDMDL
