MODEL 1
REMARK VINA RESULT:      -9.1      0.000      0.000
REMARK  7 active torsions:
REMARK  status: ('A' for Active; 'I' for Inactive)
REMARK    1  A    between atoms: C_2  and  O_3 
REMARK    2  A    between atoms: O_3  and  C_4 
REMARK    3  A    between atoms: C_4  and  C_5 
REMARK    4  A    between atoms: C_6  and  C_7 
REMARK    5  A    between atoms: C_18  and  S_19 
REMARK    6  A    between atoms: S_19  and  C_20 
REMARK    7  A    between atoms: C_20  and  C_21 
ROOT
HETATM    1  C   UNL     1      41.672 -12.244   2.035  1.00  0.00     0.070 C 
HETATM    2  C   UNL     1      42.516 -13.450   2.424  1.00  0.00     0.203 C 
HETATM    3  N   UNL     1      42.733 -13.499   3.873  1.00  0.00    -0.082 N 
HETATM    4  C   UNL     1      42.106 -12.684   4.773  1.00  0.00     0.726 A 
HETATM    5  N   UNL     1      41.254 -11.742   4.323  1.00  0.00    -0.192 N 
HETATM    6  N   UNL     1      43.647 -14.284   4.473  1.00  0.00    -0.128 NA
HETATM    7  C   UNL     1      43.459 -13.950   5.756  1.00  0.00     0.226 A 
HETATM    8  N   UNL     1      42.516 -12.975   5.981  1.00  0.00    -0.035 NA
HETATM    9  C   UNL     1      41.076 -11.461   2.970  1.00  0.00     0.037 C 
HETATM   10  C   UNL     1      40.236 -10.249   2.657  1.00  0.00     0.070 C 
HETATM   11  H   UNL     1      40.843 -11.096   4.993  1.00  0.00     0.184 HD
ENDROOT
BRANCH   7  12
HETATM   12  S   UNL     1      44.409 -14.685   7.011  1.00  0.00    -0.083 SA
BRANCH  12  13
HETATM   13  C   UNL     1      43.423 -16.172   7.322  1.00  0.00     0.121 C 
BRANCH  13  14
HETATM   14  C   UNL     1      43.838 -17.300   6.409  1.00  0.00    -0.048 A 
HETATM   15  C   UNL     1      43.140 -17.543   5.214  1.00  0.00     0.020 A 
HETATM   16  C   UNL     1      43.538 -18.560   4.331  1.00  0.00    -0.025 A 
HETATM   17  C   UNL     1      44.659 -19.357   4.653  1.00  0.00    -0.026 A 
HETATM   18  C   UNL     1      42.851 -18.796   3.129  1.00  0.00     0.012 A 
HETATM   19  C   UNL     1      45.351 -19.114   5.849  1.00  0.00     0.013 A 
HETATM   20  C   UNL     1      45.061 -20.369   3.766  1.00  0.00     0.012 A 
HETATM   21  C   UNL     1      44.949 -18.094   6.716  1.00  0.00     0.009 A 
HETATM   22  C   UNL     1      44.368 -20.591   2.575  1.00  0.00     0.001 A 
HETATM   23  C   UNL     1      43.264 -19.805   2.256  1.00  0.00     0.001 A 
ENDBRANCH  13  14
ENDBRANCH  12  13
ENDBRANCH   7  12
BRANCH   2  24
HETATM   24  C   UNL     1      41.905 -14.770   1.953  1.00  0.00    -0.028 A 
HETATM   25  C   UNL     1      42.511 -15.486   0.904  1.00  0.00     0.012 A 
HETATM   26  C   UNL     1      41.968 -16.693   0.462  1.00  0.00     0.043 A 
HETATM   27  C   UNL     1      40.820 -17.191   1.065  1.00  0.00     0.116 A 
HETATM   28  F   UNL     1      40.301 -18.350   0.639  1.00  0.00    -0.206 F 
HETATM   29  C   UNL     1      40.205 -16.507   2.105  1.00  0.00     0.043 A 
HETATM   30  C   UNL     1      40.745 -15.300   2.552  1.00  0.00     0.012 A 
ENDBRANCH   2  24
BRANCH   1  31
HETATM   31  C   UNL     1      41.505 -12.007   0.585  1.00  0.00     0.293 C 
HETATM   32  O   UNL     1      40.487 -12.249  -0.042  1.00  0.00    -0.259 OA
BRANCH  31  33
HETATM   33  O   UNL     1      42.653 -11.487   0.084  1.00  0.00    -0.318 OA
BRANCH  33  34
HETATM   34  C   UNL     1      42.578 -10.984  -1.260  1.00  0.00     0.174 C 
HETATM   35  C   UNL     1      43.670  -9.957  -1.494  1.00  0.00     0.034 C 
ENDBRANCH  33  34
ENDBRANCH  31  33
ENDBRANCH   1  31
TORSDOF 7
ENDMDL
MODEL 2
REMARK VINA RESULT:      -9.0      3.567      4.971
REMARK  7 active torsions:
REMARK  status: ('A' for Active; 'I' for Inactive)
REMARK    1  A    between atoms: C_2  and  O_3 
REMARK    2  A    between atoms: O_3  and  C_4 
REMARK    3  A    between atoms: C_4  and  C_5 
REMARK    4  A    between atoms: C_6  and  C_7 
REMARK    5  A    between atoms: C_18  and  S_19 
REMARK    6  A    between atoms: S_19  and  C_20 
REMARK    7  A    between atoms: C_20  and  C_21 
ROOT
HETATM    1  C   UNL     1      39.603 -13.965  -1.480  1.00  0.00     0.070 C 
HETATM    2  C   UNL     1      39.091 -14.032  -0.047  1.00  0.00     0.203 C 
HETATM    3  N   UNL     1      40.137 -14.498   0.867  1.00  0.00    -0.082 N 
HETATM    4  C   UNL     1      41.448 -14.667   0.516  1.00  0.00     0.726 A 
HETATM    5  N   UNL     1      41.822 -14.429  -0.756  1.00  0.00    -0.192 N 
HETATM    6  N   UNL     1      39.909 -14.909   2.129  1.00  0.00    -0.128 NA
HETATM    7  C   UNL     1      41.149 -15.236   2.513  1.00  0.00     0.226 A 
HETATM    8  N   UNL     1      42.123 -15.095   1.552  1.00  0.00    -0.035 NA
HETATM    9  C   UNL     1      40.915 -14.147  -1.776  1.00  0.00     0.037 C 
HETATM   10  C   UNL     1      41.488 -14.102  -3.170  1.00  0.00     0.070 C 
HETATM   11  H   UNL     1      42.784 -14.621  -1.025  1.00  0.00     0.184 HD
ENDROOT
BRANCH   7  12
HETATM   12  S   UNL     1      41.450 -15.848   4.110  1.00  0.00    -0.083 SA
BRANCH  12  13
HETATM   13  C   UNL     1      43.246 -16.066   4.032  1.00  0.00     0.121 C 
BRANCH  13  14
HETATM   14  C   UNL     1      43.619 -17.528   4.076  1.00  0.00    -0.048 A 
HETATM   15  C   UNL     1      43.424 -18.347   2.951  1.00  0.00     0.020 A 
HETATM   16  C   UNL     1      43.805 -19.699   2.959  1.00  0.00    -0.025 A 
HETATM   17  C   UNL     1      44.391 -20.246   4.121  1.00  0.00    -0.026 A 
HETATM   18  C   UNL     1      43.625 -20.517   1.832  1.00  0.00     0.012 A 
HETATM   19  C   UNL     1      44.581 -19.426   5.244  1.00  0.00     0.013 A 
HETATM   20  C   UNL     1      44.779 -21.596   4.126  1.00  0.00     0.012 A 
HETATM   21  C   UNL     1      44.204 -18.080   5.221  1.00  0.00     0.009 A 
HETATM   22  C   UNL     1      44.593 -22.396   2.997  1.00  0.00     0.001 A 
HETATM   23  C   UNL     1      44.016 -21.857   1.851  1.00  0.00     0.001 A 
ENDBRANCH  13  14
ENDBRANCH  12  13
ENDBRANCH   7  12
BRANCH   2  24
HETATM   24  C   UNL     1      38.542 -12.692   0.444  1.00  0.00    -0.028 A 
HETATM   25  C   UNL     1      37.161 -12.543   0.667  1.00  0.00     0.012 A 
HETATM   26  C   UNL     1      36.643 -11.327   1.116  1.00  0.00     0.043 A 
HETATM   27  C   UNL     1      37.499 -10.257   1.345  1.00  0.00     0.116 A 
HETATM   28  F   UNL     1      36.999  -9.093   1.777  1.00  0.00    -0.206 F 
HETATM   29  C   UNL     1      38.866 -10.381   1.137  1.00  0.00     0.043 A 
HETATM   30  C   UNL     1      39.390 -11.594   0.690  1.00  0.00     0.012 A 
ENDBRANCH   2  24
BRANCH   1  31
HETATM   31  C   UNL     1      38.598 -13.644  -2.516  1.00  0.00     0.293 C 
HETATM   32  O   UNL     1      38.488 -12.559  -3.060  1.00  0.00    -0.259 OA
BRANCH  31  33
HETATM   33  O   UNL     1      37.835 -14.741  -2.750  1.00  0.00    -0.318 OA
BRANCH  33  34
HETATM   34  C   UNL     1      37.814 -15.212  -4.107  1.00  0.00     0.174 C 
HETATM   35  C   UNL     1      38.912 -16.236  -4.321  1.00  0.00     0.034 C 
ENDBRANCH  33  34
ENDBRANCH  31  33
ENDBRANCH   1  31
TORSDOF 7
ENDMDL
MODEL 3
REMARK VINA RESULT:      -8.9      2.056      2.983
REMARK  7 active torsions:
REMARK  status: ('A' for Active; 'I' for Inactive)
REMARK    1  A    between atoms: C_2  and  O_3 
REMARK    2  A    between atoms: O_3  and  C_4 
REMARK    3  A    between atoms: C_4  and  C_5 
REMARK    4  A    between atoms: C_6  and  C_7 
REMARK    5  A    between atoms: C_18  and  S_19 
REMARK    6  A    between atoms: S_19  and  C_20 
REMARK    7  A    between atoms: C_20  and  C_21 
ROOT
HETATM    1  C   UNL     1      40.909 -14.843   1.175  1.00  0.00     0.070 C 
HETATM    2  C   UNL     1      42.186 -15.047   1.979  1.00  0.00     0.203 C 
HETATM    3  N   UNL     1      42.014 -14.608   3.366  1.00  0.00    -0.082 N 
HETATM    4  C   UNL     1      40.817 -14.242   3.915  1.00  0.00     0.726 A 
HETATM    5  N   UNL     1      39.713 -14.245   3.143  1.00  0.00    -0.192 N 
HETATM    6  N   UNL     1      43.030 -14.417   4.229  1.00  0.00    -0.128 NA
HETATM    7  C   UNL     1      42.360 -14.014   5.316  1.00  0.00     0.226 A 
HETATM    8  N   UNL     1      40.999 -13.900   5.165  1.00  0.00    -0.035 NA
HETATM    9  C   UNL     1      39.746 -14.474   1.769  1.00  0.00     0.037 C 
HETATM   10  C   UNL     1      38.449 -14.245   1.034  1.00  0.00     0.070 C 
HETATM   11  H   UNL     1      38.839 -13.909   3.541  1.00  0.00     0.184 HD
ENDROOT
BRANCH   7  12
HETATM   12  S   UNL     1      43.207 -13.615   6.780  1.00  0.00    -0.083 SA
BRANCH  12  13
HETATM   13  C   UNL     1      44.674 -14.661   6.590  1.00  0.00     0.121 C 
BRANCH  13  14
HETATM   14  C   UNL     1      44.332 -16.118   6.782  1.00  0.00    -0.048 A 
HETATM   15  C   UNL     1      44.753 -17.078   5.846  1.00  0.00     0.020 A 
HETATM   16  C   UNL     1      44.481 -18.444   6.030  1.00  0.00    -0.025 A 
HETATM   17  C   UNL     1      43.767 -18.859   7.175  1.00  0.00    -0.026 A 
HETATM   18  C   UNL     1      44.912 -19.407   5.103  1.00  0.00     0.012 A 
HETATM   19  C   UNL     1      43.344 -17.898   8.106  1.00  0.00     0.013 A 
HETATM   20  C   UNL     1      43.502 -20.225   7.362  1.00  0.00     0.012 A 
HETATM   21  C   UNL     1      43.628 -16.542   7.915  1.00  0.00     0.009 A 
HETATM   22  C   UNL     1      43.938 -21.171   6.432  1.00  0.00     0.001 A 
HETATM   23  C   UNL     1      44.643 -20.762   5.304  1.00  0.00     0.001 A 
ENDBRANCH  13  14
ENDBRANCH  12  13
ENDBRANCH   7  12
BRANCH   2  24
HETATM   24  C   UNL     1      42.668 -16.498   1.958  1.00  0.00    -0.028 A 
HETATM   25  C   UNL     1      41.849 -17.514   2.485  1.00  0.00     0.012 A 
HETATM   26  C   UNL     1      42.273 -18.844   2.474  1.00  0.00     0.043 A 
HETATM   27  C   UNL     1      43.512 -19.166   1.935  1.00  0.00     0.116 A 
HETATM   28  F   UNL     1      43.916 -20.442   1.925  1.00  0.00    -0.206 F 
HETATM   29  C   UNL     1      44.337 -18.183   1.404  1.00  0.00     0.043 A 
HETATM   30  C   UNL     1      43.918 -16.852   1.412  1.00  0.00     0.012 A 
ENDBRANCH   2  24
BRANCH   1  31
HETATM   31  C   UNL     1      41.002 -15.117  -0.275  1.00  0.00     0.293 C 
HETATM   32  O   UNL     1      40.978 -16.231  -0.771  1.00  0.00    -0.259 OA
BRANCH  31  33
HETATM   33  O   UNL     1      41.117 -13.943  -0.943  1.00  0.00    -0.318 OA
BRANCH  33  34
HETATM   34  C   UNL     1      41.571 -14.037  -2.303  1.00  0.00     0.174 C 
HETATM   35  C   UNL     1      42.606 -12.965  -2.583  1.00  0.00     0.034 C 
ENDBRANCH  33  34
ENDBRANCH  31  33
ENDBRANCH   1  31
TORSDOF 7
ENDMDL
MODEL 4
REMARK VINA RESULT:      -8.8      3.663      5.373
REMARK  7 active torsions:
REMARK  status: ('A' for Active; 'I' for Inactive)
REMARK    1  A    between atoms: C_2  and  O_3 
REMARK    2  A    between atoms: O_3  and  C_4 
REMARK    3  A    between atoms: C_4  and  C_5 
REMARK    4  A    between atoms: C_6  and  C_7 
REMARK    5  A    between atoms: C_18  and  S_19 
REMARK    6  A    between atoms: S_19  and  C_20 
REMARK    7  A    between atoms: C_20  and  C_21 
ROOT
HETATM    1  C   UNL     1      39.755 -13.755  -2.093  1.00  0.00     0.070 C 
HETATM    2  C   UNL     1      40.167 -13.282  -0.705  1.00  0.00     0.203 C 
HETATM    3  N   UNL     1      40.691 -14.391   0.097  1.00  0.00    -0.082 N 
HETATM    4  C   UNL     1      40.954 -15.639  -0.394  1.00  0.00     0.726 A 
HETATM    5  N   UNL     1      40.690 -15.904  -1.688  1.00  0.00    -0.192 N 
HETATM    6  N   UNL     1      40.880 -14.336   1.429  1.00  0.00    -0.128 NA
HETATM    7  C   UNL     1      41.341 -15.570   1.666  1.00  0.00     0.226 A 
HETATM    8  N   UNL     1      41.408 -16.399   0.571  1.00  0.00    -0.035 NA
HETATM    9  C   UNL     1      40.034 -15.008  -2.530  1.00  0.00     0.037 C 
HETATM   10  C   UNL     1      39.649 -15.544  -3.886  1.00  0.00     0.070 C 
HETATM   11  H   UNL     1      40.826 -16.853  -2.029  1.00  0.00     0.184 HD
ENDROOT
BRANCH   7  12
HETATM   12  S   UNL     1      41.760 -16.064   3.278  1.00  0.00    -0.083 SA
BRANCH  12  13
HETATM   13  C   UNL     1      43.524 -16.409   3.054  1.00  0.00     0.121 C 
BRANCH  13  14
HETATM   14  C   UNL     1      43.783 -17.894   2.982  1.00  0.00    -0.048 A 
HETATM   15  C   UNL     1      44.139 -18.612   4.136  1.00  0.00     0.020 A 
HETATM   16  C   UNL     1      44.341 -20.001   4.097  1.00  0.00    -0.025 A 
HETATM   17  C   UNL     1      44.189 -20.689   2.873  1.00  0.00    -0.026 A 
HETATM   18  C   UNL     1      44.683 -20.724   5.252  1.00  0.00     0.012 A 
HETATM   19  C   UNL     1      43.837 -19.969   1.722  1.00  0.00     0.013 A 
HETATM   20  C   UNL     1      44.384 -22.079   2.837  1.00  0.00     0.012 A 
HETATM   21  C   UNL     1      43.632 -18.587   1.775  1.00  0.00     0.009 A 
HETATM   22  C   UNL     1      44.722 -22.783   3.993  1.00  0.00     0.001 A 
HETATM   23  C   UNL     1      44.872 -22.106   5.200  1.00  0.00     0.001 A 
ENDBRANCH  13  14
ENDBRANCH  12  13
ENDBRANCH   7  12
BRANCH   2  24
HETATM   24  C   UNL     1      41.196 -12.152  -0.751  1.00  0.00    -0.028 A 
HETATM   25  C   UNL     1      42.387 -12.320  -1.481  1.00  0.00     0.012 A 
HETATM   26  C   UNL     1      43.337 -11.299  -1.534  1.00  0.00     0.043 A 
HETATM   27  C   UNL     1      43.102 -10.107  -0.861  1.00  0.00     0.116 A 
HETATM   28  F   UNL     1      44.015  -9.128  -0.914  1.00  0.00    -0.206 F 
HETATM   29  C   UNL     1      41.933  -9.914  -0.138  1.00  0.00     0.043 A 
HETATM   30  C   UNL     1      40.979 -10.931  -0.083  1.00  0.00     0.012 A 
ENDBRANCH   2  24
BRANCH   1  31
HETATM   31  C   UNL     1      39.078 -12.754  -2.947  1.00  0.00     0.293 C 
HETATM   32  O   UNL     1      39.631 -12.097  -3.812  1.00  0.00    -0.259 OA
BRANCH  31  33
HETATM   33  O   UNL     1      37.766 -12.694  -2.607  1.00  0.00    -0.318 OA
BRANCH  33  34
HETATM   34  C   UNL     1      36.847 -12.495  -3.693  1.00  0.00     0.174 C 
HETATM   35  C   UNL     1      36.500 -13.825  -4.334  1.00  0.00     0.034 C 
ENDBRANCH  33  34
ENDBRANCH  31  33
ENDBRANCH   1  31
TORSDOF 7
ENDMDL
MODEL 5
REMARK VINA RESULT:      -8.8      3.313      4.928
REMARK  7 active torsions:
REMARK  status: ('A' for Active; 'I' for Inactive)
REMARK    1  A    between atoms: C_2  and  O_3 
REMARK    2  A    between atoms: O_3  and  C_4 
REMARK    3  A    between atoms: C_4  and  C_5 
REMARK    4  A    between atoms: C_6  and  C_7 
REMARK    5  A    between atoms: C_18  and  S_19 
REMARK    6  A    between atoms: S_19  and  C_20 
REMARK    7  A    between atoms: C_20  and  C_21 
ROOT
HETATM    1  C   UNL     1      39.817 -13.702  -2.076  1.00  0.00     0.070 C 
HETATM    2  C   UNL     1      40.140 -13.146  -0.696  1.00  0.00     0.203 C 
HETATM    3  N   UNL     1      40.608 -14.203   0.205  1.00  0.00    -0.082 N 
HETATM    4  C   UNL     1      40.898 -15.479  -0.192  1.00  0.00     0.726 A 
HETATM    5  N   UNL     1      40.718 -15.822  -1.482  1.00  0.00    -0.192 N 
HETATM    6  N   UNL     1      40.710 -14.068   1.540  1.00  0.00    -0.128 NA
HETATM    7  C   UNL     1      41.152 -15.284   1.881  1.00  0.00     0.226 A 
HETATM    8  N   UNL     1      41.286 -16.178   0.844  1.00  0.00    -0.035 NA
HETATM    9  C   UNL     1      40.121 -14.979  -2.417  1.00  0.00     0.037 C 
HETATM   10  C   UNL     1      39.822 -15.597  -3.761  1.00  0.00     0.070 C 
HETATM   11  H   UNL     1      40.873 -16.789  -1.756  1.00  0.00     0.184 HD
ENDROOT
BRANCH   7  12
HETATM   12  S   UNL     1      41.464 -15.680   3.544  1.00  0.00    -0.083 SA
BRANCH  12  13
HETATM   13  C   UNL     1      43.256 -15.934   3.476  1.00  0.00     0.121 C 
BRANCH  13  14
HETATM   14  C   UNL     1      43.608 -17.384   3.702  1.00  0.00    -0.048 A 
HETATM   15  C   UNL     1      43.489 -18.317   2.658  1.00  0.00     0.020 A 
HETATM   16  C   UNL     1      43.853 -19.662   2.837  1.00  0.00    -0.025 A 
HETATM   17  C   UNL     1      44.344 -20.085   4.092  1.00  0.00    -0.026 A 
HETATM   18  C   UNL     1      43.749 -20.594   1.792  1.00  0.00     0.012 A 
HETATM   19  C   UNL     1      44.457 -19.152   5.134  1.00  0.00     0.013 A 
HETATM   20  C   UNL     1      44.714 -21.428   4.268  1.00  0.00     0.012 A 
HETATM   21  C   UNL     1      44.098 -17.815   4.940  1.00  0.00     0.009 A 
HETATM   22  C   UNL     1      44.606 -22.342   3.219  1.00  0.00     0.001 A 
HETATM   23  C   UNL     1      44.123 -21.925   1.981  1.00  0.00     0.001 A 
ENDBRANCH  13  14
ENDBRANCH  12  13
ENDBRANCH   7  12
BRANCH   2  24
HETATM   24  C   UNL     1      41.173 -12.019  -0.743  1.00  0.00    -0.028 A 
HETATM   25  C   UNL     1      40.842 -10.746  -0.243  1.00  0.00     0.012 A 
HETATM   26  C   UNL     1      41.773  -9.707  -0.278  1.00  0.00     0.043 A 
HETATM   27  C   UNL     1      43.036  -9.933  -0.809  1.00  0.00     0.116 A 
HETATM   28  F   UNL     1      43.927  -8.934  -0.840  1.00  0.00    -0.206 F 
HETATM   29  C   UNL     1      43.389 -11.182  -1.304  1.00  0.00     0.043 A 
HETATM   30  C   UNL     1      42.463 -12.225  -1.270  1.00  0.00     0.012 A 
ENDBRANCH   2  24
BRANCH   1  31
HETATM   31  C   UNL     1      39.199 -12.756  -3.031  1.00  0.00     0.293 C 
HETATM   32  O   UNL     1      38.028 -12.416  -3.007  1.00  0.00    -0.259 OA
BRANCH  31  33
HETATM   33  O   UNL     1      40.138 -12.341  -3.917  1.00  0.00    -0.318 OA
BRANCH  33  34
HETATM   34  C   UNL     1      40.212 -10.923  -4.134  1.00  0.00     0.174 C 
HETATM   35  C   UNL     1      41.633 -10.522  -4.484  1.00  0.00     0.034 C 
ENDBRANCH  33  34
ENDBRANCH  31  33
ENDBRANCH   1  31
TORSDOF 7
ENDMDL
MODEL 6
REMARK VINA RESULT:      -8.6      2.984      3.912
REMARK  7 active torsions:
REMARK  status: ('A' for Active; 'I' for Inactive)
REMARK    1  A    between atoms: C_2  and  O_3 
REMARK    2  A    between atoms: O_3  and  C_4 
REMARK    3  A    between atoms: C_4  and  C_5 
REMARK    4  A    between atoms: C_6  and  C_7 
REMARK    5  A    between atoms: C_18  and  S_19 
REMARK    6  A    between atoms: S_19  and  C_20 
REMARK    7  A    between atoms: C_20  and  C_21 
ROOT
HETATM    1  C   UNL     1      42.198 -12.201  -1.288  1.00  0.00     0.070 C 
HETATM    2  C   UNL     1      41.783 -13.636  -0.992  1.00  0.00     0.203 C 
HETATM    3  N   UNL     1      41.722 -13.882   0.451  1.00  0.00    -0.082 N 
HETATM    4  C   UNL     1      41.835 -12.908   1.404  1.00  0.00     0.726 A 
HETATM    5  N   UNL     1      42.051 -11.635   1.018  1.00  0.00    -0.192 N 
HETATM    6  N   UNL     1      41.648 -15.106   1.006  1.00  0.00    -0.128 NA
HETATM    7  C   UNL     1      41.634 -14.790   2.307  1.00  0.00     0.226 A 
HETATM    8  N   UNL     1      41.741 -13.449   2.591  1.00  0.00    -0.035 NA
HETATM    9  C   UNL     1      42.302 -11.273  -0.304  1.00  0.00     0.037 C 
HETATM   10  C   UNL     1      42.715  -9.839  -0.524  1.00  0.00     0.070 C 
HETATM   11  H   UNL     1      42.200 -10.928   1.734  1.00  0.00     0.184 HD
ENDROOT
BRANCH   7  12
HETATM   12  S   UNL     1      41.546 -16.031   3.519  1.00  0.00    -0.083 SA
BRANCH  12  13
HETATM   13  C   UNL     1      43.310 -16.388   3.733  1.00  0.00     0.121 C 
BRANCH  13  14
HETATM   14  C   UNL     1      43.615 -17.831   3.412  1.00  0.00    -0.048 A 
HETATM   15  C   UNL     1      44.047 -18.709   4.420  1.00  0.00     0.020 A 
HETATM   16  C   UNL     1      44.294 -20.065   4.149  1.00  0.00    -0.025 A 
HETATM   17  C   UNL     1      44.109 -20.554   2.837  1.00  0.00    -0.026 A 
HETATM   18  C   UNL     1      44.713 -20.949   5.157  1.00  0.00     0.012 A 
HETATM   19  C   UNL     1      43.680 -19.674   1.832  1.00  0.00     0.013 A 
HETATM   20  C   UNL     1      44.349 -21.911   2.569  1.00  0.00     0.012 A 
HETATM   21  C   UNL     1      43.431 -18.328   2.116  1.00  0.00     0.009 A 
HETATM   22  C   UNL     1      44.764 -22.777   3.582  1.00  0.00     0.001 A 
HETATM   23  C   UNL     1      44.946 -22.296   4.876  1.00  0.00     0.001 A 
ENDBRANCH  13  14
ENDBRANCH  12  13
ENDBRANCH   7  12
BRANCH   2  24
HETATM   24  C   UNL     1      40.444 -14.004  -1.631  1.00  0.00    -0.028 A 
HETATM   25  C   UNL     1      40.416 -14.837  -2.764  1.00  0.00     0.012 A 
HETATM   26  C   UNL     1      39.202 -15.183  -3.361  1.00  0.00     0.043 A 
HETATM   27  C   UNL     1      38.013 -14.701  -2.828  1.00  0.00     0.116 A 
HETATM   28  F   UNL     1      36.850 -15.036  -3.402  1.00  0.00    -0.206 F 
HETATM   29  C   UNL     1      38.013 -13.881  -1.708  1.00  0.00     0.043 A 
HETATM   30  C   UNL     1      39.224 -13.533  -1.108  1.00  0.00     0.012 A 
ENDBRANCH   2  24
BRANCH   1  31
HETATM   31  C   UNL     1      42.434 -11.872  -2.711  1.00  0.00     0.293 C 
HETATM   32  O   UNL     1      43.185 -12.489  -3.447  1.00  0.00    -0.259 OA
BRANCH  31  33
HETATM   33  O   UNL     1      41.690 -10.789  -3.046  1.00  0.00    -0.318 OA
BRANCH  33  34
HETATM   34  C   UNL     1      40.998 -10.870  -4.303  1.00  0.00     0.174 C 
HETATM   35  C   UNL     1      39.579 -11.358  -4.086  1.00  0.00     0.034 C 
ENDBRANCH  33  34
ENDBRANCH  31  33
ENDBRANCH   1  31
TORSDOF 7
ENDMDL
MODEL 7
REMARK VINA RESULT:      -8.6      4.839      8.146
REMARK  7 active torsions:
REMARK  status: ('A' for Active; 'I' for Inactive)
REMARK    1  A    between atoms: C_2  and  O_3 
REMARK    2  A    between atoms: O_3  and  C_4 
REMARK    3  A    between atoms: C_4  and  C_5 
REMARK    4  A    between atoms: C_6  and  C_7 
REMARK    5  A    between atoms: C_18  and  S_19 
REMARK    6  A    between atoms: S_19  and  C_20 
REMARK    7  A    between atoms: C_20  and  C_21 
ROOT
HETATM    1  C   UNL     1      41.846 -15.587   3.416  1.00  0.00     0.070 C 
HETATM    2  C   UNL     1      42.327 -14.755   4.597  1.00  0.00     0.203 C 
HETATM    3  N   UNL     1      41.292 -13.816   5.038  1.00  0.00    -0.082 N 
HETATM    4  C   UNL     1      40.004 -13.818   4.580  1.00  0.00     0.726 A 
HETATM    5  N   UNL     1      39.646 -14.708   3.635  1.00  0.00    -0.192 N 
HETATM    6  N   UNL     1      41.516 -12.782   5.871  1.00  0.00    -0.128 NA
HETATM    7  C   UNL     1      40.291 -12.247   5.939  1.00  0.00     0.226 A 
HETATM    8  N   UNL     1      39.333 -12.859   5.165  1.00  0.00    -0.035 NA
HETATM    9  C   UNL     1      40.557 -15.548   2.996  1.00  0.00     0.037 C 
HETATM   10  C   UNL     1      40.015 -16.338   1.830  1.00  0.00     0.070 C 
HETATM   11  H   UNL     1      38.705 -14.660   3.251  1.00  0.00     0.184 HD
ENDROOT
BRANCH   7  12
HETATM   12  S   UNL     1      39.993 -10.836   6.909  1.00  0.00    -0.083 SA
BRANCH  12  13
HETATM   13  C   UNL     1      41.616 -10.642   7.689  1.00  0.00     0.121 C 
BRANCH  13  14
HETATM   14  C   UNL     1      41.499 -10.639   9.194  1.00  0.00    -0.048 A 
HETATM   15  C   UNL     1      42.572 -10.207   9.991  1.00  0.00     0.020 A 
HETATM   16  C   UNL     1      42.467 -10.156  11.391  1.00  0.00    -0.025 A 
HETATM   17  C   UNL     1      41.260 -10.551  12.009  1.00  0.00    -0.026 A 
HETATM   18  C   UNL     1      43.532  -9.711  12.190  1.00  0.00     0.012 A 
HETATM   19  C   UNL     1      40.191 -10.986  11.210  1.00  0.00     0.013 A 
HETATM   20  C   UNL     1      41.152 -10.493  13.407  1.00  0.00     0.012 A 
HETATM   21  C   UNL     1      40.307 -11.025   9.817  1.00  0.00     0.009 A 
HETATM   22  C   UNL     1      42.220 -10.048  14.188  1.00  0.00     0.001 A 
HETATM   23  C   UNL     1      43.410  -9.657  13.579  1.00  0.00     0.001 A 
ENDBRANCH  13  14
ENDBRANCH  12  13
ENDBRANCH   7  12
BRANCH   2  24
HETATM   24  C   UNL     1      42.775 -15.615   5.778  1.00  0.00    -0.028 A 
HETATM   25  C   UNL     1      41.875 -16.524   6.363  1.00  0.00     0.012 A 
HETATM   26  C   UNL     1      42.267 -17.317   7.442  1.00  0.00     0.043 A 
HETATM   27  C   UNL     1      43.560 -17.209   7.940  1.00  0.00     0.116 A 
HETATM   28  F   UNL     1      43.934 -17.972   8.974  1.00  0.00    -0.206 F 
HETATM   29  C   UNL     1      44.469 -16.323   7.378  1.00  0.00     0.043 A 
HETATM   30  C   UNL     1      44.082 -15.529   6.298  1.00  0.00     0.012 A 
ENDBRANCH   2  24
BRANCH   1  31
HETATM   31  C   UNL     1      42.853 -16.471   2.790  1.00  0.00     0.293 C 
HETATM   32  O   UNL     1      43.789 -16.081   2.112  1.00  0.00    -0.259 OA
BRANCH  31  33
HETATM   33  O   UNL     1      42.562 -17.761   3.091  1.00  0.00    -0.318 OA
BRANCH  33  34
HETATM   34  C   UNL     1      43.676 -18.668   3.105  1.00  0.00     0.174 C 
HETATM   35  C   UNL     1      44.186 -18.846   4.523  1.00  0.00     0.034 C 
ENDBRANCH  33  34
ENDBRANCH  31  33
ENDBRANCH   1  31
TORSDOF 7
ENDMDL
MODEL 8
REMARK VINA RESULT:      -8.5      3.591      6.976
REMARK  7 active torsions:
REMARK  status: ('A' for Active; 'I' for Inactive)
REMARK    1  A    between atoms: C_2  and  O_3 
REMARK    2  A    between atoms: O_3  and  C_4 
REMARK    3  A    between atoms: C_4  and  C_5 
REMARK    4  A    between atoms: C_6  and  C_7 
REMARK    5  A    between atoms: C_18  and  S_19 
REMARK    6  A    between atoms: S_19  and  C_20 
REMARK    7  A    between atoms: C_20  and  C_21 
ROOT
HETATM    1  C   UNL     1      42.966 -15.516   6.026  1.00  0.00     0.070 C 
HETATM    2  C   UNL     1      41.935 -15.752   4.931  1.00  0.00     0.203 C 
HETATM    3  N   UNL     1      41.472 -14.485   4.359  1.00  0.00    -0.082 N 
HETATM    4  C   UNL     1      42.027 -13.267   4.634  1.00  0.00     0.726 A 
HETATM    5  N   UNL     1      43.046 -13.194   5.513  1.00  0.00    -0.192 N 
HETATM    6  N   UNL     1      40.384 -14.363   3.575  1.00  0.00    -0.128 NA
HETATM    7  C   UNL     1      40.390 -13.045   3.342  1.00  0.00     0.226 A 
HETATM    8  N   UNL     1      41.388 -12.338   3.971  1.00  0.00    -0.035 NA
HETATM    9  C   UNL     1      43.482 -14.284   6.264  1.00  0.00     0.037 C 
HETATM   10  C   UNL     1      44.498 -13.977   7.336  1.00  0.00     0.070 C 
HETATM   11  H   UNL     1      43.410 -12.278   5.762  1.00  0.00     0.184 HD
ENDROOT
BRANCH   7  12
HETATM   12  S   UNL     1      39.163 -12.314   2.353  1.00  0.00    -0.083 SA
BRANCH  12  13
HETATM   13  C   UNL     1      40.163 -11.818   0.926  1.00  0.00     0.121 C 
BRANCH  13  14
HETATM   14  C   UNL     1      40.202 -12.910  -0.115  1.00  0.00    -0.048 A 
HETATM   15  C   UNL     1      39.097 -13.136  -0.953  1.00  0.00     0.020 A 
HETATM   16  C   UNL     1      39.131 -14.118  -1.957  1.00  0.00    -0.025 A 
HETATM   17  C   UNL     1      40.297 -14.898  -2.123  1.00  0.00    -0.026 A 
HETATM   18  C   UNL     1      38.034 -14.336  -2.806  1.00  0.00     0.012 A 
HETATM   19  C   UNL     1      41.397 -14.673  -1.282  1.00  0.00     0.013 A 
HETATM   20  C   UNL     1      40.333 -15.874  -3.131  1.00  0.00     0.012 A 
HETATM   21  C   UNL     1      41.353 -13.687  -0.292  1.00  0.00     0.009 A 
HETATM   22  C   UNL     1      39.234 -16.079  -3.967  1.00  0.00     0.001 A 
HETATM   23  C   UNL     1      38.085 -15.310  -3.804  1.00  0.00     0.001 A 
ENDBRANCH  13  14
ENDBRANCH  12  13
ENDBRANCH   7  12
BRANCH   2  24
HETATM   24  C   UNL     1      42.459 -16.656   3.816  1.00  0.00    -0.028 A 
HETATM   25  C   UNL     1      43.451 -16.182   2.939  1.00  0.00     0.012 A 
HETATM   26  C   UNL     1      43.942 -16.994   1.916  1.00  0.00     0.043 A 
HETATM   27  C   UNL     1      43.445 -18.283   1.764  1.00  0.00     0.116 A 
HETATM   28  F   UNL     1      43.918 -19.060   0.782  1.00  0.00    -0.206 F 
HETATM   29  C   UNL     1      42.469 -18.777   2.619  1.00  0.00     0.043 A 
HETATM   30  C   UNL     1      41.977 -17.969   3.645  1.00  0.00     0.012 A 
ENDBRANCH   2  24
BRANCH   1  31
HETATM   31  C   UNL     1      43.403 -16.712   6.778  1.00  0.00     0.293 C 
HETATM   32  O   UNL     1      42.814 -17.177   7.740  1.00  0.00    -0.259 OA
BRANCH  31  33
HETATM   33  O   UNL     1      44.546 -17.192   6.228  1.00  0.00    -0.318 OA
BRANCH  33  34
HETATM   34  C   UNL     1      44.820 -18.581   6.465  1.00  0.00     0.174 C 
HETATM   35  C   UNL     1      45.002 -19.309   5.146  1.00  0.00     0.034 C 
ENDBRANCH  33  34
ENDBRANCH  31  33
ENDBRANCH   1  31
TORSDOF 7
ENDMDL
MODEL 9
REMARK VINA RESULT:      -8.3      5.770      8.951
REMARK  7 active torsions:
REMARK  status: ('A' for Active; 'I' for Inactive)
REMARK    1  A    between atoms: C_2  and  O_3 
REMARK    2  A    between atoms: O_3  and  C_4 
REMARK    3  A    between atoms: C_4  and  C_5 
REMARK    4  A    between atoms: C_6  and  C_7 
REMARK    5  A    between atoms: C_18  and  S_19 
REMARK    6  A    between atoms: S_19  and  C_20 
REMARK    7  A    between atoms: C_20  and  C_21 
ROOT
HETATM    1  C   UNL     1      43.115 -14.195   4.947  1.00  0.00     0.070 C 
HETATM    2  C   UNL     1      44.180 -14.455   6.005  1.00  0.00     0.203 C 
HETATM    3  N   UNL     1      44.082 -13.488   7.102  1.00  0.00    -0.082 N 
HETATM    4  C   UNL     1      43.058 -12.594   7.252  1.00  0.00     0.726 A 
HETATM    5  N   UNL     1      42.080 -12.557   6.327  1.00  0.00    -0.192 N 
HETATM    6  N   UNL     1      45.039 -13.300   8.031  1.00  0.00    -0.128 NA
HETATM    7  C   UNL     1      44.485 -12.329   8.767  1.00  0.00     0.226 A 
HETATM    8  N   UNL     1      43.265 -11.873   8.324  1.00  0.00    -0.035 NA
HETATM    9  C   UNL     1      42.123 -13.292   5.144  1.00  0.00     0.037 C 
HETATM   10  C   UNL     1      41.043 -12.979   4.138  1.00  0.00     0.070 C 
HETATM   11  H   UNL     1      41.358 -11.845   6.410  1.00  0.00     0.184 HD
ENDROOT
BRANCH   7  12
HETATM   12  S   UNL     1      45.317 -11.679  10.146  1.00  0.00    -0.083 SA
BRANCH  12  13
HETATM   13  C   UNL     1      44.142 -12.113  11.456  1.00  0.00     0.121 C 
BRANCH  13  14
HETATM   14  C   UNL     1      43.547 -10.876  12.083  1.00  0.00    -0.048 A 
HETATM   15  C   UNL     1      43.086 -10.901  13.410  1.00  0.00     0.020 A 
HETATM   16  C   UNL     1      42.569  -9.749  14.025  1.00  0.00    -0.025 A 
HETATM   17  C   UNL     1      42.507  -8.542  13.293  1.00  0.00    -0.026 A 
HETATM   18  C   UNL     1      42.121  -9.767  15.356  1.00  0.00     0.012 A 
HETATM   19  C   UNL     1      42.964  -8.522  11.966  1.00  0.00     0.013 A 
HETATM   20  C   UNL     1      41.996  -7.389  13.910  1.00  0.00     0.012 A 
HETATM   21  C   UNL     1      43.483  -9.674  11.369  1.00  0.00     0.009 A 
HETATM   22  C   UNL     1      41.556  -7.423  15.234  1.00  0.00     0.001 A 
HETATM   23  C   UNL     1      41.618  -8.612  15.957  1.00  0.00     0.001 A 
ENDBRANCH  13  14
ENDBRANCH  12  13
ENDBRANCH   7  12
BRANCH   2  24
HETATM   24  C   UNL     1      44.115 -15.875   6.567  1.00  0.00    -0.028 A 
HETATM   25  C   UNL     1      43.089 -16.226   7.463  1.00  0.00     0.012 A 
HETATM   26  C   UNL     1      43.015 -17.518   7.986  1.00  0.00     0.043 A 
HETATM   27  C   UNL     1      43.962 -18.465   7.616  1.00  0.00     0.116 A 
HETATM   28  F   UNL     1      43.888 -19.704   8.118  1.00  0.00    -0.206 F 
HETATM   29  C   UNL     1      44.982 -18.145   6.730  1.00  0.00     0.043 A 
HETATM   30  C   UNL     1      45.060 -16.855   6.203  1.00  0.00     0.012 A 
ENDBRANCH   2  24
BRANCH   1  31
HETATM   31  C   UNL     1      43.203 -15.017   3.721  1.00  0.00     0.293 C 
HETATM   32  O   UNL     1      44.061 -14.891   2.864  1.00  0.00    -0.259 OA
BRANCH  31  33
HETATM   33  O   UNL     1      42.185 -15.914   3.713  1.00  0.00    -0.318 OA
BRANCH  33  34
HETATM   34  C   UNL     1      42.547 -17.269   3.402  1.00  0.00     0.174 C 
HETATM   35  C   UNL     1      42.024 -18.207   4.474  1.00  0.00     0.034 C 
ENDBRANCH  33  34
ENDBRANCH  31  33
ENDBRANCH   1  31
TORSDOF 7
ENDMDL
MODEL 10
REMARK VINA RESULT:      -7.9      4.246      7.826
REMARK  7 active torsions:
REMARK  status: ('A' for Active; 'I' for Inactive)
REMARK    1  A    between atoms: C_2  and  O_3 
REMARK    2  A    between atoms: O_3  and  C_4 
REMARK    3  A    between atoms: C_4  and  C_5 
REMARK    4  A    between atoms: C_6  and  C_7 
REMARK    5  A    between atoms: C_18  and  S_19 
REMARK    6  A    between atoms: S_19  and  C_20 
REMARK    7  A    between atoms: C_20  and  C_21 
ROOT
HETATM    1  C   UNL     1      42.285 -16.527   2.914  1.00  0.00     0.070 C 
HETATM    2  C   UNL     1      42.589 -15.404   3.896  1.00  0.00     0.203 C 
HETATM    3  N   UNL     1      41.503 -14.419   3.926  1.00  0.00    -0.082 N 
HETATM    4  C   UNL     1      40.298 -14.584   3.302  1.00  0.00     0.726 A 
HETATM    5  N   UNL     1      40.080 -15.699   2.579  1.00  0.00    -0.192 N 
HETATM    6  N   UNL     1      41.606 -13.199   4.486  1.00  0.00    -0.128 NA
HETATM    7  C   UNL     1      40.386 -12.708   4.236  1.00  0.00     0.226 A 
HETATM    8  N   UNL     1      39.552 -13.530   3.517  1.00  0.00    -0.035 NA
HETATM    9  C   UNL     1      41.072 -16.642   2.317  1.00  0.00     0.037 C 
HETATM   10  C   UNL     1      40.706 -17.722   1.330  1.00  0.00     0.070 C 
HETATM   11  H   UNL     1      39.207 -15.783   2.064  1.00  0.00     0.184 HD
ENDROOT
BRANCH   7  12
HETATM   12  S   UNL     1      39.953 -11.107   4.754  1.00  0.00    -0.083 SA
BRANCH  12  13
HETATM   13  C   UNL     1      39.204 -11.487   6.359  1.00  0.00     0.121 C 
BRANCH  13  14
HETATM   14  C   UNL     1      40.127 -11.109   7.493  1.00  0.00    -0.048 A 
HETATM   15  C   UNL     1      39.712 -11.255   8.827  1.00  0.00     0.020 A 
HETATM   16  C   UNL     1      40.573 -10.950   9.895  1.00  0.00    -0.025 A 
HETATM   17  C   UNL     1      41.877 -10.482   9.622  1.00  0.00    -0.026 A 
HETATM   18  C   UNL     1      40.167 -11.108  11.230  1.00  0.00     0.012 A 
HETATM   19  C   UNL     1      42.286 -10.333   8.288  1.00  0.00     0.013 A 
HETATM   20  C   UNL     1      42.738 -10.183  10.689  1.00  0.00     0.012 A 
HETATM   21  C   UNL     1      41.423 -10.648   7.234  1.00  0.00     0.009 A 
HETATM   22  C   UNL     1      42.320 -10.347  12.011  1.00  0.00     0.001 A 
HETATM   23  C   UNL     1      41.035 -10.809  12.282  1.00  0.00     0.001 A 
ENDBRANCH  13  14
ENDBRANCH  12  13
ENDBRANCH   7  12
BRANCH   2  24
HETATM   24  C   UNL     1      42.854 -15.916   5.311  1.00  0.00    -0.028 A 
HETATM   25  C   UNL     1      41.925 -16.772   5.931  1.00  0.00     0.012 A 
HETATM   26  C   UNL     1      42.152 -17.250   7.223  1.00  0.00     0.043 A 
HETATM   27  C   UNL     1      43.306 -16.878   7.900  1.00  0.00     0.116 A 
HETATM   28  F   UNL     1      43.521 -17.338   9.139  1.00  0.00    -0.206 F 
HETATM   29  C   UNL     1      44.241 -16.038   7.309  1.00  0.00     0.043 A 
HETATM   30  C   UNL     1      44.020 -15.559   6.017  1.00  0.00     0.012 A 
ENDBRANCH   2  24
BRANCH   1  31
HETATM   31  C   UNL     1      43.371 -17.507   2.690  1.00  0.00     0.293 C 
HETATM   32  O   UNL     1      44.356 -17.301   2.002  1.00  0.00    -0.259 OA
BRANCH  31  33
HETATM   33  O   UNL     1      43.086 -18.649   3.364  1.00  0.00    -0.318 OA
BRANCH  33  34
HETATM   34  C   UNL     1      44.214 -19.463   3.720  1.00  0.00     0.174 C 
HETATM   35  C   UNL     1      44.526 -19.307   5.196  1.00  0.00     0.034 C 
ENDBRANCH  33  34
ENDBRANCH  31  33
ENDBRANCH   1  31
TORSDOF 7
ENDMDL
