MODEL 1
REMARK VINA RESULT:      -9.0      0.000      0.000
REMARK  1 active torsions:
REMARK  status: ('A' for Active; 'I' for Inactive)
REMARK    1  A    between atoms: C_8  and  C_9 
ROOT
HETATM    1  C   UNL     1      43.534 -16.810   8.025  1.00  0.00     0.073 C 
HETATM    2  C   UNL     1      43.772 -15.727   7.037  1.00  0.00     0.062 C 
HETATM    3  N   UNL     1      44.738 -14.835   7.285  1.00  0.00    -0.178 NA
HETATM    4  N   UNL     1      44.728 -14.042   6.210  1.00  0.00    -0.262 N 
HETATM    5  H   UNL     1      45.402 -13.286   6.169  1.00  0.00     0.191 HD
HETATM    6  C   UNL     1      43.691 -14.296   5.358  1.00  0.00     0.134 C 
HETATM    7  C   UNL     1      43.114 -15.478   5.786  1.00  0.00     0.032 C 
HETATM    8  C   UNL     1      42.107 -16.369   5.111  1.00  0.00     0.120 C 
HETATM    9  S   UNL     1      40.730 -15.605   4.189  1.00  0.00    -0.141 SA
HETATM   10  C   UNL     1      40.959 -13.833   4.525  1.00  0.00     0.136 C 
HETATM   11  C   UNL     1      39.686 -13.111   4.077  1.00  0.00     0.031 C 
HETATM   12  C   UNL     1      42.170 -13.275   3.771  1.00  0.00     0.236 C 
HETATM   13  O   UNL     1      42.071 -12.575   2.760  1.00  0.00    -0.272 OA
HETATM   14  N   UNL     1      43.420 -13.464   4.302  1.00  0.00    -0.311 N 
HETATM   15  H   UNL     1      44.132 -12.847   3.925  1.00  0.00     0.170 HD
ENDROOT
BRANCH   8  16
HETATM   16  C   UNL     1      42.928 -17.316   4.220  1.00  0.00    -0.029 A 
HETATM   17  C   UNL     1      43.441 -18.573   4.683  1.00  0.00    -0.018 A 
HETATM   18  C   UNL     1      44.235 -19.355   3.798  1.00  0.00    -0.025 A 
HETATM   19  C   UNL     1      43.217 -19.121   5.973  1.00  0.00     0.013 A 
HETATM   20  C   UNL     1      44.783 -20.578   4.215  1.00  0.00     0.012 A 
HETATM   21  C   UNL     1      44.482 -18.917   2.491  1.00  0.00     0.012 A 
HETATM   22  C   UNL     1      44.562 -21.066   5.499  1.00  0.00     0.001 A 
HETATM   23  C   UNL     1      43.772 -20.339   6.376  1.00  0.00     0.001 A 
HETATM   24  C   UNL     1      43.963 -17.715   2.033  1.00  0.00     0.002 A 
HETATM   25  C   UNL     1      43.204 -16.926   2.886  1.00  0.00     0.009 A 
ENDBRANCH   8  16
TORSDOF 1
ENDMDL
MODEL 2
REMARK VINA RESULT:      -8.9      1.806      2.255
REMARK  1 active torsions:
REMARK  status: ('A' for Active; 'I' for Inactive)
REMARK    1  A    between atoms: C_8  and  C_9 
ROOT
HETATM    1  C   UNL     1      42.853 -15.247   6.222  1.00  0.00     0.073 C 
HETATM    2  C   UNL     1      42.896 -14.699   4.841  1.00  0.00     0.062 C 
HETATM    3  N   UNL     1      43.661 -13.627   4.602  1.00  0.00    -0.178 NA
HETATM    4  N   UNL     1      43.521 -13.418   3.289  1.00  0.00    -0.262 N 
HETATM    5  H   UNL     1      44.033 -12.650   2.872  1.00  0.00     0.191 HD
HETATM    6  C   UNL     1      42.576 -14.217   2.711  1.00  0.00     0.134 C 
HETATM    7  C   UNL     1      42.233 -15.166   3.657  1.00  0.00     0.032 C 
HETATM    8  C   UNL     1      41.439 -16.436   3.518  1.00  0.00     0.120 C 
HETATM    9  S   UNL     1      39.961 -16.440   2.447  1.00  0.00    -0.141 SA
HETATM   10  C   UNL     1      39.827 -14.698   1.945  1.00  0.00     0.136 C 
HETATM   11  C   UNL     1      38.448 -14.507   1.309  1.00  0.00     0.031 C 
HETATM   12  C   UNL     1      40.922 -14.322   0.942  1.00  0.00     0.236 C 
HETATM   13  O   UNL     1      40.711 -14.183  -0.266  1.00  0.00    -0.272 OA
HETATM   14  N   UNL     1      42.172 -14.014   1.416  1.00  0.00    -0.311 N 
HETATM   15  H   UNL     1      42.756 -13.511   0.758  1.00  0.00     0.170 HD
ENDROOT
BRANCH   8  16
HETATM   16  C   UNL     1      42.452 -17.510   3.087  1.00  0.00    -0.029 A 
HETATM   17  C   UNL     1      43.060 -18.423   4.012  1.00  0.00    -0.018 A 
HETATM   18  C   UNL     1      44.027 -19.346   3.523  1.00  0.00    -0.025 A 
HETATM   19  C   UNL     1      42.773 -18.493   5.399  1.00  0.00     0.013 A 
HETATM   20  C   UNL     1      44.670 -20.240   4.394  1.00  0.00     0.012 A 
HETATM   21  C   UNL     1      44.352 -19.381   2.161  1.00  0.00     0.012 A 
HETATM   22  C   UNL     1      44.379 -20.257   5.754  1.00  0.00     0.001 A 
HETATM   23  C   UNL     1      43.424 -19.386   6.255  1.00  0.00     0.001 A 
HETATM   24  C   UNL     1      43.745 -18.517   1.263  1.00  0.00     0.002 A 
HETATM   25  C   UNL     1      42.815 -17.593   1.720  1.00  0.00     0.009 A 
ENDBRANCH   8  16
TORSDOF 1
ENDMDL
MODEL 3
REMARK VINA RESULT:      -8.6      2.141      2.931
REMARK  1 active torsions:
REMARK  status: ('A' for Active; 'I' for Inactive)
REMARK    1  A    between atoms: C_8  and  C_9 
ROOT
HETATM    1  C   UNL     1      41.969 -14.562   5.872  1.00  0.00     0.073 C 
HETATM    2  C   UNL     1      41.997 -13.968   4.510  1.00  0.00     0.062 C 
HETATM    3  N   UNL     1      42.645 -12.811   4.330  1.00  0.00    -0.178 NA
HETATM    4  N   UNL     1      42.527 -12.575   3.020  1.00  0.00    -0.262 N 
HETATM    5  H   UNL     1      42.963 -11.742   2.644  1.00  0.00     0.191 HD
HETATM    6  C   UNL     1      41.698 -13.455   2.384  1.00  0.00     0.134 C 
HETATM    7  C   UNL     1      41.432 -14.467   3.289  1.00  0.00     0.032 C 
HETATM    8  C   UNL     1      40.791 -15.812   3.084  1.00  0.00     0.120 C 
HETATM    9  S   UNL     1      39.361 -15.946   1.958  1.00  0.00    -0.141 SA
HETATM   10  C   UNL     1      39.049 -14.214   1.502  1.00  0.00     0.136 C 
HETATM   11  C   UNL     1      37.679 -14.157   0.820  1.00  0.00     0.031 C 
HETATM   12  C   UNL     1      40.128 -13.686   0.552  1.00  0.00     0.236 C 
HETATM   13  O   UNL     1      39.944 -13.531  -0.658  1.00  0.00    -0.272 OA
HETATM   14  N   UNL     1      41.318 -13.256   1.081  1.00  0.00    -0.311 N 
HETATM   15  H   UNL     1      41.865 -12.670   0.460  1.00  0.00     0.170 HD
ENDROOT
BRANCH   8  16
HETATM   16  C   UNL     1      41.933 -16.752   2.661  1.00  0.00    -0.029 A 
HETATM   17  C   UNL     1      42.575 -17.656   3.571  1.00  0.00    -0.018 A 
HETATM   18  C   UNL     1      43.659 -18.447   3.095  1.00  0.00    -0.025 A 
HETATM   19  C   UNL     1      42.215 -17.839   4.930  1.00  0.00     0.013 A 
HETATM   20  C   UNL     1      44.338 -19.325   3.955  1.00  0.00     0.012 A 
HETATM   21  C   UNL     1      44.066 -18.365   1.758  1.00  0.00     0.012 A 
HETATM   22  C   UNL     1      43.970 -19.454   5.290  1.00  0.00     0.001 A 
HETATM   23  C   UNL     1      42.903 -18.715   5.776  1.00  0.00     0.001 A 
HETATM   24  C   UNL     1      43.427 -17.512   0.871  1.00  0.00     0.002 A 
HETATM   25  C   UNL     1      42.382 -16.714   1.317  1.00  0.00     0.009 A 
ENDBRANCH   8  16
TORSDOF 1
ENDMDL
MODEL 4
REMARK VINA RESULT:      -8.3      2.304      3.899
REMARK  1 active torsions:
REMARK  status: ('A' for Active; 'I' for Inactive)
REMARK    1  A    between atoms: C_8  and  C_9 
ROOT
HETATM    1  C   UNL     1      42.968 -17.721   1.150  1.00  0.00     0.073 C 
HETATM    2  C   UNL     1      41.841 -17.132   1.919  1.00  0.00     0.062 C 
HETATM    3  N   UNL     1      40.590 -17.406   1.531  1.00  0.00    -0.178 NA
HETATM    4  N   UNL     1      39.829 -16.780   2.434  1.00  0.00    -0.262 N 
HETATM    5  H   UNL     1      38.823 -16.862   2.348  1.00  0.00     0.191 HD
HETATM    6  C   UNL     1      40.542 -15.991   3.290  1.00  0.00     0.134 C 
HETATM    7  C   UNL     1      41.876 -16.291   3.082  1.00  0.00     0.032 C 
HETATM    8  C   UNL     1      43.093 -15.927   3.887  1.00  0.00     0.120 C 
HETATM    9  S   UNL     1      43.206 -14.255   4.609  1.00  0.00    -0.141 SA
HETATM   10  C   UNL     1      41.726 -13.433   3.947  1.00  0.00     0.136 C 
HETATM   11  C   UNL     1      41.873 -11.933   4.214  1.00  0.00     0.031 C 
HETATM   12  C   UNL     1      40.451 -13.961   4.612  1.00  0.00     0.236 C 
HETATM   13  O   UNL     1      39.826 -13.329   5.467  1.00  0.00    -0.272 OA
HETATM   14  N   UNL     1      39.911 -15.138   4.161  1.00  0.00    -0.311 N 
HETATM   15  H   UNL     1      38.946 -15.286   4.431  1.00  0.00     0.170 HD
ENDROOT
BRANCH   8  16
HETATM   16  C   UNL     1      43.214 -17.018   4.965  1.00  0.00    -0.029 A 
HETATM   17  C   UNL     1      43.813 -18.297   4.714  1.00  0.00    -0.018 A 
HETATM   18  C   UNL     1      43.830 -19.259   5.763  1.00  0.00    -0.025 A 
HETATM   19  C   UNL     1      44.408 -18.695   3.489  1.00  0.00     0.013 A 
HETATM   20  C   UNL     1      44.379 -20.535   5.557  1.00  0.00     0.012 A 
HETATM   21  C   UNL     1      43.301 -18.949   7.022  1.00  0.00     0.012 A 
HETATM   22  C   UNL     1      44.927 -20.895   4.331  1.00  0.00     0.001 A 
HETATM   23  C   UNL     1      44.947 -19.970   3.298  1.00  0.00     0.001 A 
HETATM   24  C   UNL     1      42.747 -17.703   7.272  1.00  0.00     0.002 A 
HETATM   25  C   UNL     1      42.700 -16.756   6.258  1.00  0.00     0.009 A 
ENDBRANCH   8  16
TORSDOF 1
ENDMDL
MODEL 5
REMARK VINA RESULT:      -8.0      2.457      4.138
REMARK  1 active torsions:
REMARK  status: ('A' for Active; 'I' for Inactive)
REMARK    1  A    between atoms: C_8  and  C_9 
ROOT
HETATM    1  C   UNL     1      41.979 -15.929   0.654  1.00  0.00     0.073 C 
HETATM    2  C   UNL     1      41.007 -15.565   1.718  1.00  0.00     0.062 C 
HETATM    3  N   UNL     1      39.701 -15.717   1.471  1.00  0.00    -0.178 NA
HETATM    4  N   UNL     1      39.112 -15.357   2.615  1.00  0.00    -0.262 N 
HETATM    5  H   UNL     1      38.102 -15.407   2.668  1.00  0.00     0.191 HD
HETATM    6  C   UNL     1      39.981 -14.832   3.529  1.00  0.00     0.134 C 
HETATM    7  C   UNL     1      41.253 -15.071   3.043  1.00  0.00     0.032 C 
HETATM    8  C   UNL     1      42.593 -14.944   3.716  1.00  0.00     0.120 C 
HETATM    9  S   UNL     1      42.889 -13.531   4.832  1.00  0.00    -0.141 SA
HETATM   10  C   UNL     1      41.367 -12.553   4.651  1.00  0.00     0.136 C 
HETATM   11  C   UNL     1      41.622 -11.183   5.283  1.00  0.00     0.031 C 
HETATM   12  C   UNL     1      40.182 -13.236   5.342  1.00  0.00     0.236 C 
HETATM   13  O   UNL     1      39.722 -12.856   6.422  1.00  0.00    -0.272 OA
HETATM   14  N   UNL     1      39.527 -14.244   4.683  1.00  0.00    -0.311 N 
HETATM   15  H   UNL     1      38.607 -14.455   5.051  1.00  0.00     0.170 HD
ENDROOT
BRANCH   8  16
HETATM   16  C   UNL     1      42.822 -16.286   4.431  1.00  0.00    -0.029 A 
HETATM   17  C   UNL     1      43.390 -17.430   3.778  1.00  0.00    -0.018 A 
HETATM   18  C   UNL     1      43.513 -18.644   4.511  1.00  0.00    -0.025 A 
HETATM   19  C   UNL     1      43.856 -17.457   2.438  1.00  0.00     0.013 A 
HETATM   20  C   UNL     1      44.036 -19.798   3.906  1.00  0.00     0.012 A 
HETATM   21  C   UNL     1      43.115 -18.708   5.852  1.00  0.00     0.012 A 
HETATM   22  C   UNL     1      44.456 -19.789   2.580  1.00  0.00     0.001 A 
HETATM   23  C   UNL     1      44.372 -18.615   1.848  1.00  0.00     0.001 A 
HETATM   24  C   UNL     1      42.592 -17.595   6.492  1.00  0.00     0.002 A 
HETATM   25  C   UNL     1      42.442 -16.406   5.791  1.00  0.00     0.009 A 
ENDBRANCH   8  16
TORSDOF 1
ENDMDL
MODEL 6
REMARK VINA RESULT:      -7.8      2.669      4.092
REMARK  1 active torsions:
REMARK  status: ('A' for Active; 'I' for Inactive)
REMARK    1  A    between atoms: C_8  and  C_9 
ROOT
HETATM    1  C   UNL     1      41.504 -14.561  -0.404  1.00  0.00     0.073 C 
HETATM    2  C   UNL     1      40.777 -14.837   0.862  1.00  0.00     0.062 C 
HETATM    3  N   UNL     1      39.456 -15.041   0.811  1.00  0.00    -0.178 NA
HETATM    4  N   UNL     1      39.120 -15.302   2.077  1.00  0.00    -0.262 N 
HETATM    5  H   UNL     1      38.149 -15.507   2.281  1.00  0.00     0.191 HD
HETATM    6  C   UNL     1      40.147 -15.119   2.959  1.00  0.00     0.134 C 
HETATM    7  C   UNL     1      41.290 -14.946   2.199  1.00  0.00     0.032 C 
HETATM    8  C   UNL     1      42.738 -14.947   2.604  1.00  0.00     0.120 C 
HETATM    9  S   UNL     1      43.217 -14.140   4.170  1.00  0.00    -0.141 SA
HETATM   10  C   UNL     1      41.655 -13.399   4.731  1.00  0.00     0.136 C 
HETATM   11  C   UNL     1      41.988 -12.424   5.863  1.00  0.00     0.031 C 
HETATM   12  C   UNL     1      40.680 -14.469   5.233  1.00  0.00     0.236 C 
HETATM   13  O   UNL     1      40.454 -14.668   6.429  1.00  0.00    -0.272 OA
HETATM   14  N   UNL     1      39.936 -15.164   4.314  1.00  0.00    -0.311 N 
HETATM   15  H   UNL     1      39.128 -15.638   4.702  1.00  0.00     0.170 HD
ENDROOT
BRANCH   8  16
HETATM   16  C   UNL     1      43.173 -16.422   2.573  1.00  0.00    -0.029 A 
HETATM   17  C   UNL     1      43.348 -17.208   3.760  1.00  0.00    -0.018 A 
HETATM   18  C   UNL     1      43.805 -18.549   3.629  1.00  0.00    -0.025 A 
HETATM   19  C   UNL     1      43.096 -16.757   5.082  1.00  0.00     0.013 A 
HETATM   20  C   UNL     1      44.019 -19.348   4.764  1.00  0.00     0.012 A 
HETATM   21  C   UNL     1      44.047 -19.098   2.364  1.00  0.00     0.012 A 
HETATM   22  C   UNL     1      43.786 -18.859   6.045  1.00  0.00     0.001 A 
HETATM   23  C   UNL     1      43.317 -17.564   6.202  1.00  0.00     0.001 A 
HETATM   24  C   UNL     1      43.851 -18.348   1.215  1.00  0.00     0.002 A 
HETATM   25  C   UNL     1      43.427 -17.030   1.318  1.00  0.00     0.009 A 
ENDBRANCH   8  16
TORSDOF 1
ENDMDL
MODEL 7
REMARK VINA RESULT:      -7.6      3.056      4.487
REMARK  1 active torsions:
REMARK  status: ('A' for Active; 'I' for Inactive)
REMARK    1  A    between atoms: C_8  and  C_9 
ROOT
HETATM    1  C   UNL     1      43.864 -18.566   1.920  1.00  0.00     0.073 C 
HETATM    2  C   UNL     1      42.570 -17.881   1.667  1.00  0.00     0.062 C 
HETATM    3  N   UNL     1      41.638 -18.518   0.949  1.00  0.00    -0.178 NA
HETATM    4  N   UNL     1      40.603 -17.673   0.942  1.00  0.00    -0.262 N 
HETATM    5  H   UNL     1      39.759 -17.957   0.459  1.00  0.00     0.191 HD
HETATM    6  C   UNL     1      40.892 -16.457   1.494  1.00  0.00     0.134 C 
HETATM    7  C   UNL     1      42.126 -16.588   2.106  1.00  0.00     0.032 C 
HETATM    8  C   UNL     1      42.837 -15.676   3.067  1.00  0.00     0.120 C 
HETATM    9  S   UNL     1      42.754 -13.873   2.799  1.00  0.00    -0.141 SA
HETATM   10  C   UNL     1      41.861 -13.745   1.220  1.00  0.00     0.136 C 
HETATM   11  C   UNL     1      42.009 -12.305   0.723  1.00  0.00     0.031 C 
HETATM   12  C   UNL     1      40.379 -14.091   1.389  1.00  0.00     0.236 C 
HETATM   13  O   UNL     1      39.486 -13.240   1.407  1.00  0.00    -0.272 OA
HETATM   14  N   UNL     1      40.009 -15.411   1.408  1.00  0.00    -0.311 N 
HETATM   15  H   UNL     1      39.022 -15.572   1.238  1.00  0.00     0.170 HD
ENDROOT
BRANCH   8  16
HETATM   16  C   UNL     1      42.319 -16.064   4.462  1.00  0.00    -0.029 A 
HETATM   17  C   UNL     1      43.053 -16.911   5.358  1.00  0.00    -0.018 A 
HETATM   18  C   UNL     1      42.465 -17.256   6.607  1.00  0.00    -0.025 A 
HETATM   19  C   UNL     1      44.344 -17.442   5.105  1.00  0.00     0.013 A 
HETATM   20  C   UNL     1      43.132 -18.106   7.504  1.00  0.00     0.012 A 
HETATM   21  C   UNL     1      41.209 -16.752   6.965  1.00  0.00     0.012 A 
HETATM   22  C   UNL     1      44.386 -18.628   7.205  1.00  0.00     0.001 A 
HETATM   23  C   UNL     1      44.995 -18.290   6.007  1.00  0.00     0.001 A 
HETATM   24  C   UNL     1      40.511 -15.911   6.111  1.00  0.00     0.002 A 
HETATM   25  C   UNL     1      41.055 -15.578   4.878  1.00  0.00     0.009 A 
ENDBRANCH   8  16
TORSDOF 1
ENDMDL
MODEL 8
REMARK VINA RESULT:      -7.5      3.155      5.589
REMARK  1 active torsions:
REMARK  status: ('A' for Active; 'I' for Inactive)
REMARK    1  A    between atoms: C_8  and  C_9 
ROOT
HETATM    1  C   UNL     1      39.672 -12.119   3.662  1.00  0.00     0.073 C 
HETATM    2  C   UNL     1      40.063 -13.182   4.624  1.00  0.00     0.062 C 
HETATM    3  N   UNL     1      39.189 -13.542   5.570  1.00  0.00    -0.178 NA
HETATM    4  N   UNL     1      39.810 -14.527   6.226  1.00  0.00    -0.262 N 
HETATM    5  H   UNL     1      39.321 -14.973   6.992  1.00  0.00     0.191 HD
HETATM    6  C   UNL     1      41.108 -14.703   5.836  1.00  0.00     0.134 C 
HETATM    7  C   UNL     1      41.281 -13.938   4.697  1.00  0.00     0.032 C 
HETATM    8  C   UNL     1      42.406 -13.921   3.697  1.00  0.00     0.120 C 
HETATM    9  S   UNL     1      44.122 -14.075   4.298  1.00  0.00    -0.141 SA
HETATM   10  C   UNL     1      43.916 -14.061   6.104  1.00  0.00     0.136 C 
HETATM   11  C   UNL     1      45.301 -13.858   6.724  1.00  0.00     0.031 C 
HETATM   12  C   UNL     1      43.306 -15.374   6.605  1.00  0.00     0.236 C 
HETATM   13  O   UNL     1      43.964 -16.250   7.172  1.00  0.00    -0.272 OA
HETATM   14  N   UNL     1      41.947 -15.542   6.523  1.00  0.00    -0.311 N 
HETATM   15  H   UNL     1      41.582 -16.282   7.112  1.00  0.00     0.170 HD
ENDROOT
BRANCH   8  16
HETATM   16  C   UNL     1      42.064 -15.019   2.676  1.00  0.00    -0.029 A 
HETATM   17  C   UNL     1      41.770 -14.739   1.300  1.00  0.00    -0.018 A 
HETATM   18  C   UNL     1      41.413 -15.819   0.444  1.00  0.00    -0.025 A 
HETATM   19  C   UNL     1      41.810 -13.453   0.702  1.00  0.00     0.013 A 
HETATM   20  C   UNL     1      41.088 -15.590  -0.902  1.00  0.00     0.012 A 
HETATM   21  C   UNL     1      41.382 -17.131   0.932  1.00  0.00     0.012 A 
HETATM   22  C   UNL     1      41.113 -14.309  -1.442  1.00  0.00     0.001 A 
HETATM   23  C   UNL     1      41.481 -13.240  -0.640  1.00  0.00     0.001 A 
HETATM   24  C   UNL     1      41.693 -17.406   2.254  1.00  0.00     0.002 A 
HETATM   25  C   UNL     1      42.022 -16.366   3.113  1.00  0.00     0.009 A 
ENDBRANCH   8  16
TORSDOF 1
ENDMDL
MODEL 9
REMARK VINA RESULT:      -7.4      5.435      7.521
REMARK  1 active torsions:
REMARK  status: ('A' for Active; 'I' for Inactive)
REMARK    1  A    between atoms: C_8  and  C_9 
ROOT
HETATM    1  C   UNL     1      42.382 -11.429  -0.440  1.00  0.00     0.073 C 
HETATM    2  C   UNL     1      42.196 -12.483  -1.471  1.00  0.00     0.062 C 
HETATM    3  N   UNL     1      43.146 -12.645  -2.399  1.00  0.00    -0.178 NA
HETATM    4  N   UNL     1      42.711 -13.676  -3.129  1.00  0.00    -0.262 N 
HETATM    5  H   UNL     1      43.289 -13.994  -3.898  1.00  0.00     0.191 HD
HETATM    6  C   UNL     1      41.447 -14.078  -2.800  1.00  0.00     0.134 C 
HETATM    7  C   UNL     1      41.118 -13.418  -1.630  1.00  0.00     0.032 C 
HETATM    8  C   UNL     1      39.975 -13.637  -0.677  1.00  0.00     0.120 C 
HETATM    9  S   UNL     1      38.325 -14.026  -1.351  1.00  0.00    -0.141 SA
HETATM   10  C   UNL     1      38.581 -13.876  -3.145  1.00  0.00     0.136 C 
HETATM   11  C   UNL     1      37.202 -13.860  -3.808  1.00  0.00     0.031 C 
HETATM   12  C   UNL     1      39.410 -15.045  -3.689  1.00  0.00     0.236 C 
HETATM   13  O   UNL     1      38.918 -15.979  -4.327  1.00  0.00    -0.272 OA
HETATM   14  N   UNL     1      40.774 -14.999  -3.563  1.00  0.00    -0.311 N 
HETATM   15  H   UNL     1      41.272 -15.636  -4.174  1.00  0.00     0.170 HD
ENDROOT
BRANCH   8  16
HETATM   16  C   UNL     1      40.457 -14.724   0.299  1.00  0.00    -0.029 A 
HETATM   17  C   UNL     1      40.355 -14.592   1.724  1.00  0.00    -0.018 A 
HETATM   18  C   UNL     1      40.878 -15.630   2.545  1.00  0.00    -0.025 A 
HETATM   19  C   UNL     1      39.760 -13.497   2.402  1.00  0.00     0.013 A 
HETATM   20  C   UNL     1      40.828 -15.533   3.945  1.00  0.00     0.012 A 
HETATM   21  C   UNL     1      41.453 -16.770   1.969  1.00  0.00     0.012 A 
HETATM   22  C   UNL     1      40.260 -14.428   4.570  1.00  0.00     0.001 A 
HETATM   23  C   UNL     1      39.720 -13.413   3.797  1.00  0.00     0.001 A 
HETATM   24  C   UNL     1      41.527 -16.911   0.592  1.00  0.00     0.002 A 
HETATM   25  C   UNL     1      41.042 -15.901  -0.229  1.00  0.00     0.009 A 
ENDBRANCH   8  16
TORSDOF 1
ENDMDL
MODEL 10
REMARK VINA RESULT:      -7.3      2.525      4.175
REMARK  1 active torsions:
REMARK  status: ('A' for Active; 'I' for Inactive)
REMARK    1  A    between atoms: C_8  and  C_9 
ROOT
HETATM    1  C   UNL     1      39.743 -12.174   3.561  1.00  0.00     0.073 C 
HETATM    2  C   UNL     1      40.106 -13.210   4.562  1.00  0.00     0.062 C 
HETATM    3  N   UNL     1      39.213 -13.526   5.508  1.00  0.00    -0.178 NA
HETATM    4  N   UNL     1      39.811 -14.497   6.204  1.00  0.00    -0.262 N 
HETATM    5  H   UNL     1      39.305 -14.911   6.978  1.00  0.00     0.191 HD
HETATM    6  C   UNL     1      41.111 -14.705   5.838  1.00  0.00     0.134 C 
HETATM    7  C   UNL     1      41.311 -13.981   4.676  1.00  0.00     0.032 C 
HETATM    8  C   UNL     1      42.449 -14.013   3.693  1.00  0.00     0.120 C 
HETATM    9  S   UNL     1      44.155 -14.172   4.321  1.00  0.00    -0.141 SA
HETATM   10  C   UNL     1      43.925 -14.095   6.123  1.00  0.00     0.136 C 
HETATM   11  C   UNL     1      45.304 -13.892   6.755  1.00  0.00     0.031 C 
HETATM   12  C   UNL     1      43.289 -15.382   6.658  1.00  0.00     0.236 C 
HETATM   13  O   UNL     1      43.926 -16.248   7.263  1.00  0.00    -0.272 OA
HETATM   14  N   UNL     1      41.929 -15.533   6.564  1.00  0.00    -0.311 N 
HETATM   15  H   UNL     1      41.545 -16.247   7.171  1.00  0.00     0.170 HD
ENDROOT
BRANCH   8  16
HETATM   16  C   UNL     1      42.104 -15.140   2.703  1.00  0.00    -0.029 A 
HETATM   17  C   UNL     1      42.604 -16.478   2.841  1.00  0.00    -0.018 A 
HETATM   18  C   UNL     1      42.272 -17.436   1.844  1.00  0.00    -0.025 A 
HETATM   19  C   UNL     1      43.414 -16.940   3.910  1.00  0.00     0.013 A 
HETATM   20  C   UNL     1      42.761 -18.750   1.920  1.00  0.00     0.012 A 
HETATM   21  C   UNL     1      41.447 -17.086   0.767  1.00  0.00     0.012 A 
HETATM   22  C   UNL     1      43.576 -19.156   2.972  1.00  0.00     0.001 A 
HETATM   23  C   UNL     1      43.896 -18.251   3.971  1.00  0.00     0.001 A 
HETATM   24  C   UNL     1      40.941 -15.801   0.648  1.00  0.00     0.002 A 
HETATM   25  C   UNL     1      41.270 -14.843   1.598  1.00  0.00     0.009 A 
ENDBRANCH   8  16
TORSDOF 1
ENDMDL
