MODEL 1
REMARK VINA RESULT:      -9.4      0.000      0.000
REMARK  5 active torsions:
REMARK  status: ('A' for Active; 'I' for Inactive)
REMARK    1  A    between atoms: C_4  and  C_5 
REMARK    2  A    between atoms: C_10  and  C_11 
REMARK    3  A    between atoms: N_12  and  N_13 
REMARK       I    between atoms: N_13  and  C_14 
REMARK    4  A    between atoms: C_14  and  C_15 
REMARK    5  A    between atoms: C_16  and  O_17 
ROOT
HETATM    1  C   UNL     1      43.387 -17.476   3.626  1.00  0.00     0.055 A 
HETATM    2  N   UNL     1      44.195 -18.332   4.339  1.00  0.00    -0.354 N 
HETATM    3  H   UNL     1      44.673 -18.088   5.195  1.00  0.00     0.166 HD
HETATM    4  C   UNL     1      44.244 -19.571   3.752  1.00  0.00     0.043 A 
HETATM    5  C   UNL     1      43.436 -19.516   2.616  1.00  0.00     0.005 A 
HETATM    6  C   UNL     1      42.900 -18.187   2.533  1.00  0.00     0.023 A 
HETATM    7  C   UNL     1      44.936 -20.724   4.143  1.00  0.00     0.030 A 
HETATM    8  C   UNL     1      44.801 -21.863   3.345  1.00  0.00     0.002 A 
HETATM    9  C   UNL     1      44.005 -21.846   2.204  1.00  0.00     0.001 A 
HETATM   10  C   UNL     1      43.320 -20.684   1.830  1.00  0.00     0.014 A 
ENDROOT
BRANCH   6  11
HETATM   11  C   UNL     1      42.028 -17.626   1.518  1.00  0.00     0.153 C 
HETATM   12  N   UNL     1      42.525 -16.931   0.547  1.00  0.00    -0.183 NA
BRANCH  12  13
HETATM   13  N   UNL     1      41.632 -16.441  -0.362  1.00  0.00    -0.243 N 
HETATM   14  C   UNL     1      41.344 -15.085  -0.366  1.00  0.00     0.274 C 
HETATM   15  O   UNL     1      41.862 -14.245   0.369  1.00  0.00    -0.266 OA
HETATM   16  H   UNL     1      41.287 -17.053  -1.091  1.00  0.00     0.192 HD
BRANCH  14  17
HETATM   17  C   UNL     1      40.374 -14.618  -1.392  1.00  0.00     0.066 A 
HETATM   18  C   UNL     1      40.629 -14.879  -2.749  1.00  0.00     0.081 A 
HETATM   19  C   UNL     1      39.726 -14.477  -3.731  1.00  0.00     0.037 A 
HETATM   20  C   UNL     1      38.569 -13.788  -3.373  1.00  0.00     0.003 A 
HETATM   21  C   UNL     1      38.318 -13.494  -2.033  1.00  0.00     0.001 A 
HETATM   22  C   UNL     1      39.218 -13.903  -1.044  1.00  0.00     0.020 A 
BRANCH  18  23
HETATM   23  O   UNL     1      41.752 -15.530  -3.187  1.00  0.00    -0.360 OA
HETATM   24  H   UNL     1      42.000 -15.146  -4.059  1.00  0.00     0.217 HD
ENDBRANCH  18  23
ENDBRANCH  14  17
ENDBRANCH  12  13
ENDBRANCH   6  11
BRANCH   1  25
HETATM   25  C   UNL     1      43.156 -16.105   4.073  1.00  0.00    -0.009 A 
HETATM   26  C   UNL     1      42.445 -15.856   5.253  1.00  0.00     0.014 A 
HETATM   27  C   UNL     1      42.220 -14.544   5.678  1.00  0.00     0.001 A 
HETATM   28  C   UNL     1      42.704 -13.475   4.926  1.00  0.00     0.000 A 
HETATM   29  C   UNL     1      43.411 -13.715   3.748  1.00  0.00     0.001 A 
HETATM   30  C   UNL     1      43.635 -15.025   3.322  1.00  0.00     0.014 A 
ENDBRANCH   1  25
TORSDOF 5
ENDMDL
MODEL 2
REMARK VINA RESULT:      -9.0      1.049      1.451
REMARK  5 active torsions:
REMARK  status: ('A' for Active; 'I' for Inactive)
REMARK    1  A    between atoms: C_4  and  C_5 
REMARK    2  A    between atoms: C_10  and  C_11 
REMARK    3  A    between atoms: N_12  and  N_13 
REMARK       I    between atoms: N_13  and  C_14 
REMARK    4  A    between atoms: C_14  and  C_15 
REMARK    5  A    between atoms: C_16  and  O_17 
ROOT
HETATM    1  C   UNL     1      42.987 -17.820   3.889  1.00  0.00     0.055 A 
HETATM    2  N   UNL     1      43.702 -18.712   4.654  1.00  0.00    -0.354 N 
HETATM    3  H   UNL     1      43.960 -18.562   5.619  1.00  0.00     0.166 HD
HETATM    4  C   UNL     1      43.996 -19.849   3.944  1.00  0.00     0.043 A 
HETATM    5  C   UNL     1      43.450 -19.687   2.671  1.00  0.00     0.005 A 
HETATM    6  C   UNL     1      42.817 -18.398   2.634  1.00  0.00     0.023 A 
HETATM    7  C   UNL     1      44.697 -20.997   4.334  1.00  0.00     0.030 A 
HETATM    8  C   UNL     1      44.847 -22.017   3.390  1.00  0.00     0.002 A 
HETATM    9  C   UNL     1      44.317 -21.890   2.110  1.00  0.00     0.001 A 
HETATM   10  C   UNL     1      43.618 -20.735   1.739  1.00  0.00     0.014 A 
ENDROOT
BRANCH   6  11
HETATM   11  C   UNL     1      42.132 -17.757   1.527  1.00  0.00     0.153 C 
HETATM   12  N   UNL     1      42.722 -16.824   0.853  1.00  0.00    -0.183 NA
BRANCH  12  13
HETATM   13  N   UNL     1      42.004 -16.276  -0.171  1.00  0.00    -0.243 N 
HETATM   14  C   UNL     1      41.495 -14.994  -0.032  1.00  0.00     0.274 C 
HETATM   15  O   UNL     1      41.665 -14.262   0.942  1.00  0.00    -0.266 OA
HETATM   16  H   UNL     1      41.957 -16.767  -1.056  1.00  0.00     0.192 HD
BRANCH  14  17
HETATM   17  C   UNL     1      40.735 -14.455  -1.192  1.00  0.00     0.066 A 
HETATM   18  C   UNL     1      39.366 -14.177  -1.048  1.00  0.00     0.081 A 
HETATM   19  C   UNL     1      38.634 -13.646  -2.108  1.00  0.00     0.037 A 
HETATM   20  C   UNL     1      39.255 -13.410  -3.333  1.00  0.00     0.003 A 
HETATM   21  C   UNL     1      40.606 -13.711  -3.501  1.00  0.00     0.001 A 
HETATM   22  C   UNL     1      41.346 -14.236  -2.436  1.00  0.00     0.020 A 
BRANCH  18  23
HETATM   23  O   UNL     1      38.675 -14.401   0.114  1.00  0.00    -0.360 OA
HETATM   24  H   UNL     1      37.768 -14.696  -0.129  1.00  0.00     0.217 HD
ENDBRANCH  18  23
ENDBRANCH  14  17
ENDBRANCH  12  13
ENDBRANCH   6  11
BRANCH   1  25
HETATM   25  C   UNL     1      42.533 -16.546   4.440  1.00  0.00    -0.009 A 
HETATM   26  C   UNL     1      41.400 -16.493   5.262  1.00  0.00     0.014 A 
HETATM   27  C   UNL     1      40.964 -15.273   5.784  1.00  0.00     0.001 A 
HETATM   28  C   UNL     1      41.657 -14.100   5.489  1.00  0.00     0.000 A 
HETATM   29  C   UNL     1      42.785 -14.144   4.670  1.00  0.00     0.001 A 
HETATM   30  C   UNL     1      43.221 -15.362   4.146  1.00  0.00     0.014 A 
ENDBRANCH   1  25
TORSDOF 5
ENDMDL
MODEL 3
REMARK VINA RESULT:      -8.9      3.952      7.804
REMARK  5 active torsions:
REMARK  status: ('A' for Active; 'I' for Inactive)
REMARK    1  A    between atoms: C_4  and  C_5 
REMARK    2  A    between atoms: C_10  and  C_11 
REMARK    3  A    between atoms: N_12  and  N_13 
REMARK       I    between atoms: N_13  and  C_14 
REMARK    4  A    between atoms: C_14  and  C_15 
REMARK    5  A    between atoms: C_16  and  O_17 
ROOT
HETATM    1  C   UNL     1      42.421 -16.375   3.439  1.00  0.00     0.055 A 
HETATM    2  N   UNL     1      42.655 -17.503   2.687  1.00  0.00    -0.354 N 
HETATM    3  H   UNL     1      42.314 -17.647   1.748  1.00  0.00     0.166 HD
HETATM    4  C   UNL     1      43.441 -18.398   3.369  1.00  0.00     0.043 A 
HETATM    5  C   UNL     1      43.727 -17.827   4.610  1.00  0.00     0.005 A 
HETATM    6  C   UNL     1      43.075 -16.549   4.656  1.00  0.00     0.023 A 
HETATM    7  C   UNL     1      43.915 -19.657   2.980  1.00  0.00     0.030 A 
HETATM    8  C   UNL     1      44.709 -20.361   3.890  1.00  0.00     0.002 A 
HETATM    9  C   UNL     1      45.014 -19.824   5.136  1.00  0.00     0.001 A 
HETATM   10  C   UNL     1      44.532 -18.563   5.507  1.00  0.00     0.014 A 
ENDROOT
BRANCH   6  11
HETATM   11  C   UNL     1      43.048 -15.586   5.741  1.00  0.00     0.153 C 
HETATM   12  N   UNL     1      44.125 -15.334   6.412  1.00  0.00    -0.183 NA
BRANCH  12  13
HETATM   13  N   UNL     1      44.007 -14.415   7.415  1.00  0.00    -0.243 N 
HETATM   14  C   UNL     1      44.960 -13.415   7.533  1.00  0.00     0.274 C 
HETATM   15  O   UNL     1      45.913 -13.246   6.772  1.00  0.00    -0.266 OA
HETATM   16  H   UNL     1      43.167 -14.408   7.979  1.00  0.00     0.192 HD
BRANCH  14  17
HETATM   17  C   UNL     1      44.762 -12.440   8.639  1.00  0.00     0.066 A 
HETATM   18  C   UNL     1      43.588 -11.670   8.675  1.00  0.00     0.081 A 
HETATM   19  C   UNL     1      43.362 -10.768   9.711  1.00  0.00     0.037 A 
HETATM   20  C   UNL     1      44.317 -10.604  10.712  1.00  0.00     0.003 A 
HETATM   21  C   UNL     1      45.502 -11.338  10.673  1.00  0.00     0.001 A 
HETATM   22  C   UNL     1      45.728 -12.251   9.638  1.00  0.00     0.020 A 
BRANCH  18  23
HETATM   23  O   UNL     1      42.609 -11.753   7.718  1.00  0.00    -0.360 OA
HETATM   24  H   UNL     1      42.169 -10.874   7.663  1.00  0.00     0.217 HD
ENDBRANCH  18  23
ENDBRANCH  14  17
ENDBRANCH  12  13
ENDBRANCH   6  11
BRANCH   1  25
HETATM   25  C   UNL     1      41.633 -15.265   2.911  1.00  0.00    -0.009 A 
HETATM   26  C   UNL     1      42.263 -14.094   2.472  1.00  0.00     0.014 A 
HETATM   27  C   UNL     1      41.507 -13.031   1.972  1.00  0.00     0.001 A 
HETATM   28  C   UNL     1      40.118 -13.132   1.908  1.00  0.00     0.000 A 
HETATM   29  C   UNL     1      39.482 -14.294   2.346  1.00  0.00     0.001 A 
HETATM   30  C   UNL     1      40.237 -15.356   2.847  1.00  0.00     0.014 A 
ENDBRANCH   1  25
TORSDOF 5
ENDMDL
MODEL 4
REMARK VINA RESULT:      -8.7      1.209      4.648
REMARK  5 active torsions:
REMARK  status: ('A' for Active; 'I' for Inactive)
REMARK    1  A    between atoms: C_4  and  C_5 
REMARK    2  A    between atoms: C_10  and  C_11 
REMARK    3  A    between atoms: N_12  and  N_13 
REMARK       I    between atoms: N_13  and  C_14 
REMARK    4  A    between atoms: C_14  and  C_15 
REMARK    5  A    between atoms: C_16  and  O_17 
ROOT
HETATM    1  C   UNL     1      43.743 -18.115   4.150  1.00  0.00     0.055 A 
HETATM    2  N   UNL     1      44.311 -17.839   5.373  1.00  0.00    -0.354 N 
HETATM    3  H   UNL     1      44.858 -18.495   5.911  1.00  0.00     0.166 HD
HETATM    4  C   UNL     1      44.061 -16.545   5.753  1.00  0.00     0.043 A 
HETATM    5  C   UNL     1      43.304 -15.960   4.737  1.00  0.00     0.005 A 
HETATM    6  C   UNL     1      43.096 -16.958   3.726  1.00  0.00     0.023 A 
HETATM    7  C   UNL     1      44.449 -15.857   6.909  1.00  0.00     0.030 A 
HETATM    8  C   UNL     1      44.048 -14.524   7.036  1.00  0.00     0.002 A 
HETATM    9  C   UNL     1      43.292 -13.908   6.044  1.00  0.00     0.001 A 
HETATM   10  C   UNL     1      42.914 -14.611   4.894  1.00  0.00     0.014 A 
ENDROOT
BRANCH   6  11
HETATM   11  C   UNL     1      42.349 -16.848   2.486  1.00  0.00     0.153 C 
HETATM   12  N   UNL     1      42.837 -16.180   1.492  1.00  0.00    -0.183 NA
BRANCH  12  13
HETATM   13  N   UNL     1      42.066 -16.129   0.366  1.00  0.00    -0.243 N 
HETATM   14  C   UNL     1      41.511 -14.919  -0.021  1.00  0.00     0.274 C 
HETATM   15  O   UNL     1      41.682 -13.842   0.549  1.00  0.00    -0.266 OA
HETATM   16  H   UNL     1      42.013 -16.946  -0.229  1.00  0.00     0.192 HD
BRANCH  14  17
HETATM   17  C   UNL     1      40.696 -14.934  -1.266  1.00  0.00     0.066 A 
HETATM   18  C   UNL     1      39.576 -14.092  -1.363  1.00  0.00     0.081 A 
HETATM   19  C   UNL     1      38.808 -14.063  -2.525  1.00  0.00     0.037 A 
HETATM   20  C   UNL     1      39.134 -14.894  -3.595  1.00  0.00     0.003 A 
HETATM   21  C   UNL     1      40.224 -15.759  -3.501  1.00  0.00     0.001 A 
HETATM   22  C   UNL     1      41.002 -15.784  -2.338  1.00  0.00     0.020 A 
BRANCH  18  23
HETATM   23  O   UNL     1      39.173 -13.261  -0.350  1.00  0.00    -0.360 OA
HETATM   24  H   UNL     1      39.237 -13.764   0.494  1.00  0.00     0.217 HD
ENDBRANCH  18  23
ENDBRANCH  14  17
ENDBRANCH  12  13
ENDBRANCH   6  11
BRANCH   1  25
HETATM   25  C   UNL     1      43.899 -19.425   3.523  1.00  0.00    -0.009 A 
HETATM   26  C   UNL     1      43.338 -19.680   2.265  1.00  0.00     0.014 A 
HETATM   27  C   UNL     1      43.483 -20.935   1.669  1.00  0.00     0.001 A 
HETATM   28  C   UNL     1      44.191 -21.941   2.325  1.00  0.00     0.000 A 
HETATM   29  C   UNL     1      44.751 -21.696   3.578  1.00  0.00     0.001 A 
HETATM   30  C   UNL     1      44.604 -20.444   4.176  1.00  0.00     0.014 A 
ENDBRANCH   1  25
TORSDOF 5
ENDMDL
MODEL 5
REMARK VINA RESULT:      -8.2      2.772      3.481
REMARK  5 active torsions:
REMARK  status: ('A' for Active; 'I' for Inactive)
REMARK    1  A    between atoms: C_4  and  C_5 
REMARK    2  A    between atoms: C_10  and  C_11 
REMARK    3  A    between atoms: N_12  and  N_13 
REMARK       I    between atoms: N_13  and  C_14 
REMARK    4  A    between atoms: C_14  and  C_15 
REMARK    5  A    between atoms: C_16  and  O_17 
ROOT
HETATM    1  C   UNL     1      43.822 -18.595   4.851  1.00  0.00     0.055 A 
HETATM    2  N   UNL     1      44.603 -19.726   4.934  1.00  0.00    -0.354 N 
HETATM    3  H   UNL     1      45.201 -19.953   5.714  1.00  0.00     0.166 HD
HETATM    4  C   UNL     1      44.440 -20.521   3.827  1.00  0.00     0.043 A 
HETATM    5  C   UNL     1      43.518 -19.881   2.998  1.00  0.00     0.005 A 
HETATM    6  C   UNL     1      43.133 -18.659   3.644  1.00  0.00     0.023 A 
HETATM    7  C   UNL     1      45.034 -21.748   3.506  1.00  0.00     0.030 A 
HETATM    8  C   UNL     1      44.676 -22.344   2.294  1.00  0.00     0.002 A 
HETATM    9  C   UNL     1      43.762 -21.735   1.441  1.00  0.00     0.001 A 
HETATM   10  C   UNL     1      43.177 -20.509   1.779  1.00  0.00     0.014 A 
ENDROOT
BRANCH   6  11
HETATM   11  C   UNL     1      42.220 -17.634   3.171  1.00  0.00     0.153 C 
HETATM   12  N   UNL     1      41.216 -17.272   3.902  1.00  0.00    -0.183 NA
BRANCH  12  13
HETATM   13  N   UNL     1      40.410 -16.303   3.379  1.00  0.00    -0.243 N 
HETATM   14  C   UNL     1      40.763 -14.971   3.534  1.00  0.00     0.274 C 
HETATM   15  O   UNL     1      41.787 -14.565   4.082  1.00  0.00    -0.266 OA
HETATM   16  H   UNL     1      39.635 -16.575   2.786  1.00  0.00     0.192 HD
BRANCH  14  17
HETATM   17  C   UNL     1      39.846 -13.969   2.925  1.00  0.00     0.066 A 
HETATM   18  C   UNL     1      39.304 -14.216   1.654  1.00  0.00     0.081 A 
HETATM   19  C   UNL     1      38.423 -13.309   1.069  1.00  0.00     0.037 A 
HETATM   20  C   UNL     1      38.091 -12.132   1.737  1.00  0.00     0.003 A 
HETATM   21  C   UNL     1      38.647 -11.858   2.986  1.00  0.00     0.001 A 
HETATM   22  C   UNL     1      39.526 -12.770   3.580  1.00  0.00     0.020 A 
BRANCH  18  23
HETATM   23  O   UNL     1      39.596 -15.336   0.920  1.00  0.00    -0.360 OA
HETATM   24  H   UNL     1      39.522 -16.115   1.519  1.00  0.00     0.217 HD
ENDBRANCH  18  23
ENDBRANCH  14  17
ENDBRANCH  12  13
ENDBRANCH   6  11
BRANCH   1  25
HETATM   25  C   UNL     1      43.804 -17.609   5.929  1.00  0.00    -0.009 A 
HETATM   26  C   UNL     1      44.284 -16.312   5.710  1.00  0.00     0.014 A 
HETATM   27  C   UNL     1      44.271 -15.372   6.743  1.00  0.00     0.001 A 
HETATM   28  C   UNL     1      43.779 -15.722   7.999  1.00  0.00     0.000 A 
HETATM   29  C   UNL     1      43.301 -17.012   8.226  1.00  0.00     0.001 A 
HETATM   30  C   UNL     1      43.315 -17.953   7.195  1.00  0.00     0.014 A 
ENDBRANCH   1  25
TORSDOF 5
ENDMDL
MODEL 6
REMARK VINA RESULT:      -8.2      2.813      7.894
REMARK  5 active torsions:
REMARK  status: ('A' for Active; 'I' for Inactive)
REMARK    1  A    between atoms: C_4  and  C_5 
REMARK    2  A    between atoms: C_10  and  C_11 
REMARK    3  A    between atoms: N_12  and  N_13 
REMARK       I    between atoms: N_13  and  C_14 
REMARK    4  A    between atoms: C_14  and  C_15 
REMARK    5  A    between atoms: C_16  and  O_17 
ROOT
HETATM    1  C   UNL     1      39.970 -14.047   1.626  1.00  0.00     0.055 A 
HETATM    2  N   UNL     1      39.529 -12.795   1.990  1.00  0.00    -0.354 N 
HETATM    3  H   UNL     1      39.268 -12.069   1.340  1.00  0.00     0.166 HD
HETATM    4  C   UNL     1      39.463 -12.672   3.355  1.00  0.00     0.043 A 
HETATM    5  C   UNL     1      39.875 -13.890   3.896  1.00  0.00     0.005 A 
HETATM    6  C   UNL     1      40.203 -14.758   2.800  1.00  0.00     0.023 A 
HETATM    7  C   UNL     1      39.069 -11.582   4.141  1.00  0.00     0.030 A 
HETATM    8  C   UNL     1      39.098 -11.739   5.529  1.00  0.00     0.002 A 
HETATM    9  C   UNL     1      39.505 -12.939   6.104  1.00  0.00     0.001 A 
HETATM   10  C   UNL     1      39.894 -14.018   5.302  1.00  0.00     0.014 A 
ENDROOT
BRANCH   6  11
HETATM   11  C   UNL     1      40.705 -16.119   2.843  1.00  0.00     0.153 C 
HETATM   12  N   UNL     1      41.821 -16.381   3.444  1.00  0.00    -0.183 NA
BRANCH  12  13
HETATM   13  N   UNL     1      42.217 -17.687   3.435  1.00  0.00    -0.243 N 
HETATM   14  C   UNL     1      43.376 -18.039   2.760  1.00  0.00     0.274 C 
HETATM   15  O   UNL     1      44.129 -17.256   2.181  1.00  0.00    -0.266 OA
HETATM   16  H   UNL     1      41.726 -18.354   4.017  1.00  0.00     0.192 HD
BRANCH  14  17
HETATM   17  C   UNL     1      43.756 -19.477   2.804  1.00  0.00     0.066 A 
HETATM   18  C   UNL     1      44.428 -19.976   3.932  1.00  0.00     0.081 A 
HETATM   19  C   UNL     1      44.774 -21.323   4.014  1.00  0.00     0.037 A 
HETATM   20  C   UNL     1      44.475 -22.184   2.960  1.00  0.00     0.003 A 
HETATM   21  C   UNL     1      43.837 -21.696   1.820  1.00  0.00     0.001 A 
HETATM   22  C   UNL     1      43.481 -20.346   1.738  1.00  0.00     0.020 A 
BRANCH  18  23
HETATM   23  O   UNL     1      44.779 -19.194   5.001  1.00  0.00    -0.360 OA
HETATM   24  H   UNL     1      44.350 -18.315   4.884  1.00  0.00     0.217 HD
ENDBRANCH  18  23
ENDBRANCH  14  17
ENDBRANCH  12  13
ENDBRANCH   6  11
BRANCH   1  25
HETATM   25  C   UNL     1      40.095 -14.426   0.221  1.00  0.00    -0.009 A 
HETATM   26  C   UNL     1      39.194 -13.929  -0.729  1.00  0.00     0.014 A 
HETATM   27  C   UNL     1      39.310 -14.296  -2.072  1.00  0.00     0.001 A 
HETATM   28  C   UNL     1      40.328 -15.161  -2.473  1.00  0.00     0.000 A 
HETATM   29  C   UNL     1      41.228 -15.662  -1.532  1.00  0.00     0.001 A 
HETATM   30  C   UNL     1      41.111 -15.297  -0.190  1.00  0.00     0.014 A 
ENDBRANCH   1  25
TORSDOF 5
ENDMDL
MODEL 7
REMARK VINA RESULT:      -7.6      2.257      3.236
REMARK  5 active torsions:
REMARK  status: ('A' for Active; 'I' for Inactive)
REMARK    1  A    between atoms: C_4  and  C_5 
REMARK    2  A    between atoms: C_10  and  C_11 
REMARK    3  A    between atoms: N_12  and  N_13 
REMARK       I    between atoms: N_13  and  C_14 
REMARK    4  A    between atoms: C_14  and  C_15 
REMARK    5  A    between atoms: C_16  and  O_17 
ROOT
HETATM    1  C   UNL     1      42.108 -15.352   5.628  1.00  0.00     0.055 A 
HETATM    2  N   UNL     1      42.259 -16.058   6.800  1.00  0.00    -0.354 N 
HETATM    3  H   UNL     1      41.905 -15.761   7.697  1.00  0.00     0.166 HD
HETATM    4  C   UNL     1      42.928 -17.237   6.584  1.00  0.00     0.043 A 
HETATM    5  C   UNL     1      43.220 -17.297   5.221  1.00  0.00     0.005 A 
HETATM    6  C   UNL     1      42.707 -16.099   4.618  1.00  0.00     0.023 A 
HETATM    7  C   UNL     1      43.289 -18.244   7.488  1.00  0.00     0.030 A 
HETATM    8  C   UNL     1      43.975 -19.352   6.984  1.00  0.00     0.002 A 
HETATM    9  C   UNL     1      44.285 -19.446   5.631  1.00  0.00     0.001 A 
HETATM   10  C   UNL     1      43.914 -18.430   4.742  1.00  0.00     0.014 A 
ENDROOT
BRANCH   6  11
HETATM   11  C   UNL     1      42.783 -15.681   3.230  1.00  0.00     0.153 C 
HETATM   12  N   UNL     1      41.779 -15.874   2.438  1.00  0.00    -0.183 NA
BRANCH  12  13
HETATM   13  N   UNL     1      41.939 -15.450   1.150  1.00  0.00    -0.243 N 
HETATM   14  C   UNL     1      41.311 -14.285   0.738  1.00  0.00     0.274 C 
HETATM   15  O   UNL     1      40.632 -13.550   1.455  1.00  0.00    -0.266 OA
HETATM   16  H   UNL     1      42.606 -15.926   0.555  1.00  0.00     0.192 HD
BRANCH  14  17
HETATM   17  C   UNL     1      41.540 -13.873  -0.673  1.00  0.00     0.066 A 
HETATM   18  C   UNL     1      41.162 -14.740  -1.712  1.00  0.00     0.081 A 
HETATM   19  C   UNL     1      41.340 -14.373  -3.044  1.00  0.00     0.037 A 
HETATM   20  C   UNL     1      41.920 -13.145  -3.355  1.00  0.00     0.003 A 
HETATM   21  C   UNL     1      42.329 -12.287  -2.335  1.00  0.00     0.001 A 
HETATM   22  C   UNL     1      42.145 -12.650  -0.996  1.00  0.00     0.020 A 
BRANCH  18  23
HETATM   23  O   UNL     1      40.606 -15.974  -1.492  1.00  0.00    -0.360 OA
HETATM   24  H   UNL     1      39.636 -15.850  -1.380  1.00  0.00     0.217 HD
ENDBRANCH  18  23
ENDBRANCH  14  17
ENDBRANCH  12  13
ENDBRANCH   6  11
BRANCH   1  25
HETATM   25  C   UNL     1      41.399 -14.076   5.601  1.00  0.00    -0.009 A 
HETATM   26  C   UNL     1      42.109 -12.870   5.640  1.00  0.00     0.014 A 
HETATM   27  C   UNL     1      41.430 -11.649   5.620  1.00  0.00     0.001 A 
HETATM   28  C   UNL     1      40.037 -11.627   5.559  1.00  0.00     0.000 A 
HETATM   29  C   UNL     1      39.322 -12.824   5.523  1.00  0.00     0.001 A 
HETATM   30  C   UNL     1      40.000 -14.044   5.545  1.00  0.00     0.014 A 
ENDBRANCH   1  25
TORSDOF 5
ENDMDL
MODEL 8
REMARK VINA RESULT:      -7.6      4.282      8.288
REMARK  5 active torsions:
REMARK  status: ('A' for Active; 'I' for Inactive)
REMARK    1  A    between atoms: C_4  and  C_5 
REMARK    2  A    between atoms: C_10  and  C_11 
REMARK    3  A    between atoms: N_12  and  N_13 
REMARK       I    between atoms: N_13  and  C_14 
REMARK    4  A    between atoms: C_14  and  C_15 
REMARK    5  A    between atoms: C_16  and  O_17 
ROOT
HETATM    1  C   UNL     1      42.464 -12.309   6.843  1.00  0.00     0.055 A 
HETATM    2  N   UNL     1      42.380 -11.271   7.742  1.00  0.00    -0.354 N 
HETATM    3  H   UNL     1      41.664 -10.559   7.730  1.00  0.00     0.166 HD
HETATM    4  C   UNL     1      43.380 -11.346   8.679  1.00  0.00     0.043 A 
HETATM    5  C   UNL     1      44.140 -12.476   8.375  1.00  0.00     0.005 A 
HETATM    6  C   UNL     1      43.563 -13.081   7.207  1.00  0.00     0.023 A 
HETATM    7  C   UNL     1      43.661 -10.505   9.763  1.00  0.00     0.030 A 
HETATM    8  C   UNL     1      44.759 -10.827  10.566  1.00  0.00     0.002 A 
HETATM    9  C   UNL     1      45.540 -11.945  10.292  1.00  0.00     0.001 A 
HETATM   10  C   UNL     1      45.243 -12.775   9.205  1.00  0.00     0.014 A 
ENDROOT
BRANCH   6  11
HETATM   11  C   UNL     1      44.007 -14.260   6.487  1.00  0.00     0.153 C 
HETATM   12  N   UNL     1      43.478 -15.412   6.740  1.00  0.00    -0.183 NA
BRANCH  12  13
HETATM   13  N   UNL     1      43.955 -16.466   6.016  1.00  0.00    -0.243 N 
HETATM   14  C   UNL     1      43.109 -17.123   5.136  1.00  0.00     0.274 C 
HETATM   15  O   UNL     1      41.940 -16.813   4.908  1.00  0.00    -0.266 OA
HETATM   16  H   UNL     1      44.946 -16.674   6.045  1.00  0.00     0.192 HD
BRANCH  14  17
HETATM   17  C   UNL     1      43.700 -18.252   4.368  1.00  0.00     0.066 A 
HETATM   18  C   UNL     1      44.453 -19.224   5.046  1.00  0.00     0.081 A 
HETATM   19  C   UNL     1      44.997 -20.307   4.359  1.00  0.00     0.037 A 
HETATM   20  C   UNL     1      44.816 -20.420   2.982  1.00  0.00     0.003 A 
HETATM   21  C   UNL     1      44.098 -19.446   2.291  1.00  0.00     0.001 A 
HETATM   22  C   UNL     1      43.543 -18.361   2.978  1.00  0.00     0.020 A 
BRANCH  18  23
HETATM   23  O   UNL     1      44.698 -19.176   6.394  1.00  0.00    -0.360 OA
HETATM   24  H   UNL     1      43.985 -19.683   6.846  1.00  0.00     0.217 HD
ENDBRANCH  18  23
ENDBRANCH  14  17
ENDBRANCH  12  13
ENDBRANCH   6  11
BRANCH   1  25
HETATM   25  C   UNL     1      41.487 -12.458   5.767  1.00  0.00    -0.009 A 
HETATM   26  C   UNL     1      40.527 -13.476   5.818  1.00  0.00     0.014 A 
HETATM   27  C   UNL     1      39.596 -13.621   4.787  1.00  0.00     0.001 A 
HETATM   28  C   UNL     1      39.619 -12.749   3.699  1.00  0.00     0.000 A 
HETATM   29  C   UNL     1      40.574 -11.734   3.639  1.00  0.00     0.001 A 
HETATM   30  C   UNL     1      41.505 -11.589   4.669  1.00  0.00     0.014 A 
ENDBRANCH   1  25
TORSDOF 5
ENDMDL
MODEL 9
REMARK VINA RESULT:      -7.6      2.417      3.058
REMARK  5 active torsions:
REMARK  status: ('A' for Active; 'I' for Inactive)
REMARK    1  A    between atoms: C_4  and  C_5 
REMARK    2  A    between atoms: C_10  and  C_11 
REMARK    3  A    between atoms: N_12  and  N_13 
REMARK       I    between atoms: N_13  and  C_14 
REMARK    4  A    between atoms: C_14  and  C_15 
REMARK    5  A    between atoms: C_16  and  O_17 
ROOT
HETATM    1  C   UNL     1      42.152 -15.258   4.570  1.00  0.00     0.055 A 
HETATM    2  N   UNL     1      42.378 -16.444   5.230  1.00  0.00    -0.354 N 
HETATM    3  H   UNL     1      42.120 -16.625   6.189  1.00  0.00     0.166 HD
HETATM    4  C   UNL     1      42.976 -17.363   4.404  1.00  0.00     0.043 A 
HETATM    5  C   UNL     1      43.141 -16.749   3.162  1.00  0.00     0.005 A 
HETATM    6  C   UNL     1      42.625 -15.414   3.270  1.00  0.00     0.023 A 
HETATM    7  C   UNL     1      43.374 -18.680   4.665  1.00  0.00     0.030 A 
HETATM    8  C   UNL     1      43.966 -19.397   3.621  1.00  0.00     0.002 A 
HETATM    9  C   UNL     1      44.148 -18.817   2.369  1.00  0.00     0.001 A 
HETATM   10  C   UNL     1      43.742 -17.500   2.128  1.00  0.00     0.014 A 
ENDROOT
BRANCH   6  11
HETATM   11  C   UNL     1      42.594 -14.372   2.261  1.00  0.00     0.153 C 
HETATM   12  N   UNL     1      41.735 -14.429   1.296  1.00  0.00    -0.183 NA
BRANCH  12  13
HETATM   13  N   UNL     1      41.777 -13.408   0.391  1.00  0.00    -0.243 N 
HETATM   14  C   UNL     1      41.479 -13.666  -0.938  1.00  0.00     0.274 C 
HETATM   15  O   UNL     1      41.132 -14.757  -1.391  1.00  0.00    -0.266 OA
HETATM   16  H   UNL     1      41.906 -12.461   0.726  1.00  0.00     0.192 HD
BRANCH  14  17
HETATM   17  C   UNL     1      41.529 -12.504  -1.865  1.00  0.00     0.066 A 
HETATM   18  C   UNL     1      42.409 -12.535  -2.959  1.00  0.00     0.081 A 
HETATM   19  C   UNL     1      42.461 -11.474  -3.860  1.00  0.00     0.037 A 
HETATM   20  C   UNL     1      41.651 -10.356  -3.666  1.00  0.00     0.003 A 
HETATM   21  C   UNL     1      40.795 -10.297  -2.567  1.00  0.00     0.001 A 
HETATM   22  C   UNL     1      40.735 -11.365  -1.665  1.00  0.00     0.020 A 
BRANCH  18  23
HETATM   23  O   UNL     1      43.255 -13.584  -3.210  1.00  0.00    -0.360 OA
HETATM   24  H   UNL     1      44.178 -13.256  -3.110  1.00  0.00     0.217 HD
ENDBRANCH  18  23
ENDBRANCH  14  17
ENDBRANCH  12  13
ENDBRANCH   6  11
BRANCH   1  25
HETATM   25  C   UNL     1      41.496 -14.136   5.237  1.00  0.00    -0.009 A 
HETATM   26  C   UNL     1      40.108 -14.131   5.417  1.00  0.00     0.014 A 
HETATM   27  C   UNL     1      39.482 -13.054   6.050  1.00  0.00     0.001 A 
HETATM   28  C   UNL     1      40.240 -11.977   6.507  1.00  0.00     0.000 A 
HETATM   29  C   UNL     1      41.623 -11.973   6.329  1.00  0.00     0.001 A 
HETATM   30  C   UNL     1      42.249 -13.048   5.695  1.00  0.00     0.014 A 
ENDBRANCH   1  25
TORSDOF 5
ENDMDL
MODEL 10
REMARK VINA RESULT:      -7.5      2.556      5.642
REMARK  5 active torsions:
REMARK  status: ('A' for Active; 'I' for Inactive)
REMARK    1  A    between atoms: C_4  and  C_5 
REMARK    2  A    between atoms: C_10  and  C_11 
REMARK    3  A    between atoms: N_12  and  N_13 
REMARK       I    between atoms: N_13  and  C_14 
REMARK    4  A    between atoms: C_14  and  C_15 
REMARK    5  A    between atoms: C_16  and  O_17 
ROOT
HETATM    1  C   UNL     1      41.154 -14.851   4.736  1.00  0.00     0.055 A 
HETATM    2  N   UNL     1      41.298 -14.082   5.868  1.00  0.00    -0.354 N 
HETATM    3  H   UNL     1      41.879 -14.327   6.656  1.00  0.00     0.166 HD
HETATM    4  C   UNL     1      40.570 -12.923   5.774  1.00  0.00     0.043 A 
HETATM    5  C   UNL     1      39.931 -12.941   4.534  1.00  0.00     0.005 A 
HETATM    6  C   UNL     1      40.296 -14.166   3.880  1.00  0.00     0.023 A 
HETATM    7  C   UNL     1      40.435 -11.870   6.688  1.00  0.00     0.030 A 
HETATM    8  C   UNL     1      39.617 -10.797   6.325  1.00  0.00     0.002 A 
HETATM    9  C   UNL     1      38.963 -10.781   5.097  1.00  0.00     0.001 A 
HETATM   10  C   UNL     1      39.111 -11.842   4.196  1.00  0.00     0.014 A 
ENDROOT
BRANCH   6  11
HETATM   11  C   UNL     1      39.870 -14.661   2.585  1.00  0.00     0.153 C 
HETATM   12  N   UNL     1      40.410 -14.200   1.504  1.00  0.00    -0.183 NA
BRANCH  12  13
HETATM   13  N   UNL     1      39.948 -14.722   0.330  1.00  0.00    -0.243 N 
HETATM   14  C   UNL     1      39.732 -13.879  -0.749  1.00  0.00     0.274 C 
HETATM   15  O   UNL     1      39.961 -12.669  -0.764  1.00  0.00    -0.266 OA
HETATM   16  H   UNL     1      39.885 -15.728   0.231  1.00  0.00     0.192 HD
BRANCH  14  17
HETATM   17  C   UNL     1      39.243 -14.517  -2.001  1.00  0.00     0.066 A 
HETATM   18  C   UNL     1      40.103 -15.359  -2.724  1.00  0.00     0.081 A 
HETATM   19  C   UNL     1      39.666 -15.992  -3.885  1.00  0.00     0.037 A 
HETATM   20  C   UNL     1      38.372 -15.773  -4.353  1.00  0.00     0.003 A 
HETATM   21  C   UNL     1      37.517 -14.914  -3.662  1.00  0.00     0.001 A 
HETATM   22  C   UNL     1      37.950 -14.284  -2.491  1.00  0.00     0.020 A 
BRANCH  18  23
HETATM   23  O   UNL     1      41.397 -15.610  -2.347  1.00  0.00    -0.360 OA
HETATM   24  H   UNL     1      41.381 -16.343  -1.689  1.00  0.00     0.217 HD
ENDBRANCH  18  23
ENDBRANCH  14  17
ENDBRANCH  12  13
ENDBRANCH   6  11
BRANCH   1  25
HETATM   25  C   UNL     1      41.860 -16.122   4.590  1.00  0.00    -0.009 A 
HETATM   26  C   UNL     1      42.963 -16.225   3.735  1.00  0.00     0.014 A 
HETATM   27  C   UNL     1      43.633 -17.442   3.592  1.00  0.00     0.001 A 
HETATM   28  C   UNL     1      43.206 -18.562   4.304  1.00  0.00     0.000 A 
HETATM   29  C   UNL     1      42.106 -18.468   5.157  1.00  0.00     0.001 A 
HETATM   30  C   UNL     1      41.434 -17.253   5.299  1.00  0.00     0.014 A 
ENDBRANCH   1  25
TORSDOF 5
ENDMDL
