MODEL 1
REMARK VINA RESULT:      -8.4      0.000      0.000
REMARK  5 active torsions:
REMARK  status: ('A' for Active; 'I' for Inactive)
REMARK    1  A    between atoms: C_2  and  N_3 
REMARK    2  A    between atoms: C_2  and  C_19 
REMARK       I    between atoms: N_3  and  C_4 
REMARK    3  A    between atoms: C_4  and  C_5 
REMARK    4  A    between atoms: C_7  and  O_8 
REMARK    5  A    between atoms: O_8  and  C_9 
ROOT
HETATM    1  C   UNL     1      44.081 -15.923   7.017  1.00  0.00     0.146 A 
HETATM    2  O   UNL     1      44.824 -16.797   6.265  1.00  0.00    -0.282 OA
HETATM    3  C   UNL     1      44.312 -18.044   6.444  1.00  0.00     0.191 A 
HETATM    4  C   UNL     1      43.243 -17.994   7.311  1.00  0.00     0.067 A 
HETATM    5  C   UNL     1      43.093 -16.633   7.679  1.00  0.00     0.048 A 
ENDROOT
BRANCH   1   6
HETATM    6  C   UNL     1      44.454 -14.518   6.984  1.00  0.00     0.276 C 
HETATM    7  N   UNL     1      44.483 -13.894   8.219  1.00  0.00    -0.347 N 
HETATM    8  H   UNL     1      44.109 -14.379   9.018  1.00  0.00     0.163 HD
HETATM    9  O   UNL     1      44.729 -13.910   5.953  1.00  0.00    -0.265 OA
BRANCH   7  10
HETATM   10  C   UNL     1      44.719 -12.467   8.350  1.00  0.00     0.114 C 
HETATM   11  C   UNL     1      46.221 -12.187   8.432  1.00  0.00     0.037 C 
BRANCH  10  12
HETATM   12  C   UNL     1      43.947 -11.930   9.540  1.00  0.00    -0.033 A 
HETATM   13  C   UNL     1      44.274 -12.365  10.831  1.00  0.00     0.028 A 
HETATM   14  C   UNL     1      43.572 -11.855  11.910  1.00  0.00     0.116 A 
HETATM   15  N   UNL     1      42.582 -10.944  11.799  1.00  0.00    -0.273 NA
HETATM   16  C   UNL     1      42.290 -10.520  10.552  1.00  0.00     0.116 A 
HETATM   17  C   UNL     1      42.935 -10.972   9.410  1.00  0.00     0.028 A 
ENDBRANCH  10  12
ENDBRANCH   7  10
ENDBRANCH   1   6
BRANCH   3  18
HETATM   18  O   UNL     1      44.956 -18.989   5.763  1.00  0.00    -0.286 OA
BRANCH  18  19
HETATM   19  C   UNL     1      44.493 -19.347   4.520  1.00  0.00     0.100 A 
HETATM   20  C   UNL     1      44.595 -20.671   4.082  1.00  0.00     0.068 A 
HETATM   21 CL   UNL     1      45.239 -21.910   5.094  1.00  0.00    -0.081 Cl
HETATM   22  C   UNL     1      44.160 -21.012   2.799  1.00  0.00     0.026 A 
HETATM   23  C   UNL     1      43.635 -20.031   1.955  1.00  0.00     0.002 A 
HETATM   24  C   UNL     1      43.550 -18.707   2.388  1.00  0.00     0.003 A 
HETATM   25  C   UNL     1      43.986 -18.362   3.668  1.00  0.00     0.039 A 
ENDBRANCH  18  19
ENDBRANCH   3  18
TORSDOF 5
ENDMDL
MODEL 2
REMARK VINA RESULT:      -8.4      5.955      8.429
REMARK  5 active torsions:
REMARK  status: ('A' for Active; 'I' for Inactive)
REMARK    1  A    between atoms: C_2  and  N_3 
REMARK    2  A    between atoms: C_2  and  C_19 
REMARK       I    between atoms: N_3  and  C_4 
REMARK    3  A    between atoms: C_4  and  C_5 
REMARK    4  A    between atoms: C_7  and  O_8 
REMARK    5  A    between atoms: O_8  and  C_9 
ROOT
HETATM    1  C   UNL     1      41.218 -16.046   2.968  1.00  0.00     0.146 A 
HETATM    2  O   UNL     1      42.378 -16.544   2.433  1.00  0.00    -0.282 OA
HETATM    3  C   UNL     1      42.785 -17.585   3.206  1.00  0.00     0.191 A 
HETATM    4  C   UNL     1      41.903 -17.770   4.248  1.00  0.00     0.067 A 
HETATM    5  C   UNL     1      40.896 -16.784   4.096  1.00  0.00     0.048 A 
ENDROOT
BRANCH   1   6
HETATM    6  C   UNL     1      40.598 -14.913   2.302  1.00  0.00     0.276 C 
HETATM    7  N   UNL     1      39.954 -15.216   1.114  1.00  0.00    -0.347 N 
HETATM    8  H   UNL     1      40.080 -16.132   0.713  1.00  0.00     0.163 HD
HETATM    9  O   UNL     1      40.627 -13.765   2.739  1.00  0.00    -0.265 OA
BRANCH   7  10
HETATM   10  C   UNL     1      39.388 -14.183   0.265  1.00  0.00     0.114 C 
HETATM   11  C   UNL     1      37.889 -14.042   0.537  1.00  0.00     0.037 C 
BRANCH  10  12
HETATM   12  C   UNL     1      39.704 -14.487  -1.187  1.00  0.00    -0.033 A 
HETATM   13  C   UNL     1      40.856 -15.218  -1.506  1.00  0.00     0.028 A 
HETATM   14  C   UNL     1      41.125 -15.502  -2.835  1.00  0.00     0.116 A 
HETATM   15  N   UNL     1      40.332 -15.122  -3.859  1.00  0.00    -0.273 NA
HETATM   16  C   UNL     1      39.218 -14.434  -3.536  1.00  0.00     0.116 A 
HETATM   17  C   UNL     1      38.863 -14.102  -2.237  1.00  0.00     0.028 A 
ENDBRANCH  10  12
ENDBRANCH   7  10
ENDBRANCH   1   6
BRANCH   3  18
HETATM   18  O   UNL     1      43.913 -18.154   2.787  1.00  0.00    -0.286 OA
BRANCH  18  19
HETATM   19  C   UNL     1      44.051 -19.516   2.892  1.00  0.00     0.100 A 
HETATM   20  C   UNL     1      44.628 -20.083   4.031  1.00  0.00     0.068 A 
HETATM   21 CL   UNL     1      45.127 -19.116   5.369  1.00  0.00    -0.081 Cl
HETATM   22  C   UNL     1      44.802 -21.468   4.105  1.00  0.00     0.026 A 
HETATM   23  C   UNL     1      44.410 -22.280   3.038  1.00  0.00     0.002 A 
HETATM   24  C   UNL     1      43.849 -21.710   1.894  1.00  0.00     0.003 A 
HETATM   25  C   UNL     1      43.677 -20.327   1.816  1.00  0.00     0.039 A 
ENDBRANCH  18  19
ENDBRANCH   3  18
TORSDOF 5
ENDMDL
MODEL 3
REMARK VINA RESULT:      -8.2      2.068      2.634
REMARK  5 active torsions:
REMARK  status: ('A' for Active; 'I' for Inactive)
REMARK    1  A    between atoms: C_2  and  N_3 
REMARK    2  A    between atoms: C_2  and  C_19 
REMARK       I    between atoms: N_3  and  C_4 
REMARK    3  A    between atoms: C_4  and  C_5 
REMARK    4  A    between atoms: C_7  and  O_8 
REMARK    5  A    between atoms: O_8  and  C_9 
ROOT
HETATM    1  C   UNL     1      43.546 -15.661   6.766  1.00  0.00     0.146 A 
HETATM    2  O   UNL     1      42.890 -16.045   5.625  1.00  0.00    -0.282 OA
HETATM    3  C   UNL     1      42.443 -17.316   5.805  1.00  0.00     0.191 A 
HETATM    4  C   UNL     1      42.807 -17.770   7.053  1.00  0.00     0.067 A 
HETATM    5  C   UNL     1      43.514 -16.708   7.672  1.00  0.00     0.048 A 
ENDROOT
BRANCH   1   6
HETATM    6  C   UNL     1      44.118 -14.324   6.799  1.00  0.00     0.276 C 
HETATM    7  N   UNL     1      44.291 -13.795   8.066  1.00  0.00    -0.347 N 
HETATM    8  H   UNL     1      43.884 -14.275   8.853  1.00  0.00     0.163 HD
HETATM    9  O   UNL     1      44.434 -13.694   5.793  1.00  0.00    -0.265 OA
BRANCH   7  10
HETATM   10  C   UNL     1      44.737 -12.428   8.271  1.00  0.00     0.114 C 
HETATM   11  C   UNL     1      46.262 -12.385   8.388  1.00  0.00     0.037 C 
BRANCH  10  12
HETATM   12  C   UNL     1      44.029 -11.836   9.474  1.00  0.00    -0.033 A 
HETATM   13  C   UNL     1      43.063 -10.840   9.287  1.00  0.00     0.028 A 
HETATM   14  C   UNL     1      42.412 -10.318  10.393  1.00  0.00     0.116 A 
HETATM   15  N   UNL     1      42.647 -10.720  11.660  1.00  0.00    -0.273 NA
HETATM   16  C   UNL     1      43.567 -11.693  11.824  1.00  0.00     0.116 A 
HETATM   17  C   UNL     1      44.270 -12.276  10.780  1.00  0.00     0.028 A 
ENDBRANCH  10  12
ENDBRANCH   7  10
ENDBRANCH   1   6
BRANCH   3  18
HETATM   18  O   UNL     1      41.788 -17.806   4.756  1.00  0.00    -0.286 OA
BRANCH  18  19
HETATM   19  C   UNL     1      42.396 -17.797   3.525  1.00  0.00     0.100 A 
HETATM   20  C   UNL     1      41.872 -17.028   2.482  1.00  0.00     0.068 A 
HETATM   21 CL   UNL     1      40.492 -16.019   2.709  1.00  0.00    -0.081 Cl
HETATM   22  C   UNL     1      42.477 -17.063   1.223  1.00  0.00     0.026 A 
HETATM   23  C   UNL     1      43.595 -17.871   1.006  1.00  0.00     0.002 A 
HETATM   24  C   UNL     1      44.108 -18.650   2.044  1.00  0.00     0.003 A 
HETATM   25  C   UNL     1      43.504 -18.620   3.302  1.00  0.00     0.039 A 
ENDBRANCH  18  19
ENDBRANCH   3  18
TORSDOF 5
ENDMDL
MODEL 4
REMARK VINA RESULT:      -8.1      6.176      7.713
REMARK  5 active torsions:
REMARK  status: ('A' for Active; 'I' for Inactive)
REMARK    1  A    between atoms: C_2  and  N_3 
REMARK    2  A    between atoms: C_2  and  C_19 
REMARK       I    between atoms: N_3  and  C_4 
REMARK    3  A    between atoms: C_4  and  C_5 
REMARK    4  A    between atoms: C_7  and  O_8 
REMARK    5  A    between atoms: O_8  and  C_9 
ROOT
HETATM    1  C   UNL     1      41.248 -16.538   2.267  1.00  0.00     0.146 A 
HETATM    2  O   UNL     1      42.469 -17.078   1.954  1.00  0.00    -0.282 OA
HETATM    3  C   UNL     1      42.910 -17.773   3.036  1.00  0.00     0.191 A 
HETATM    4  C   UNL     1      41.989 -17.688   4.057  1.00  0.00     0.067 A 
HETATM    5  C   UNL     1      40.921 -16.896   3.565  1.00  0.00     0.048 A 
ENDROOT
BRANCH   1   6
HETATM    6  C   UNL     1      40.581 -15.740   1.250  1.00  0.00     0.276 C 
HETATM    7  N   UNL     1      41.287 -15.596   0.068  1.00  0.00    -0.347 N 
HETATM    8  H   UNL     1      42.246 -15.902   0.033  1.00  0.00     0.163 HD
HETATM    9  O   UNL     1      39.477 -15.225   1.404  1.00  0.00    -0.265 OA
BRANCH   7  10
HETATM   10  C   UNL     1      40.818 -14.733  -1.002  1.00  0.00     0.114 C 
HETATM   11  C   UNL     1      40.914 -15.461  -2.345  1.00  0.00     0.037 C 
BRANCH  10  12
HETATM   12  C   UNL     1      41.588 -13.426  -0.977  1.00  0.00    -0.033 A 
HETATM   13  C   UNL     1      41.601 -12.654   0.191  1.00  0.00     0.028 A 
HETATM   14  C   UNL     1      42.320 -11.470   0.206  1.00  0.00     0.116 A 
HETATM   15  N   UNL     1      43.028 -11.009  -0.847  1.00  0.00    -0.273 NA
HETATM   16  C   UNL     1      43.022 -11.772  -1.959  1.00  0.00     0.116 A 
HETATM   17  C   UNL     1      42.332 -12.971  -2.071  1.00  0.00     0.028 A 
ENDBRANCH  10  12
ENDBRANCH   7  10
ENDBRANCH   1   6
BRANCH   3  18
HETATM   18  O   UNL     1      44.097 -18.345   2.856  1.00  0.00    -0.286 OA
BRANCH  18  19
HETATM   19  C   UNL     1      44.222 -19.699   3.053  1.00  0.00     0.100 A 
HETATM   20  C   UNL     1      44.736 -20.195   4.254  1.00  0.00     0.068 A 
HETATM   21 CL   UNL     1      45.172 -19.146   5.552  1.00  0.00    -0.081 Cl
HETATM   22  C   UNL     1      44.898 -21.573   4.423  1.00  0.00     0.026 A 
HETATM   23  C   UNL     1      44.555 -22.449   3.391  1.00  0.00     0.002 A 
HETATM   24  C   UNL     1      44.057 -21.950   2.186  1.00  0.00     0.003 A 
HETATM   25  C   UNL     1      43.897 -20.575   2.013  1.00  0.00     0.039 A 
ENDBRANCH  18  19
ENDBRANCH   3  18
TORSDOF 5
ENDMDL
MODEL 5
REMARK VINA RESULT:      -7.8      6.574      9.266
REMARK  5 active torsions:
REMARK  status: ('A' for Active; 'I' for Inactive)
REMARK    1  A    between atoms: C_2  and  N_3 
REMARK    2  A    between atoms: C_2  and  C_19 
REMARK       I    between atoms: N_3  and  C_4 
REMARK    3  A    between atoms: C_4  and  C_5 
REMARK    4  A    between atoms: C_7  and  O_8 
REMARK    5  A    between atoms: O_8  and  C_9 
ROOT
HETATM    1  C   UNL     1      41.230 -16.049   1.420  1.00  0.00     0.146 A 
HETATM    2  O   UNL     1      42.525 -16.485   1.542  1.00  0.00    -0.282 OA
HETATM    3  C   UNL     1      42.594 -17.299   2.628  1.00  0.00     0.191 A 
HETATM    4  C   UNL     1      41.355 -17.396   3.222  1.00  0.00     0.067 A 
HETATM    5  C   UNL     1      40.478 -16.596   2.447  1.00  0.00     0.048 A 
ENDROOT
BRANCH   1   6
HETATM    6  C   UNL     1      40.920 -15.153   0.318  1.00  0.00     0.276 C 
HETATM    7  N   UNL     1      41.551 -15.456  -0.876  1.00  0.00    -0.347 N 
HETATM    8  H   UNL     1      42.279 -16.153  -0.877  1.00  0.00     0.163 HD
HETATM    9  O   UNL     1      40.158 -14.194   0.414  1.00  0.00    -0.265 OA
BRANCH   7  10
HETATM   10  C   UNL     1      41.444 -14.594  -2.039  1.00  0.00     0.114 C 
HETATM   11  C   UNL     1      41.567 -13.128  -1.620  1.00  0.00     0.037 C 
BRANCH  10  12
HETATM   12  C   UNL     1      40.156 -14.896  -2.781  1.00  0.00    -0.033 A 
HETATM   13  C   UNL     1      39.133 -13.939  -2.807  1.00  0.00     0.028 A 
HETATM   14  C   UNL     1      37.967 -14.221  -3.501  1.00  0.00     0.116 A 
HETATM   15  N   UNL     1      37.753 -15.372  -4.172  1.00  0.00    -0.273 NA
HETATM   16  C   UNL     1      38.754 -16.276  -4.153  1.00  0.00     0.116 A 
HETATM   17  C   UNL     1      39.956 -16.087  -3.487  1.00  0.00     0.028 A 
ENDBRANCH  10  12
ENDBRANCH   7  10
ENDBRANCH   1   6
BRANCH   3  18
HETATM   18  O   UNL     1      43.811 -17.786   2.856  1.00  0.00    -0.286 OA
BRANCH  18  19
HETATM   19  C   UNL     1      43.983 -19.147   2.924  1.00  0.00     0.100 A 
HETATM   20  C   UNL     1      44.559 -19.731   4.056  1.00  0.00     0.068 A 
HETATM   21 CL   UNL     1      45.014 -18.789   5.427  1.00  0.00    -0.081 Cl
HETATM   22  C   UNL     1      44.767 -21.112   4.093  1.00  0.00     0.026 A 
HETATM   23  C   UNL     1      44.410 -21.903   2.999  1.00  0.00     0.002 A 
HETATM   24  C   UNL     1      43.851 -21.315   1.863  1.00  0.00     0.003 A 
HETATM   25  C   UNL     1      43.644 -19.936   1.821  1.00  0.00     0.039 A 
ENDBRANCH  18  19
ENDBRANCH   3  18
TORSDOF 5
ENDMDL
MODEL 6
REMARK VINA RESULT:      -7.8      6.440      9.130
REMARK  5 active torsions:
REMARK  status: ('A' for Active; 'I' for Inactive)
REMARK    1  A    between atoms: C_2  and  N_3 
REMARK    2  A    between atoms: C_2  and  C_19 
REMARK       I    between atoms: N_3  and  C_4 
REMARK    3  A    between atoms: C_4  and  C_5 
REMARK    4  A    between atoms: C_7  and  O_8 
REMARK    5  A    between atoms: O_8  and  C_9 
ROOT
HETATM    1  C   UNL     1      42.233 -17.136   1.384  1.00  0.00     0.146 A 
HETATM    2  O   UNL     1      42.298 -16.204   0.380  1.00  0.00    -0.282 OA
HETATM    3  C   UNL     1      41.101 -15.564   0.323  1.00  0.00     0.191 A 
HETATM    4  C   UNL     1      40.249 -16.074   1.278  1.00  0.00     0.067 A 
HETATM    5  C   UNL     1      40.975 -17.083   1.960  1.00  0.00     0.048 A 
ENDROOT
BRANCH   1   6
HETATM    6  C   UNL     1      43.412 -17.951   1.626  1.00  0.00     0.276 C 
HETATM    7  N   UNL     1      43.154 -19.218   2.120  1.00  0.00    -0.347 N 
HETATM    8  H   UNL     1      42.219 -19.441   2.420  1.00  0.00     0.163 HD
HETATM    9  O   UNL     1      44.561 -17.568   1.414  1.00  0.00    -0.265 OA
BRANCH   7  10
HETATM   10  C   UNL     1      44.222 -20.114   2.528  1.00  0.00     0.114 C 
HETATM   11  C   UNL     1      44.134 -21.427   1.748  1.00  0.00     0.037 C 
BRANCH  10  12
HETATM   12  C   UNL     1      44.177 -20.309   4.031  1.00  0.00    -0.033 A 
HETATM   13  C   UNL     1      43.746 -19.259   4.852  1.00  0.00     0.028 A 
HETATM   14  C   UNL     1      43.695 -19.456   6.223  1.00  0.00     0.116 A 
HETATM   15  N   UNL     1      44.030 -20.615   6.828  1.00  0.00    -0.273 NA
HETATM   16  C   UNL     1      44.426 -21.623   6.023  1.00  0.00     0.116 A 
HETATM   17  C   UNL     1      44.510 -21.523   4.642  1.00  0.00     0.028 A 
ENDBRANCH  10  12
ENDBRANCH   7  10
ENDBRANCH   1   6
BRANCH   3  18
HETATM   18  O   UNL     1      41.037 -14.630  -0.623  1.00  0.00    -0.286 OA
BRANCH  18  19
HETATM   19  C   UNL     1      40.173 -14.805  -1.676  1.00  0.00     0.100 A 
HETATM   20  C   UNL     1      38.953 -14.123  -1.711  1.00  0.00     0.068 A 
HETATM   21 CL   UNL     1      38.512 -12.997  -0.482  1.00  0.00    -0.081 Cl
HETATM   22  C   UNL     1      38.065 -14.344  -2.767  1.00  0.00     0.026 A 
HETATM   23  C   UNL     1      38.393 -15.251  -3.778  1.00  0.00     0.002 A 
HETATM   24  C   UNL     1      39.604 -15.943  -3.732  1.00  0.00     0.003 A 
HETATM   25  C   UNL     1      40.492 -15.727  -2.677  1.00  0.00     0.039 A 
ENDBRANCH  18  19
ENDBRANCH   3  18
TORSDOF 5
ENDMDL
MODEL 7
REMARK VINA RESULT:      -7.7      5.826      8.722
REMARK  5 active torsions:
REMARK  status: ('A' for Active; 'I' for Inactive)
REMARK    1  A    between atoms: C_2  and  N_3 
REMARK    2  A    between atoms: C_2  and  C_19 
REMARK       I    between atoms: N_3  and  C_4 
REMARK    3  A    between atoms: C_4  and  C_5 
REMARK    4  A    between atoms: C_7  and  O_8 
REMARK    5  A    between atoms: O_8  and  C_9 
ROOT
HETATM    1  C   UNL     1      41.788 -14.434   2.526  1.00  0.00     0.146 A 
HETATM    2  O   UNL     1      41.374 -15.702   2.846  1.00  0.00    -0.282 OA
HETATM    3  C   UNL     1      42.308 -16.254   3.664  1.00  0.00     0.191 A 
HETATM    4  C   UNL     1      43.334 -15.360   3.878  1.00  0.00     0.067 A 
HETATM    5  C   UNL     1      43.001 -14.190   3.149  1.00  0.00     0.048 A 
ENDROOT
BRANCH   1   6
HETATM    6  C   UNL     1      40.937 -13.648   1.647  1.00  0.00     0.276 C 
HETATM    7  N   UNL     1      40.028 -14.382   0.905  1.00  0.00    -0.347 N 
HETATM    8  H   UNL     1      40.107 -15.386   0.896  1.00  0.00     0.163 HD
HETATM    9  O   UNL     1      41.001 -12.424   1.552  1.00  0.00    -0.265 OA
BRANCH   7  10
HETATM   10  C   UNL     1      39.189 -13.765  -0.106  1.00  0.00     0.114 C 
HETATM   11  C   UNL     1      37.716 -13.873   0.294  1.00  0.00     0.037 C 
BRANCH  10  12
HETATM   12  C   UNL     1      39.485 -14.382  -1.460  1.00  0.00    -0.033 A 
HETATM   13  C   UNL     1      38.526 -14.308  -2.478  1.00  0.00     0.028 A 
HETATM   14  C   UNL     1      38.815 -14.862  -3.715  1.00  0.00     0.116 A 
HETATM   15  N   UNL     1      39.983 -15.469  -4.010  1.00  0.00    -0.273 NA
HETATM   16  C   UNL     1      40.904 -15.517  -3.026  1.00  0.00     0.116 A 
HETATM   17  C   UNL     1      40.708 -14.992  -1.757  1.00  0.00     0.028 A 
ENDBRANCH  10  12
ENDBRANCH   7  10
ENDBRANCH   1   6
BRANCH   3  18
HETATM   18  O   UNL     1      42.019 -17.496   4.044  1.00  0.00    -0.286 OA
BRANCH  18  19
HETATM   19  C   UNL     1      42.848 -18.521   3.658  1.00  0.00     0.100 A 
HETATM   20  C   UNL     1      43.784 -19.049   4.552  1.00  0.00     0.068 A 
HETATM   21 CL   UNL     1      43.895 -18.489   6.180  1.00  0.00    -0.081 Cl
HETATM   22  C   UNL     1      44.650 -20.062   4.132  1.00  0.00     0.026 A 
HETATM   23  C   UNL     1      44.586 -20.537   2.820  1.00  0.00     0.002 A 
HETATM   24  C   UNL     1      43.662 -19.997   1.924  1.00  0.00     0.003 A 
HETATM   25  C   UNL     1      42.798 -18.983   2.340  1.00  0.00     0.039 A 
ENDBRANCH  18  19
ENDBRANCH   3  18
TORSDOF 5
ENDMDL
MODEL 8
REMARK VINA RESULT:      -7.7      4.892      6.253
REMARK  5 active torsions:
REMARK  status: ('A' for Active; 'I' for Inactive)
REMARK    1  A    between atoms: C_2  and  N_3 
REMARK    2  A    between atoms: C_2  and  C_19 
REMARK       I    between atoms: N_3  and  C_4 
REMARK    3  A    between atoms: C_4  and  C_5 
REMARK    4  A    between atoms: C_7  and  O_8 
REMARK    5  A    between atoms: O_8  and  C_9 
ROOT
HETATM    1  C   UNL     1      42.172 -16.146   4.511  1.00  0.00     0.146 A 
HETATM    2  O   UNL     1      43.425 -16.676   4.343  1.00  0.00    -0.282 OA
HETATM    3  C   UNL     1      43.385 -17.978   4.730  1.00  0.00     0.191 A 
HETATM    4  C   UNL     1      42.116 -18.304   5.154  1.00  0.00     0.067 A 
HETATM    5  C   UNL     1      41.335 -17.129   5.013  1.00  0.00     0.048 A 
ENDROOT
BRANCH   1   6
HETATM    6  C   UNL     1      41.978 -14.747   4.162  1.00  0.00     0.276 C 
HETATM    7  N   UNL     1      40.662 -14.319   4.180  1.00  0.00    -0.347 N 
HETATM    8  H   UNL     1      39.929 -15.004   4.274  1.00  0.00     0.163 HD
HETATM    9  O   UNL     1      42.896 -13.984   3.872  1.00  0.00    -0.265 OA
BRANCH   7  10
HETATM   10  C   UNL     1      40.284 -12.987   3.742  1.00  0.00     0.114 C 
HETATM   11  C   UNL     1      39.831 -12.149   4.939  1.00  0.00     0.037 C 
BRANCH  10  12
HETATM   12  C   UNL     1      39.234 -13.088   2.652  1.00  0.00    -0.033 A 
HETATM   13  C   UNL     1      38.546 -11.937   2.247  1.00  0.00     0.028 A 
HETATM   14  C   UNL     1      37.600 -12.040   1.239  1.00  0.00     0.116 A 
HETATM   15  N   UNL     1      37.300 -13.194   0.607  1.00  0.00    -0.273 NA
HETATM   16  C   UNL     1      37.984 -14.290   0.995  1.00  0.00     0.116 A 
HETATM   17  C   UNL     1      38.947 -14.288   1.993  1.00  0.00     0.028 A 
ENDBRANCH  10  12
ENDBRANCH   7  10
ENDBRANCH   1   6
BRANCH   3  18
HETATM   18  O   UNL     1      44.553 -18.607   4.616  1.00  0.00    -0.286 OA
BRANCH  18  19
HETATM   19  C   UNL     1      44.573 -19.898   4.149  1.00  0.00     0.100 A 
HETATM   20  C   UNL     1      44.295 -20.169   2.807  1.00  0.00     0.068 A 
HETATM   21 CL   UNL     1      43.982 -18.906   1.675  1.00  0.00    -0.081 Cl
HETATM   22  C   UNL     1      44.276 -21.492   2.356  1.00  0.00     0.026 A 
HETATM   23  C   UNL     1      44.524 -22.538   3.247  1.00  0.00     0.002 A 
HETATM   24  C   UNL     1      44.785 -22.266   4.591  1.00  0.00     0.003 A 
HETATM   25  C   UNL     1      44.801 -20.947   5.045  1.00  0.00     0.039 A 
ENDBRANCH  18  19
ENDBRANCH   3  18
TORSDOF 5
ENDMDL
MODEL 9
REMARK VINA RESULT:      -7.4      4.538      5.411
REMARK  5 active torsions:
REMARK  status: ('A' for Active; 'I' for Inactive)
REMARK    1  A    between atoms: C_2  and  N_3 
REMARK    2  A    between atoms: C_2  and  C_19 
REMARK       I    between atoms: N_3  and  C_4 
REMARK    3  A    between atoms: C_4  and  C_5 
REMARK    4  A    between atoms: C_7  and  O_8 
REMARK    5  A    between atoms: O_8  and  C_9 
ROOT
HETATM    1  C   UNL     1      41.830 -15.798   4.891  1.00  0.00     0.146 A 
HETATM    2  O   UNL     1      42.880 -16.170   4.092  1.00  0.00    -0.282 OA
HETATM    3  C   UNL     1      42.805 -17.513   3.898  1.00  0.00     0.191 A 
HETATM    4  C   UNL     1      41.717 -18.026   4.569  1.00  0.00     0.067 A 
HETATM    5  C   UNL     1      41.088 -16.925   5.206  1.00  0.00     0.048 A 
ENDROOT
BRANCH   1   6
HETATM    6  C   UNL     1      41.710 -14.392   5.238  1.00  0.00     0.276 C 
HETATM    7  N   UNL     1      40.417 -13.897   5.229  1.00  0.00    -0.347 N 
HETATM    8  H   UNL     1      39.681 -14.468   4.847  1.00  0.00     0.163 HD
HETATM    9  O   UNL     1      42.668 -13.676   5.523  1.00  0.00    -0.265 OA
BRANCH   7  10
HETATM   10  C   UNL     1      40.136 -12.487   5.435  1.00  0.00     0.114 C 
HETATM   11  C   UNL     1      39.459 -12.278   6.791  1.00  0.00     0.037 C 
BRANCH  10  12
HETATM   12  C   UNL     1      39.318 -11.956   4.273  1.00  0.00    -0.033 A 
HETATM   13  C   UNL     1      38.653 -10.730   4.399  1.00  0.00     0.028 A 
HETATM   14  C   UNL     1      37.922 -10.248   3.325  1.00  0.00     0.116 A 
HETATM   15  N   UNL     1      37.815 -10.890   2.142  1.00  0.00    -0.273 NA
HETATM   16  C   UNL     1      38.476 -12.060   2.028  1.00  0.00     0.116 A 
HETATM   17  C   UNL     1      39.232 -12.624   3.046  1.00  0.00     0.028 A 
ENDBRANCH  10  12
ENDBRANCH   7  10
ENDBRANCH   1   6
BRANCH   3  18
HETATM   18  O   UNL     1      43.781 -17.999   3.134  1.00  0.00    -0.286 OA
BRANCH  18  19
HETATM   19  C   UNL     1      43.958 -19.359   3.063  1.00  0.00     0.100 A 
HETATM   20  C   UNL     1      44.626 -20.040   4.085  1.00  0.00     0.068 A 
HETATM   21 CL   UNL     1      45.194 -19.224   5.494  1.00  0.00    -0.081 Cl
HETATM   22  C   UNL     1      44.837 -21.417   3.978  1.00  0.00     0.026 A 
HETATM   23  C   UNL     1      44.389 -22.108   2.849  1.00  0.00     0.002 A 
HETATM   24  C   UNL     1      43.737 -21.423   1.822  1.00  0.00     0.003 A 
HETATM   25  C   UNL     1      43.528 -20.047   1.925  1.00  0.00     0.039 A 
ENDBRANCH  18  19
ENDBRANCH   3  18
TORSDOF 5
ENDMDL
MODEL 10
REMARK VINA RESULT:      -7.3      4.829      5.710
REMARK  5 active torsions:
REMARK  status: ('A' for Active; 'I' for Inactive)
REMARK    1  A    between atoms: C_2  and  N_3 
REMARK    2  A    between atoms: C_2  and  C_19 
REMARK       I    between atoms: N_3  and  C_4 
REMARK    3  A    between atoms: C_4  and  C_5 
REMARK    4  A    between atoms: C_7  and  O_8 
REMARK    5  A    between atoms: O_8  and  C_9 
ROOT
HETATM    1  C   UNL     1      41.154 -16.245   3.113  1.00  0.00     0.146 A 
HETATM    2  O   UNL     1      42.297 -16.732   2.533  1.00  0.00    -0.282 OA
HETATM    3  C   UNL     1      42.797 -17.704   3.340  1.00  0.00     0.191 A 
HETATM    4  C   UNL     1      41.993 -17.855   4.448  1.00  0.00     0.067 A 
HETATM    5  C   UNL     1      40.937 -16.920   4.303  1.00  0.00     0.048 A 
ENDROOT
BRANCH   1   6
HETATM    6  C   UNL     1      40.444 -15.182   2.420  1.00  0.00     0.276 C 
HETATM    7  N   UNL     1      41.102 -13.965   2.390  1.00  0.00    -0.347 N 
HETATM    8  H   UNL     1      41.925 -13.843   2.958  1.00  0.00     0.163 HD
HETATM    9  O   UNL     1      39.344 -15.329   1.893  1.00  0.00    -0.265 OA
BRANCH   7  10
HETATM   10  C   UNL     1      40.480 -12.772   1.844  1.00  0.00     0.114 C 
HETATM   11  C   UNL     1      41.493 -11.985   1.011  1.00  0.00     0.037 C 
BRANCH  10  12
HETATM   12  C   UNL     1      39.870 -11.956   2.968  1.00  0.00    -0.033 A 
HETATM   13  C   UNL     1      38.614 -11.362   2.788  1.00  0.00     0.028 A 
HETATM   14  C   UNL     1      38.061 -10.632   3.828  1.00  0.00     0.116 A 
HETATM   15  N   UNL     1      38.659 -10.460   5.025  1.00  0.00    -0.273 NA
HETATM   16  C   UNL     1      39.860 -11.053   5.191  1.00  0.00     0.116 A 
HETATM   17  C   UNL     1      40.494 -11.802   4.210  1.00  0.00     0.028 A 
ENDBRANCH  10  12
ENDBRANCH   7  10
ENDBRANCH   1   6
BRANCH   3  18
HETATM   18  O   UNL     1      43.919 -18.255   2.882  1.00  0.00    -0.286 OA
BRANCH  18  19
HETATM   19  C   UNL     1      44.069 -19.618   2.954  1.00  0.00     0.100 A 
HETATM   20  C   UNL     1      44.661 -20.207   4.075  1.00  0.00     0.068 A 
HETATM   21 CL   UNL     1      45.164 -19.266   5.430  1.00  0.00    -0.081 Cl
HETATM   22  C   UNL     1      44.847 -21.591   4.115  1.00  0.00     0.026 A 
HETATM   23  C   UNL     1      44.452 -22.381   3.033  1.00  0.00     0.002 A 
HETATM   24  C   UNL     1      43.876 -21.790   1.907  1.00  0.00     0.003 A 
HETATM   25  C   UNL     1      43.692 -20.407   1.863  1.00  0.00     0.039 A 
ENDBRANCH  18  19
ENDBRANCH   3  18
TORSDOF 5
ENDMDL
