MODEL 1
REMARK VINA RESULT:      -9.9      0.000      0.000
REMARK  6 active torsions:
REMARK  status: ('A' for Active; 'I' for Inactive)
REMARK    1  A    between atoms: C_6  and  O_7 
REMARK    2  A    between atoms: C_12  and  C_13 
REMARK    3  A    between atoms: C_13  and  C_14 
REMARK       I    between atoms: C_14  and  N_15 
REMARK    4  A    between atoms: N_15  and  C_16 
REMARK    5  A    between atoms: C_16  and  C_17 
REMARK    6  A    between atoms: C_17  and  C_18 
ROOT
HETATM    1  C   UNL     1      43.930 -14.389   6.154  1.00  0.00     0.222 C 
HETATM    2  N   UNL     1      44.429 -14.277   7.436  1.00  0.00    -0.360 N 
HETATM    3  O   UNL     1      44.295 -13.660   5.233  1.00  0.00    -0.273 OA
HETATM    4  H   UNL     1      43.959 -14.796   8.166  1.00  0.00     0.162 HD
ENDROOT
BRANCH   1   5
HETATM    5  C   UNL     1      42.815 -15.416   5.966  1.00  0.00     0.148 C 
BRANCH   5   6
HETATM    6  C   UNL     1      43.041 -16.665   5.138  1.00  0.00     0.033 C 
HETATM    7  C   UNL     1      42.366 -16.562   3.808  1.00  0.00     0.295 C 
HETATM    8  O   UNL     1      42.746 -17.460   2.830  1.00  0.00    -0.274 OA
HETATM    9  O   UNL     1      41.562 -15.671   3.556  1.00  0.00    -0.259 OA
HETATM   10  C   UNL     1      43.399 -18.651   3.175  1.00  0.00     0.093 A 
HETATM   11  C   UNL     1      43.523 -19.591   2.147  1.00  0.00     0.045 A 
HETATM   12  C   UNL     1      43.848 -18.883   4.473  1.00  0.00     0.038 A 
HETATM   13  C   UNL     1      44.086 -20.838   2.411  1.00  0.00    -0.057 A 
HETATM   14  C   UNL     1      44.250 -21.863   1.328  1.00  0.00     0.048 C 
HETATM   15  C   UNL     1      44.471 -21.133   3.722  1.00  0.00     0.044 A 
HETATM   16  C   UNL     1      44.345 -20.171   4.736  1.00  0.00     0.079 A 
HETATM   17  C   UNL     1      43.791 -17.750   5.433  1.00  0.00    -0.034 C 
HETATM   18  C   UNL     1      44.671 -17.847   6.648  1.00  0.00     0.050 C 
BRANCH  16  19
HETATM   19  O   UNL     1      44.689 -20.535   6.011  1.00  0.00    -0.360 OA
HETATM   20  H   UNL     1      45.557 -20.163   6.235  1.00  0.00     0.217 HD
ENDBRANCH  16  19
ENDBRANCH   5   6
ENDBRANCH   1   5
BRANCH   2  21
HETATM   21  C   UNL     1      45.166 -13.079   7.822  1.00  0.00     0.127 C 
BRANCH  21  22
HETATM   22  C   UNL     1      44.774 -12.526   9.187  1.00  0.00     0.060 C 
BRANCH  22  23
HETATM   23  C   UNL     1      43.692 -11.481   9.272  1.00  0.00    -0.029 A 
HETATM   24  C   UNL     1      43.271 -10.608  10.338  1.00  0.00    -0.000 A 
HETATM   25  C   UNL     1      42.210  -9.836   9.851  1.00  0.00     0.043 A 
HETATM   26  C   UNL     1      43.674 -10.382  11.673  1.00  0.00     0.038 A 
HETATM   27  C   UNL     1      41.535  -8.876  10.618  1.00  0.00     0.032 A 
HETATM   28  N   UNL     1      42.002 -10.203   8.545  1.00  0.00    -0.365 N 
HETATM   29  C   UNL     1      41.947  -8.691  11.937  1.00  0.00     0.026 A 
HETATM   30  C   UNL     1      43.002  -9.434  12.455  1.00  0.00     0.035 A 
HETATM   31 CL   UNL     1      43.482  -9.188  14.091  1.00  0.00    -0.084 Cl
HETATM   32  H   UNL     1      41.301  -9.798   7.940  1.00  0.00     0.165 HD
HETATM   33  C   UNL     1      42.877 -11.188   8.190  1.00  0.00     0.096 A 
ENDBRANCH  22  23
ENDBRANCH  21  22
ENDBRANCH   2  21
TORSDOF 6
ENDMDL
MODEL 2
REMARK VINA RESULT:      -9.8      0.905      2.110
REMARK  6 active torsions:
REMARK  status: ('A' for Active; 'I' for Inactive)
REMARK    1  A    between atoms: C_6  and  O_7 
REMARK    2  A    between atoms: C_12  and  C_13 
REMARK    3  A    between atoms: C_13  and  C_14 
REMARK       I    between atoms: C_14  and  N_15 
REMARK    4  A    between atoms: N_15  and  C_16 
REMARK    5  A    between atoms: C_16  and  C_17 
REMARK    6  A    between atoms: C_17  and  C_18 
ROOT
HETATM    1  C   UNL     1      43.960 -14.440   6.456  1.00  0.00     0.222 C 
HETATM    2  N   UNL     1      44.461 -14.189   7.718  1.00  0.00    -0.360 N 
HETATM    3  O   UNL     1      44.201 -13.719   5.490  1.00  0.00    -0.273 OA
HETATM    4  H   UNL     1      44.083 -14.730   8.485  1.00  0.00     0.162 HD
ENDROOT
BRANCH   1   5
HETATM    5  C   UNL     1      43.002 -15.624   6.349  1.00  0.00     0.148 C 
BRANCH   5   6
HETATM    6  C   UNL     1      43.319 -16.802   5.450  1.00  0.00     0.033 C 
HETATM    7  C   UNL     1      44.444 -17.617   6.001  1.00  0.00     0.295 C 
HETATM    8  O   UNL     1      44.628 -18.883   5.481  1.00  0.00    -0.274 OA
HETATM    9  O   UNL     1      45.135 -17.220   6.934  1.00  0.00    -0.259 OA
HETATM   10  C   UNL     1      44.082 -19.225   4.237  1.00  0.00     0.093 A 
HETATM   11  C   UNL     1      44.524 -20.437   3.697  1.00  0.00     0.045 A 
HETATM   12  C   UNL     1      43.194 -18.379   3.577  1.00  0.00     0.038 A 
HETATM   13  C   UNL     1      44.100 -20.826   2.428  1.00  0.00    -0.057 A 
HETATM   14  C   UNL     1      44.540 -22.128   1.826  1.00  0.00     0.048 C 
HETATM   15  C   UNL     1      43.273 -19.961   1.705  1.00  0.00     0.044 A 
HETATM   16  C   UNL     1      42.836 -18.754   2.270  1.00  0.00     0.079 A 
HETATM   17  C   UNL     1      42.689 -17.197   4.321  1.00  0.00    -0.034 C 
HETATM   18  C   UNL     1      41.423 -16.565   3.812  1.00  0.00     0.050 C 
BRANCH  16  19
HETATM   19  O   UNL     1      42.072 -17.923   1.495  1.00  0.00    -0.360 OA
HETATM   20  H   UNL     1      42.638 -17.266   1.060  1.00  0.00     0.217 HD
ENDBRANCH  16  19
ENDBRANCH   5   6
ENDBRANCH   1   5
BRANCH   2  21
HETATM   21  C   UNL     1      45.026 -12.880   8.024  1.00  0.00     0.127 C 
BRANCH  21  22
HETATM   22  C   UNL     1      44.635 -12.344   9.397  1.00  0.00     0.060 C 
BRANCH  22  23
HETATM   23  C   UNL     1      43.563 -11.291   9.496  1.00  0.00    -0.029 A 
HETATM   24  C   UNL     1      43.140 -10.440  10.578  1.00  0.00    -0.000 A 
HETATM   25  C   UNL     1      42.091  -9.645  10.099  1.00  0.00     0.043 A 
HETATM   26  C   UNL     1      43.531 -10.249  11.922  1.00  0.00     0.038 A 
HETATM   27  C   UNL     1      41.418  -8.697  10.882  1.00  0.00     0.032 A 
HETATM   28  N   UNL     1      41.893  -9.979   8.782  1.00  0.00    -0.365 N 
HETATM   29  C   UNL     1      41.818  -8.548  12.209  1.00  0.00     0.026 A 
HETATM   30  C   UNL     1      42.860  -9.313  12.719  1.00  0.00     0.035 A 
HETATM   31 CL   UNL     1      43.325  -9.112  14.366  1.00  0.00    -0.084 Cl
HETATM   32  H   UNL     1      41.203  -9.553   8.180  1.00  0.00     0.165 HD
HETATM   33  C   UNL     1      42.762 -10.963   8.413  1.00  0.00     0.096 A 
ENDBRANCH  22  23
ENDBRANCH  21  22
ENDBRANCH   2  21
TORSDOF 6
ENDMDL
MODEL 3
REMARK VINA RESULT:      -9.7      1.542      1.838
REMARK  6 active torsions:
REMARK  status: ('A' for Active; 'I' for Inactive)
REMARK    1  A    between atoms: C_6  and  O_7 
REMARK    2  A    between atoms: C_12  and  C_13 
REMARK    3  A    between atoms: C_13  and  C_14 
REMARK       I    between atoms: C_14  and  N_15 
REMARK    4  A    between atoms: N_15  and  C_16 
REMARK    5  A    between atoms: C_16  and  C_17 
REMARK    6  A    between atoms: C_17  and  C_18 
ROOT
HETATM    1  C   UNL     1      44.168 -14.222   6.402  1.00  0.00     0.222 C 
HETATM    2  N   UNL     1      44.311 -14.045   7.764  1.00  0.00    -0.360 N 
HETATM    3  O   UNL     1      44.893 -13.665   5.581  1.00  0.00    -0.273 OA
HETATM    4  H   UNL     1      43.574 -14.403   8.360  1.00  0.00     0.162 HD
ENDROOT
BRANCH   1   5
HETATM    5  C   UNL     1      42.983 -15.083   5.969  1.00  0.00     0.148 C 
BRANCH   5   6
HETATM    6  C   UNL     1      43.197 -16.354   5.171  1.00  0.00     0.033 C 
HETATM    7  C   UNL     1      42.646 -16.224   3.787  1.00  0.00     0.295 C 
HETATM    8  O   UNL     1      43.049 -17.156   2.852  1.00  0.00    -0.274 OA
HETATM    9  O   UNL     1      41.927 -15.285   3.461  1.00  0.00    -0.259 OA
HETATM   10  C   UNL     1      43.590 -18.383   3.260  1.00  0.00     0.093 A 
HETATM   11  C   UNL     1      43.740 -19.342   2.253  1.00  0.00     0.045 A 
HETATM   12  C   UNL     1      43.909 -18.627   4.593  1.00  0.00     0.038 A 
HETATM   13  C   UNL     1      44.194 -20.619   2.573  1.00  0.00    -0.057 A 
HETATM   14  C   UNL     1      44.384 -21.666   1.516  1.00  0.00     0.048 C 
HETATM   15  C   UNL     1      44.446 -20.922   3.915  1.00  0.00     0.044 A 
HETATM   16  C   UNL     1      44.296 -19.942   4.907  1.00  0.00     0.079 A 
HETATM   17  C   UNL     1      43.845 -17.482   5.537  1.00  0.00    -0.034 C 
HETATM   18  C   UNL     1      44.609 -17.620   6.825  1.00  0.00     0.050 C 
BRANCH  16  19
HETATM   19  O   UNL     1      44.505 -20.311   6.209  1.00  0.00    -0.360 OA
HETATM   20  H   UNL     1      45.438 -20.179   6.443  1.00  0.00     0.217 HD
ENDBRANCH  16  19
ENDBRANCH   5   6
ENDBRANCH   1   5
BRANCH   2  21
HETATM   21  C   UNL     1      45.114 -12.938   8.269  1.00  0.00     0.127 C 
BRANCH  21  22
HETATM   22  C   UNL     1      44.294 -11.745   8.744  1.00  0.00     0.060 C 
BRANCH  22  23
HETATM   23  C   UNL     1      43.727 -11.752  10.140  1.00  0.00    -0.029 A 
HETATM   24  C   UNL     1      42.620 -11.052  10.738  1.00  0.00    -0.000 A 
HETATM   25  C   UNL     1      42.549 -11.450  12.079  1.00  0.00     0.043 A 
HETATM   26  C   UNL     1      41.658 -10.118  10.292  1.00  0.00     0.038 A 
HETATM   27  C   UNL     1      41.595 -10.963  12.981  1.00  0.00     0.032 A 
HETATM   28  N   UNL     1      43.553 -12.363  12.288  1.00  0.00    -0.365 N 
HETATM   29  C   UNL     1      40.672 -10.029  12.512  1.00  0.00     0.026 A 
HETATM   30  C   UNL     1      40.705  -9.615  11.185  1.00  0.00     0.035 A 
HETATM   31 CL   UNL     1      39.557  -8.453  10.637  1.00  0.00    -0.084 Cl
HETATM   32  H   UNL     1      43.731 -12.828  13.167  1.00  0.00     0.165 HD
HETATM   33  C   UNL     1      44.265 -12.547  11.139  1.00  0.00     0.096 A 
ENDBRANCH  22  23
ENDBRANCH  21  22
ENDBRANCH   2  21
TORSDOF 6
ENDMDL
MODEL 4
REMARK VINA RESULT:      -9.7      1.820      2.829
REMARK  6 active torsions:
REMARK  status: ('A' for Active; 'I' for Inactive)
REMARK    1  A    between atoms: C_6  and  O_7 
REMARK    2  A    between atoms: C_12  and  C_13 
REMARK    3  A    between atoms: C_13  and  C_14 
REMARK       I    between atoms: C_14  and  N_15 
REMARK    4  A    between atoms: N_15  and  C_16 
REMARK    5  A    between atoms: C_16  and  C_17 
REMARK    6  A    between atoms: C_17  and  C_18 
ROOT
HETATM    1  C   UNL     1      43.959 -14.418   6.413  1.00  0.00     0.222 C 
HETATM    2  N   UNL     1      44.454 -14.084   7.658  1.00  0.00    -0.360 N 
HETATM    3  O   UNL     1      44.175 -13.741   5.409  1.00  0.00    -0.273 OA
HETATM    4  H   UNL     1      44.094 -14.595   8.454  1.00  0.00     0.162 HD
ENDROOT
BRANCH   1   5
HETATM    5  C   UNL     1      43.040 -15.637   6.372  1.00  0.00     0.148 C 
BRANCH   5   6
HETATM    6  C   UNL     1      43.349 -16.814   5.469  1.00  0.00     0.033 C 
HETATM    7  C   UNL     1      44.487 -17.623   6.005  1.00  0.00     0.295 C 
HETATM    8  O   UNL     1      44.669 -18.888   5.483  1.00  0.00    -0.274 OA
HETATM    9  O   UNL     1      45.189 -17.222   6.927  1.00  0.00    -0.259 OA
HETATM   10  C   UNL     1      44.107 -19.234   4.247  1.00  0.00     0.093 A 
HETATM   11  C   UNL     1      44.547 -20.445   3.702  1.00  0.00     0.045 A 
HETATM   12  C   UNL     1      43.205 -18.393   3.600  1.00  0.00     0.038 A 
HETATM   13  C   UNL     1      44.106 -20.837   2.439  1.00  0.00    -0.057 A 
HETATM   14  C   UNL     1      44.544 -22.137   1.832  1.00  0.00     0.048 C 
HETATM   15  C   UNL     1      43.265 -19.976   1.728  1.00  0.00     0.044 A 
HETATM   16  C   UNL     1      42.830 -18.771   2.298  1.00  0.00     0.079 A 
HETATM   17  C   UNL     1      42.705 -17.213   4.350  1.00  0.00    -0.034 C 
HETATM   18  C   UNL     1      41.429 -16.587   3.859  1.00  0.00     0.050 C 
BRANCH  16  19
HETATM   19  O   UNL     1      42.051 -17.945   1.534  1.00  0.00    -0.360 OA
HETATM   20  H   UNL     1      42.614 -17.377   0.984  1.00  0.00     0.217 HD
ENDBRANCH  16  19
ENDBRANCH   5   6
ENDBRANCH   1   5
BRANCH   2  21
HETATM   21  C   UNL     1      44.975 -12.742   7.892  1.00  0.00     0.127 C 
BRANCH  21  22
HETATM   22  C   UNL     1      45.341 -12.466   9.346  1.00  0.00     0.060 C 
BRANCH  22  23
HETATM   23  C   UNL     1      44.255 -12.071  10.313  1.00  0.00    -0.029 A 
HETATM   24  C   UNL     1      43.141 -11.167  10.199  1.00  0.00    -0.000 A 
HETATM   25  C   UNL     1      42.453 -11.195  11.419  1.00  0.00     0.043 A 
HETATM   26  C   UNL     1      42.629 -10.319   9.191  1.00  0.00     0.038 A 
HETATM   27  C   UNL     1      41.311 -10.426  11.682  1.00  0.00     0.032 A 
HETATM   28  N   UNL     1      43.104 -12.088  12.234  1.00  0.00    -0.365 N 
HETATM   29  C   UNL     1      40.845  -9.588  10.671  1.00  0.00     0.026 A 
HETATM   30  C   UNL     1      41.496  -9.537   9.444  1.00  0.00     0.035 A 
HETATM   31 CL   UNL     1      40.900  -8.483   8.217  1.00  0.00    -0.084 Cl
HETATM   32  H   UNL     1      42.818 -12.318  13.175  1.00  0.00     0.165 HD
HETATM   33  C   UNL     1      44.183 -12.613  11.587  1.00  0.00     0.096 A 
ENDBRANCH  22  23
ENDBRANCH  21  22
ENDBRANCH   2  21
TORSDOF 6
ENDMDL
MODEL 5
REMARK VINA RESULT:      -9.6      6.064      8.921
REMARK  6 active torsions:
REMARK  status: ('A' for Active; 'I' for Inactive)
REMARK    1  A    between atoms: C_6  and  O_7 
REMARK    2  A    between atoms: C_12  and  C_13 
REMARK    3  A    between atoms: C_13  and  C_14 
REMARK       I    between atoms: C_14  and  N_15 
REMARK    4  A    between atoms: N_15  and  C_16 
REMARK    5  A    between atoms: C_16  and  C_17 
REMARK    6  A    between atoms: C_17  and  C_18 
ROOT
HETATM    1  C   UNL     1      41.386 -13.847   3.557  1.00  0.00     0.222 C 
HETATM    2  N   UNL     1      40.287 -13.244   2.978  1.00  0.00    -0.360 N 
HETATM    3  O   UNL     1      42.531 -13.425   3.405  1.00  0.00    -0.273 OA
HETATM    4  H   UNL     1      39.409 -13.746   3.014  1.00  0.00     0.162 HD
ENDROOT
BRANCH   1   5
HETATM    5  C   UNL     1      41.105 -15.136   4.325  1.00  0.00     0.148 C 
BRANCH   5   6
HETATM    6  C   UNL     1      41.740 -16.446   3.903  1.00  0.00     0.033 C 
HETATM    7  C   UNL     1      41.114 -16.973   2.651  1.00  0.00     0.295 C 
HETATM    8  O   UNL     1      41.790 -17.966   1.970  1.00  0.00    -0.274 OA
HETATM    9  O   UNL     1      40.080 -16.497   2.194  1.00  0.00    -0.259 OA
HETATM   10  C   UNL     1      42.770 -18.729   2.618  1.00  0.00     0.093 A 
HETATM   11  C   UNL     1      43.219 -19.855   1.918  1.00  0.00     0.045 A 
HETATM   12  C   UNL     1      43.223 -18.398   3.892  1.00  0.00     0.038 A 
HETATM   13  C   UNL     1      44.134 -20.721   2.511  1.00  0.00    -0.057 A 
HETATM   14  C   UNL     1      44.649 -21.927   1.783  1.00  0.00     0.048 C 
HETATM   15  C   UNL     1      44.546 -20.462   3.822  1.00  0.00     0.044 A 
HETATM   16  C   UNL     1      44.090 -19.323   4.501  1.00  0.00     0.079 A 
HETATM   17  C   UNL     1      42.781 -17.101   4.464  1.00  0.00    -0.034 C 
HETATM   18  C   UNL     1      43.604 -16.540   5.591  1.00  0.00     0.050 C 
BRANCH  16  19
HETATM   19  O   UNL     1      44.486 -19.150   5.801  1.00  0.00    -0.360 OA
HETATM   20  H   UNL     1      43.915 -19.668   6.390  1.00  0.00     0.217 HD
ENDBRANCH  16  19
ENDBRANCH   5   6
ENDBRANCH   1   5
BRANCH   2  21
HETATM   21  C   UNL     1      40.475 -12.281   1.900  1.00  0.00     0.127 C 
BRANCH  21  22
HETATM   22  C   UNL     1      39.683 -12.602   0.638  1.00  0.00     0.060 C 
BRANCH  22  23
HETATM   23  C   UNL     1      40.228 -13.618  -0.331  1.00  0.00    -0.029 A 
HETATM   24  C   UNL     1      39.675 -14.212  -1.521  1.00  0.00    -0.000 A 
HETATM   25  C   UNL     1      40.634 -15.098  -2.029  1.00  0.00     0.043 A 
HETATM   26  C   UNL     1      38.461 -14.100  -2.234  1.00  0.00     0.038 A 
HETATM   27  C   UNL     1      40.440 -15.871  -3.182  1.00  0.00     0.032 A 
HETATM   28  N   UNL     1      41.728 -15.036  -1.202  1.00  0.00    -0.365 N 
HETATM   29  C   UNL     1      39.223 -15.747  -3.851  1.00  0.00     0.026 A 
HETATM   30  C   UNL     1      38.249 -14.873  -3.382  1.00  0.00     0.035 A 
HETATM   31 CL   UNL     1      36.751 -14.750  -4.225  1.00  0.00    -0.084 Cl
HETATM   32  H   UNL     1      42.579 -15.564  -1.336  1.00  0.00     0.165 HD
HETATM   33  C   UNL     1      41.495 -14.160  -0.183  1.00  0.00     0.096 A 
ENDBRANCH  22  23
ENDBRANCH  21  22
ENDBRANCH   2  21
TORSDOF 6
ENDMDL
MODEL 6
REMARK VINA RESULT:      -9.5      4.316      6.684
REMARK  6 active torsions:
REMARK  status: ('A' for Active; 'I' for Inactive)
REMARK    1  A    between atoms: C_6  and  O_7 
REMARK    2  A    between atoms: C_12  and  C_13 
REMARK    3  A    between atoms: C_13  and  C_14 
REMARK       I    between atoms: C_14  and  N_15 
REMARK    4  A    between atoms: N_15  and  C_16 
REMARK    5  A    between atoms: C_16  and  C_17 
REMARK    6  A    between atoms: C_17  and  C_18 
ROOT
HETATM    1  C   UNL     1      43.659 -14.832   6.675  1.00  0.00     0.222 C 
HETATM    2  N   UNL     1      42.517 -14.059   6.601  1.00  0.00    -0.360 N 
HETATM    3  O   UNL     1      44.780 -14.382   6.448  1.00  0.00    -0.273 OA
HETATM    4  H   UNL     1      41.626 -14.540   6.637  1.00  0.00     0.162 HD
ENDROOT
BRANCH   1   5
HETATM    5  C   UNL     1      43.436 -16.315   6.964  1.00  0.00     0.148 C 
BRANCH   5   6
HETATM    6  C   UNL     1      43.639 -17.356   5.882  1.00  0.00     0.033 C 
HETATM    7  C   UNL     1      44.820 -18.223   6.178  1.00  0.00     0.295 C 
HETATM    8  O   UNL     1      44.936 -19.404   5.473  1.00  0.00    -0.274 OA
HETATM    9  O   UNL     1      45.620 -17.947   7.066  1.00  0.00    -0.259 OA
HETATM   10  C   UNL     1      44.243 -19.582   4.269  1.00  0.00     0.093 A 
HETATM   11  C   UNL     1      44.613 -20.705   3.520  1.00  0.00     0.045 A 
HETATM   12  C   UNL     1      43.284 -18.668   3.841  1.00  0.00     0.038 A 
HETATM   13  C   UNL     1      44.038 -20.925   2.270  1.00  0.00    -0.057 A 
HETATM   14  C   UNL     1      44.398 -22.127   1.449  1.00  0.00     0.048 C 
HETATM   15  C   UNL     1      43.132 -19.981   1.775  1.00  0.00     0.044 A 
HETATM   16  C   UNL     1      42.770 -18.867   2.548  1.00  0.00     0.079 A 
HETATM   17  C   UNL     1      42.876 -17.603   4.793  1.00  0.00    -0.034 C 
HETATM   18  C   UNL     1      41.560 -16.925   4.530  1.00  0.00     0.050 C 
BRANCH  16  19
HETATM   19  O   UNL     1      41.920 -17.950   1.990  1.00  0.00    -0.360 OA
HETATM   20  H   UNL     1      41.016 -18.302   1.982  1.00  0.00     0.217 HD
ENDBRANCH  16  19
ENDBRANCH   5   6
ENDBRANCH   1   5
BRANCH   2  21
HETATM   21  C   UNL     1      42.562 -12.765   5.932  1.00  0.00     0.127 C 
BRANCH  21  22
HETATM   22  C   UNL     1      41.538 -12.610   4.814  1.00  0.00     0.060 C 
BRANCH  22  23
HETATM   23  C   UNL     1      41.759 -13.333   3.510  1.00  0.00    -0.029 A 
HETATM   24  C   UNL     1      40.860 -13.717   2.453  1.00  0.00    -0.000 A 
HETATM   25  C   UNL     1      41.621 -14.367   1.473  1.00  0.00     0.043 A 
HETATM   26  C   UNL     1      39.475 -13.587   2.210  1.00  0.00     0.038 A 
HETATM   27  C   UNL     1      41.078 -14.893   0.294  1.00  0.00     0.032 A 
HETATM   28  N   UNL     1      42.926 -14.365   1.901  1.00  0.00    -0.365 N 
HETATM   29  C   UNL     1      39.704 -14.762   0.095  1.00  0.00     0.026 A 
HETATM   30  C   UNL     1      38.916 -14.117   1.041  1.00  0.00     0.035 A 
HETATM   31 CL   UNL     1      37.220 -13.979   0.771  1.00  0.00    -0.084 Cl
HETATM   32  H   UNL     1      43.700 -14.758   1.383  1.00  0.00     0.165 HD
HETATM   33  C   UNL     1      43.019 -13.755   3.117  1.00  0.00     0.096 A 
ENDBRANCH  22  23
ENDBRANCH  21  22
ENDBRANCH   2  21
TORSDOF 6
ENDMDL
MODEL 7
REMARK VINA RESULT:      -9.4      5.486      8.706
REMARK  6 active torsions:
REMARK  status: ('A' for Active; 'I' for Inactive)
REMARK    1  A    between atoms: C_6  and  O_7 
REMARK    2  A    between atoms: C_12  and  C_13 
REMARK    3  A    between atoms: C_13  and  C_14 
REMARK       I    between atoms: C_14  and  N_15 
REMARK    4  A    between atoms: N_15  and  C_16 
REMARK    5  A    between atoms: C_16  and  C_17 
REMARK    6  A    between atoms: C_17  and  C_18 
ROOT
HETATM    1  C   UNL     1      41.754 -15.627   5.680  1.00  0.00     0.222 C 
HETATM    2  N   UNL     1      41.734 -16.928   6.142  1.00  0.00    -0.360 N 
HETATM    3  O   UNL     1      42.585 -14.802   6.055  1.00  0.00    -0.273 OA
HETATM    4  H   UNL     1      40.924 -17.491   5.914  1.00  0.00     0.162 HD
ENDROOT
BRANCH   1   5
HETATM    5  C   UNL     1      40.614 -15.243   4.739  1.00  0.00     0.148 C 
BRANCH   5   6
HETATM    6  C   UNL     1      40.869 -15.016   3.262  1.00  0.00     0.033 C 
HETATM    7  C   UNL     1      40.701 -16.281   2.483  1.00  0.00     0.295 C 
HETATM    8  O   UNL     1      40.575 -16.173   1.112  1.00  0.00    -0.274 OA
HETATM    9  O   UNL     1      40.596 -17.372   3.034  1.00  0.00    -0.259 OA
HETATM   10  C   UNL     1      41.003 -15.014   0.450  1.00  0.00     0.093 A 
HETATM   11  C   UNL     1      41.054 -15.101  -0.945  1.00  0.00     0.045 A 
HETATM   12  C   UNL     1      41.388 -13.877   1.154  1.00  0.00     0.038 A 
HETATM   13  C   UNL     1      41.542 -14.028  -1.689  1.00  0.00    -0.057 A 
HETATM   14  C   UNL     1      41.595 -14.080  -3.187  1.00  0.00     0.048 C 
HETATM   15  C   UNL     1      42.014 -12.903  -1.008  1.00  0.00     0.044 A 
HETATM   16  C   UNL     1      41.945 -12.835   0.392  1.00  0.00     0.079 A 
HETATM   17  C   UNL     1      41.145 -13.859   2.620  1.00  0.00    -0.034 C 
HETATM   18  C   UNL     1      41.124 -12.513   3.288  1.00  0.00     0.050 C 
BRANCH  16  19
HETATM   19  O   UNL     1      42.471 -11.730   1.007  1.00  0.00    -0.360 OA
HETATM   20  H   UNL     1      42.606 -11.024   0.355  1.00  0.00     0.217 HD
ENDBRANCH  16  19
ENDBRANCH   5   6
ENDBRANCH   1   5
BRANCH   2  21
HETATM   21  C   UNL     1      42.492 -17.283   7.336  1.00  0.00     0.127 C 
BRANCH  21  22
HETATM   22  C   UNL     1      43.895 -17.802   7.046  1.00  0.00     0.060 C 
BRANCH  22  23
HETATM   23  C   UNL     1      44.069 -18.954   6.092  1.00  0.00    -0.029 A 
HETATM   24  C   UNL     1      44.079 -19.025   4.653  1.00  0.00    -0.000 A 
HETATM   25  C   UNL     1      44.286 -20.365   4.303  1.00  0.00     0.043 A 
HETATM   26  C   UNL     1      43.937 -18.098   3.597  1.00  0.00     0.038 A 
HETATM   27  C   UNL     1      44.344 -20.819   2.978  1.00  0.00     0.032 A 
HETATM   28  N   UNL     1      44.415 -21.078   5.469  1.00  0.00    -0.365 N 
HETATM   29  C   UNL     1      44.182 -19.879   1.961  1.00  0.00     0.026 A 
HETATM   30  C   UNL     1      43.982 -18.538   2.269  1.00  0.00     0.035 A 
HETATM   31 CL   UNL     1      43.775 -17.402   0.990  1.00  0.00    -0.084 Cl
HETATM   32  H   UNL     1      44.585 -22.073   5.517  1.00  0.00     0.165 HD
HETATM   33  C   UNL     1      44.283 -20.247   6.542  1.00  0.00     0.096 A 
ENDBRANCH  22  23
ENDBRANCH  21  22
ENDBRANCH   2  21
TORSDOF 6
ENDMDL
MODEL 8
REMARK VINA RESULT:      -9.4      1.896      2.919
REMARK  6 active torsions:
REMARK  status: ('A' for Active; 'I' for Inactive)
REMARK    1  A    between atoms: C_6  and  O_7 
REMARK    2  A    between atoms: C_12  and  C_13 
REMARK    3  A    between atoms: C_13  and  C_14 
REMARK       I    between atoms: C_14  and  N_15 
REMARK    4  A    between atoms: N_15  and  C_16 
REMARK    5  A    between atoms: C_16  and  C_17 
REMARK    6  A    between atoms: C_17  and  C_18 
ROOT
HETATM    1  C   UNL     1      42.764 -13.985   5.693  1.00  0.00     0.222 C 
HETATM    2  N   UNL     1      41.902 -13.059   6.247  1.00  0.00    -0.360 N 
HETATM    3  O   UNL     1      43.537 -13.708   4.778  1.00  0.00    -0.273 OA
HETATM    4  H   UNL     1      41.187 -13.406   6.874  1.00  0.00     0.162 HD
ENDROOT
BRANCH   1   5
HETATM    5  C   UNL     1      42.630 -15.411   6.221  1.00  0.00     0.148 C 
BRANCH   5   6
HETATM    6  C   UNL     1      43.031 -16.597   5.367  1.00  0.00     0.033 C 
HETATM    7  C   UNL     1      44.229 -17.292   5.931  1.00  0.00     0.295 C 
HETATM    8  O   UNL     1      44.510 -18.560   5.462  1.00  0.00    -0.274 OA
HETATM    9  O   UNL     1      44.898 -16.799   6.834  1.00  0.00    -0.259 OA
HETATM   10  C   UNL     1      43.976 -18.999   4.243  1.00  0.00     0.093 A 
HETATM   11  C   UNL     1      44.510 -20.194   3.746  1.00  0.00     0.045 A 
HETATM   12  C   UNL     1      43.011 -18.260   3.564  1.00  0.00     0.038 A 
HETATM   13  C   UNL     1      44.101 -20.671   2.503  1.00  0.00    -0.057 A 
HETATM   14  C   UNL     1      44.639 -21.957   1.948  1.00  0.00     0.048 C 
HETATM   15  C   UNL     1      43.195 -19.909   1.759  1.00  0.00     0.044 A 
HETATM   16  C   UNL     1      42.667 -18.719   2.281  1.00  0.00     0.079 A 
HETATM   17  C   UNL     1      42.420 -17.092   4.267  1.00  0.00    -0.034 C 
HETATM   18  C   UNL     1      41.099 -16.589   3.755  1.00  0.00     0.050 C 
BRANCH  16  19
HETATM   19  O   UNL     1      41.825 -17.989   1.486  1.00  0.00    -0.360 OA
HETATM   20  H   UNL     1      41.600 -18.498   0.691  1.00  0.00     0.217 HD
ENDBRANCH  16  19
ENDBRANCH   5   6
ENDBRANCH   1   5
BRANCH   2  21
HETATM   21  C   UNL     1      41.644 -11.805   5.550  1.00  0.00     0.127 C 
BRANCH  21  22
HETATM   22  C   UNL     1      41.419 -10.617   6.479  1.00  0.00     0.060 C 
BRANCH  22  23
HETATM   23  C   UNL     1      40.747 -10.842   7.809  1.00  0.00    -0.029 A 
HETATM   24  C   UNL     1      41.236 -10.785   9.162  1.00  0.00    -0.000 A 
HETATM   25  C   UNL     1      40.161 -11.082  10.008  1.00  0.00     0.043 A 
HETATM   26  C   UNL     1      42.480 -10.511   9.773  1.00  0.00     0.038 A 
HETATM   27  C   UNL     1      40.265 -11.131  11.405  1.00  0.00     0.032 A 
HETATM   28  N   UNL     1      39.061 -11.293   9.214  1.00  0.00    -0.365 N 
HETATM   29  C   UNL     1      41.512 -10.873  11.973  1.00  0.00     0.026 A 
HETATM   30  C   UNL     1      42.602 -10.567  11.167  1.00  0.00     0.035 A 
HETATM   31 CL   UNL     1      44.132 -10.262  11.899  1.00  0.00    -0.084 Cl
HETATM   32  H   UNL     1      38.138 -11.515   9.559  1.00  0.00     0.165 HD
HETATM   33  C   UNL     1      39.400 -11.157   7.899  1.00  0.00     0.096 A 
ENDBRANCH  22  23
ENDBRANCH  21  22
ENDBRANCH   2  21
TORSDOF 6
ENDMDL
MODEL 9
REMARK VINA RESULT:      -9.2      2.180      3.539
REMARK  6 active torsions:
REMARK  status: ('A' for Active; 'I' for Inactive)
REMARK    1  A    between atoms: C_6  and  O_7 
REMARK    2  A    between atoms: C_12  and  C_13 
REMARK    3  A    between atoms: C_13  and  C_14 
REMARK       I    between atoms: C_14  and  N_15 
REMARK    4  A    between atoms: N_15  and  C_16 
REMARK    5  A    between atoms: C_16  and  C_17 
REMARK    6  A    between atoms: C_17  and  C_18 
ROOT
HETATM    1  C   UNL     1      41.422 -13.407   5.848  1.00  0.00     0.222 C 
HETATM    2  N   UNL     1      41.244 -12.153   6.398  1.00  0.00    -0.360 N 
HETATM    3  O   UNL     1      40.512 -14.230   5.765  1.00  0.00    -0.273 OA
HETATM    4  H   UNL     1      42.075 -11.603   6.581  1.00  0.00     0.162 HD
ENDROOT
BRANCH   1   5
HETATM    5  C   UNL     1      42.851 -13.751   5.435  1.00  0.00     0.148 C 
BRANCH   5   6
HETATM    6  C   UNL     1      43.187 -15.112   4.859  1.00  0.00     0.033 C 
HETATM    7  C   UNL     1      43.749 -16.020   5.905  1.00  0.00     0.295 C 
HETATM    8  O   UNL     1      43.794 -17.370   5.620  1.00  0.00    -0.274 OA
HETATM    9  O   UNL     1      44.088 -15.605   7.009  1.00  0.00    -0.259 OA
HETATM   10  C   UNL     1      43.721 -17.818   4.294  1.00  0.00     0.093 A 
HETATM   11  C   UNL     1      44.014 -19.171   4.097  1.00  0.00     0.045 A 
HETATM   12  C   UNL     1      43.418 -16.948   3.250  1.00  0.00     0.038 A 
HETATM   13  C   UNL     1      44.047 -19.693   2.805  1.00  0.00    -0.057 A 
HETATM   14  C   UNL     1      44.340 -21.143   2.559  1.00  0.00     0.048 C 
HETATM   15  C   UNL     1      43.829 -18.827   1.729  1.00  0.00     0.044 A 
HETATM   16  C   UNL     1      43.528 -17.476   1.951  1.00  0.00     0.079 A 
HETATM   17  C   UNL     1      42.980 -15.573   3.605  1.00  0.00    -0.034 C 
HETATM   18  C   UNL     1      42.231 -14.806   2.551  1.00  0.00     0.050 C 
BRANCH  16  19
HETATM   19  O   UNL     1      43.376 -16.665   0.858  1.00  0.00    -0.360 OA
HETATM   20  H   UNL     1      44.185 -16.147   0.718  1.00  0.00     0.217 HD
ENDBRANCH  16  19
ENDBRANCH   5   6
ENDBRANCH   1   5
BRANCH   2  21
HETATM   21  C   UNL     1      40.056 -11.875   7.196  1.00  0.00     0.127 C 
BRANCH  21  22
HETATM   22  C   UNL     1      40.156 -10.603   8.031  1.00  0.00     0.060 C 
BRANCH  22  23
HETATM   23  C   UNL     1      40.845 -10.656   9.369  1.00  0.00    -0.029 A 
HETATM   24  C   UNL     1      42.227 -10.822   9.740  1.00  0.00    -0.000 A 
HETATM   25  C   UNL     1      42.291 -10.789  11.138  1.00  0.00     0.043 A 
HETATM   26  C   UNL     1      43.443 -10.998   9.044  1.00  0.00     0.038 A 
HETATM   27  C   UNL     1      43.482 -10.933  11.863  1.00  0.00     0.032 A 
HETATM   28  N   UNL     1      41.013 -10.594  11.602  1.00  0.00    -0.365 N 
HETATM   29  C   UNL     1      44.662 -11.122  11.143  1.00  0.00     0.026 A 
HETATM   30  C   UNL     1      44.640 -11.153   9.754  1.00  0.00     0.035 A 
HETATM   31 CL   UNL     1      46.113 -11.397   8.894  1.00  0.00    -0.084 Cl
HETATM   32  H   UNL     1      40.763 -10.517  12.578  1.00  0.00     0.165 HD
HETATM   33  C   UNL     1      40.142 -10.517  10.556  1.00  0.00     0.096 A 
ENDBRANCH  22  23
ENDBRANCH  21  22
ENDBRANCH   2  21
TORSDOF 6
ENDMDL
MODEL 10
REMARK VINA RESULT:      -9.1      1.947      2.488
REMARK  6 active torsions:
REMARK  status: ('A' for Active; 'I' for Inactive)
REMARK    1  A    between atoms: C_6  and  O_7 
REMARK    2  A    between atoms: C_12  and  C_13 
REMARK    3  A    between atoms: C_13  and  C_14 
REMARK       I    between atoms: C_14  and  N_15 
REMARK    4  A    between atoms: N_15  and  C_16 
REMARK    5  A    between atoms: C_16  and  C_17 
REMARK    6  A    between atoms: C_17  and  C_18 
ROOT
HETATM    1  C   UNL     1      41.603 -13.581   5.625  1.00  0.00     0.222 C 
HETATM    2  N   UNL     1      41.086 -12.662   6.516  1.00  0.00    -0.360 N 
HETATM    3  O   UNL     1      42.518 -13.312   4.849  1.00  0.00    -0.273 OA
HETATM    4  H   UNL     1      40.230 -12.909   6.997  1.00  0.00     0.162 HD
ENDROOT
BRANCH   1   5
HETATM    5  C   UNL     1      40.899 -14.936   5.591  1.00  0.00     0.148 C 
BRANCH   5   6
HETATM    6  C   UNL     1      41.590 -16.155   5.015  1.00  0.00     0.033 C 
HETATM    7  C   UNL     1      41.225 -16.358   3.579  1.00  0.00     0.295 C 
HETATM    8  O   UNL     1      42.013 -17.214   2.836  1.00  0.00    -0.274 OA
HETATM    9  O   UNL     1      40.313 -15.733   3.048  1.00  0.00    -0.259 OA
HETATM   10  C   UNL     1      42.832 -18.157   3.472  1.00  0.00     0.093 A 
HETATM   11  C   UNL     1      43.399 -19.125   2.637  1.00  0.00     0.045 A 
HETATM   12  C   UNL     1      43.020 -18.141   4.852  1.00  0.00     0.038 A 
HETATM   13  C   UNL     1      44.163 -20.153   3.186  1.00  0.00    -0.057 A 
HETATM   14  C   UNL     1      44.801 -21.197   2.318  1.00  0.00     0.048 C 
HETATM   15  C   UNL     1      44.303 -20.212   4.576  1.00  0.00     0.044 A 
HETATM   16  C   UNL     1      43.732 -19.225   5.393  1.00  0.00     0.079 A 
HETATM   17  C   UNL     1      42.487 -16.976   5.605  1.00  0.00    -0.034 C 
HETATM   18  C   UNL     1      43.070 -16.726   6.968  1.00  0.00     0.050 C 
BRANCH  16  19
HETATM   19  O   UNL     1      43.858 -19.365   6.749  1.00  0.00    -0.360 OA
HETATM   20  H   UNL     1      43.826 -20.306   6.987  1.00  0.00     0.217 HD
ENDBRANCH  16  19
ENDBRANCH   5   6
ENDBRANCH   1   5
BRANCH   2  21
HETATM   21  C   UNL     1      41.383 -11.244   6.346  1.00  0.00     0.127 C 
BRANCH  21  22
HETATM   22  C   UNL     1      40.606 -10.332   7.289  1.00  0.00     0.060 C 
BRANCH  22  23
HETATM   23  C   UNL     1      40.648 -10.602   8.770  1.00  0.00    -0.029 A 
HETATM   24  C   UNL     1      41.742 -10.771   9.692  1.00  0.00    -0.000 A 
HETATM   25  C   UNL     1      41.190 -10.996  10.959  1.00  0.00     0.043 A 
HETATM   26  C   UNL     1      43.152 -10.758   9.596  1.00  0.00     0.038 A 
HETATM   27  C   UNL     1      41.958 -11.216  12.110  1.00  0.00     0.032 A 
HETATM   28  N   UNL     1      39.825 -10.948  10.824  1.00  0.00    -0.365 N 
HETATM   29  C   UNL     1      43.346 -11.214  11.976  1.00  0.00     0.026 A 
HETATM   30  C   UNL     1      43.932 -10.988  10.736  1.00  0.00     0.035 A 
HETATM   31 CL   UNL     1      45.650 -11.000  10.601  1.00  0.00    -0.084 Cl
HETATM   32  H   UNL     1      39.169 -11.066  11.584  1.00  0.00     0.165 HD
HETATM   33  C   UNL     1      39.490 -10.718   9.522  1.00  0.00     0.096 A 
ENDBRANCH  22  23
ENDBRANCH  21  22
ENDBRANCH   2  21
TORSDOF 6
ENDMDL
