MODEL 1
REMARK VINA RESULT:      -8.0      0.000      0.000
REMARK  5 active torsions:
REMARK  status: ('A' for Active; 'I' for Inactive)
REMARK    1  A    between atoms: C_6  and  C_7 
REMARK    2  A    between atoms: C_12  and  C_13 
REMARK    3  A    between atoms: C_13  and  N_14 
REMARK    4  A    between atoms: C_17  and  C_19 
REMARK    5  A    between atoms: C_17  and  O_18 
ROOT
HETATM    1  C   UNL     1      44.271 -18.745   5.282  1.00  0.00     0.096 A 
HETATM    2  N   UNL     1      45.182 -18.275   6.143  1.00  0.00    -0.174 NA
HETATM    3  N   UNL     1      44.748 -17.062   6.492  1.00  0.00    -0.288 N 
HETATM    4  H   UNL     1      45.295 -16.530   7.164  1.00  0.00     0.188 HD
HETATM    5  C   UNL     1      43.580 -16.716   5.878  1.00  0.00     0.120 A 
HETATM    6  C   UNL     1      43.229 -17.784   5.070  1.00  0.00     0.016 A 
ENDROOT
BRANCH   6   7
HETATM    7  C   UNL     1      42.009 -17.925   4.239  1.00  0.00     0.277 C 
BRANCH   7   8
HETATM    8  N   UNL     1      41.969 -16.961   3.084  1.00  0.00    -0.064 N 
HETATM    9  H   UNL     1      42.896 -16.514   3.010  1.00  0.00     0.280 HD
HETATM   10  C   UNL     1      40.955 -15.840   3.207  1.00  0.00     0.282 C 
HETATM   11  C   UNL     1      40.879 -15.278   1.786  1.00  0.00     0.180 C 
HETATM   12  C   UNL     1      41.290 -16.430   0.859  1.00  0.00     0.076 C 
HETATM   13  C   UNL     1      41.636 -17.598   1.768  1.00  0.00     0.238 C 
BRANCH  11  14
HETATM   14  C   UNL     1      39.457 -14.779   1.536  1.00  0.00     0.419 C 
HETATM   15  F   UNL     1      39.211 -13.654   2.234  1.00  0.00    -0.168 F 
HETATM   16  F   UNL     1      39.267 -14.522   0.228  1.00  0.00    -0.168 F 
HETATM   17  F   UNL     1      38.561 -15.713   1.921  1.00  0.00    -0.168 F 
ENDBRANCH  11  14
BRANCH  11  18
HETATM   18  O   UNL     1      41.891 -14.257   1.658  1.00  0.00    -0.379 OA
HETATM   19  H   UNL     1      42.727 -14.678   1.365  1.00  0.00     0.211 HD
ENDBRANCH  11  18
ENDBRANCH   7   8
ENDBRANCH   6   7
BRANCH   1  20
HETATM   20  C   UNL     1      44.413 -20.090   4.729  1.00  0.00    -0.003 A 
HETATM   21  C   UNL     1      44.313 -20.322   3.353  1.00  0.00     0.037 A 
HETATM   22  C   UNL     1      44.420 -21.622   2.855  1.00  0.00     0.035 A 
HETATM   23  C   UNL     1      44.647 -22.697   3.710  1.00  0.00     0.024 A 
HETATM   24 CL   UNL     1      44.253 -21.886   1.163  1.00  0.00    -0.084 Cl
HETATM   25  C   UNL     1      44.775 -22.471   5.079  1.00  0.00     0.003 A 
HETATM   26  C   UNL     1      44.658 -21.174   5.586  1.00  0.00     0.014 A 
ENDBRANCH   1  20
TORSDOF 5
ENDMDL
MODEL 2
REMARK VINA RESULT:      -8.0      1.921      2.583
REMARK  5 active torsions:
REMARK  status: ('A' for Active; 'I' for Inactive)
REMARK    1  A    between atoms: C_6  and  C_7 
REMARK    2  A    between atoms: C_12  and  C_13 
REMARK    3  A    between atoms: C_13  and  N_14 
REMARK    4  A    between atoms: C_17  and  C_19 
REMARK    5  A    between atoms: C_17  and  O_18 
ROOT
HETATM    1  C   UNL     1      43.628 -17.695   5.592  1.00  0.00     0.096 A 
HETATM    2  N   UNL     1      44.549 -17.131   6.381  1.00  0.00    -0.174 NA
HETATM    3  N   UNL     1      43.903 -16.179   7.059  1.00  0.00    -0.288 N 
HETATM    4  H   UNL     1      44.426 -15.632   7.738  1.00  0.00     0.188 HD
HETATM    5  C   UNL     1      42.582 -16.095   6.731  1.00  0.00     0.120 A 
HETATM    6  C   UNL     1      42.353 -17.064   5.769  1.00  0.00     0.016 A 
ENDROOT
BRANCH   6   7
HETATM    7  C   UNL     1      41.062 -17.416   5.130  1.00  0.00     0.277 C 
BRANCH   7   8
HETATM    8  N   UNL     1      40.692 -16.493   4.000  1.00  0.00    -0.064 N 
HETATM    9  H   UNL     1      39.684 -16.287   4.075  1.00  0.00     0.280 HD
HETATM   10  C   UNL     1      40.921 -17.045   2.607  1.00  0.00     0.282 C 
HETATM   11  C   UNL     1      40.826 -15.804   1.717  1.00  0.00     0.180 C 
HETATM   12  C   UNL     1      41.199 -14.617   2.615  1.00  0.00     0.076 C 
HETATM   13  C   UNL     1      41.449 -15.198   3.998  1.00  0.00     0.238 C 
BRANCH  11  14
HETATM   14  C   UNL     1      41.770 -15.984   0.529  1.00  0.00     0.419 C 
HETATM   15  F   UNL     1      41.197 -16.732  -0.433  1.00  0.00    -0.168 F 
HETATM   16  F   UNL     1      42.104 -14.790   0.003  1.00  0.00    -0.168 F 
HETATM   17  F   UNL     1      42.901 -16.607   0.924  1.00  0.00    -0.168 F 
ENDBRANCH  11  14
BRANCH  11  18
HETATM   18  O   UNL     1      39.442 -15.629   1.347  1.00  0.00    -0.379 OA
HETATM   19  H   UNL     1      39.160 -16.401   0.811  1.00  0.00     0.211 HD
ENDBRANCH  11  18
ENDBRANCH   7   8
ENDBRANCH   6   7
BRANCH   1  20
HETATM   20  C   UNL     1      43.989 -18.822   4.735  1.00  0.00    -0.003 A 
HETATM   21  C   UNL     1      44.399 -20.044   5.279  1.00  0.00     0.037 A 
HETATM   22  C   UNL     1      44.769 -21.094   4.436  1.00  0.00     0.035 A 
HETATM   23  C   UNL     1      44.716 -20.950   3.053  1.00  0.00     0.024 A 
HETATM   24 CL   UNL     1      45.310 -22.572   5.130  1.00  0.00    -0.084 Cl
HETATM   25  C   UNL     1      44.282 -19.745   2.503  1.00  0.00     0.003 A 
HETATM   26  C   UNL     1      43.920 -18.687   3.340  1.00  0.00     0.014 A 
ENDBRANCH   1  20
TORSDOF 5
ENDMDL
MODEL 3
REMARK VINA RESULT:      -7.9      3.587      5.025
REMARK  5 active torsions:
REMARK  status: ('A' for Active; 'I' for Inactive)
REMARK    1  A    between atoms: C_6  and  C_7 
REMARK    2  A    between atoms: C_12  and  C_13 
REMARK    3  A    between atoms: C_13  and  N_14 
REMARK    4  A    between atoms: C_17  and  C_19 
REMARK    5  A    between atoms: C_17  and  O_18 
ROOT
HETATM    1  C   UNL     1      41.786 -17.812   2.248  1.00  0.00     0.096 A 
HETATM    2  N   UNL     1      41.435 -17.816   0.957  1.00  0.00    -0.174 NA
HETATM    3  N   UNL     1      40.521 -16.851   0.834  1.00  0.00    -0.288 N 
HETATM    4  H   UNL     1      40.130 -16.673  -0.088  1.00  0.00     0.188 HD
HETATM    5  C   UNL     1      40.255 -16.215   2.012  1.00  0.00     0.120 A 
HETATM    6  C   UNL     1      41.055 -16.813   2.970  1.00  0.00     0.016 A 
ENDROOT
BRANCH   6   7
HETATM    7  C   UNL     1      41.178 -16.444   4.401  1.00  0.00     0.277 C 
BRANCH   7   8
HETATM    8  N   UNL     1      42.007 -15.207   4.622  1.00  0.00    -0.064 N 
HETATM    9  H   UNL     1      42.104 -14.724   3.715  1.00  0.00     0.280 HD
HETATM   10  C   UNL     1      43.413 -15.449   5.138  1.00  0.00     0.282 C 
HETATM   11  C   UNL     1      43.856 -14.063   5.609  1.00  0.00     0.180 C 
HETATM   12  C   UNL     1      42.566 -13.304   5.948  1.00  0.00     0.076 C 
HETATM   13  C   UNL     1      41.423 -14.250   5.617  1.00  0.00     0.238 C 
BRANCH  11  14
HETATM   14  C   UNL     1      44.790 -14.233   6.807  1.00  0.00     0.419 C 
HETATM   15  F   UNL     1      44.988 -15.536   7.083  1.00  0.00    -0.168 F 
HETATM   16  F   UNL     1      45.983 -13.659   6.563  1.00  0.00    -0.168 F 
HETATM   17  F   UNL     1      44.253 -13.651   7.901  1.00  0.00    -0.168 F 
ENDBRANCH  11  14
BRANCH  11  18
HETATM   18  O   UNL     1      44.458 -13.384   4.487  1.00  0.00    -0.379 OA
HETATM   19  H   UNL     1      45.085 -13.997   4.048  1.00  0.00     0.211 HD
ENDBRANCH  11  18
ENDBRANCH   7   8
ENDBRANCH   6   7
BRANCH   1  20
HETATM   20  C   UNL     1      42.818 -18.727   2.729  1.00  0.00    -0.003 A 
HETATM   21  C   UNL     1      43.180 -19.862   1.995  1.00  0.00     0.037 A 
HETATM   22  C   UNL     1      44.147 -20.737   2.493  1.00  0.00     0.035 A 
HETATM   23  C   UNL     1      44.776 -20.486   3.710  1.00  0.00     0.024 A 
HETATM   24 CL   UNL     1      44.545 -22.147   1.591  1.00  0.00    -0.084 Cl
HETATM   25  C   UNL     1      44.441 -19.343   4.434  1.00  0.00     0.003 A 
HETATM   26  C   UNL     1      43.467 -18.469   3.946  1.00  0.00     0.014 A 
ENDBRANCH   1  20
TORSDOF 5
ENDMDL
MODEL 4
REMARK VINA RESULT:      -7.9      2.635      3.528
REMARK  5 active torsions:
REMARK  status: ('A' for Active; 'I' for Inactive)
REMARK    1  A    between atoms: C_6  and  C_7 
REMARK    2  A    between atoms: C_12  and  C_13 
REMARK    3  A    between atoms: C_13  and  N_14 
REMARK    4  A    between atoms: C_17  and  C_19 
REMARK    5  A    between atoms: C_17  and  O_18 
ROOT
HETATM    1  C   UNL     1      43.696 -18.466   6.216  1.00  0.00     0.096 A 
HETATM    2  N   UNL     1      43.531 -19.391   7.169  1.00  0.00    -0.174 NA
HETATM    3  N   UNL     1      43.537 -18.719   8.322  1.00  0.00    -0.288 N 
HETATM    4  H   UNL     1      43.406 -19.242   9.185  1.00  0.00     0.188 HD
HETATM    5  C   UNL     1      43.708 -17.376   8.156  1.00  0.00     0.120 A 
HETATM    6  C   UNL     1      43.823 -17.160   6.793  1.00  0.00     0.016 A 
ENDROOT
BRANCH   6   7
HETATM    7  C   UNL     1      43.966 -15.861   6.094  1.00  0.00     0.277 C 
BRANCH   7   8
HETATM    8  N   UNL     1      42.786 -14.949   6.297  1.00  0.00    -0.064 N 
HETATM    9  H   UNL     1      42.436 -15.092   7.257  1.00  0.00     0.280 HD
HETATM   10  C   UNL     1      41.612 -15.185   5.367  1.00  0.00     0.282 C 
HETATM   11  C   UNL     1      40.766 -13.923   5.543  1.00  0.00     0.180 C 
HETATM   12  C   UNL     1      41.740 -12.826   5.994  1.00  0.00     0.076 C 
HETATM   13  C   UNL     1      43.100 -13.494   6.111  1.00  0.00     0.238 C 
BRANCH  11  14
HETATM   14  C   UNL     1      40.076 -13.611   4.215  1.00  0.00     0.419 C 
HETATM   15  F   UNL     1      40.951 -13.111   3.322  1.00  0.00    -0.168 F 
HETATM   16  F   UNL     1      39.521 -14.723   3.697  1.00  0.00    -0.168 F 
HETATM   17  F   UNL     1      39.100 -12.696   4.402  1.00  0.00    -0.168 F 
ENDBRANCH  11  14
BRANCH  11  18
HETATM   18  O   UNL     1      39.854 -14.149   6.639  1.00  0.00    -0.379 OA
HETATM   19  H   UNL     1      39.359 -13.321   6.812  1.00  0.00     0.211 HD
ENDBRANCH  11  18
ENDBRANCH   7   8
ENDBRANCH   6   7
BRANCH   1  20
HETATM   20  C   UNL     1      43.691 -18.856   4.808  1.00  0.00    -0.003 A 
HETATM   21  C   UNL     1      42.816 -18.260   3.894  1.00  0.00     0.037 A 
HETATM   22  C   UNL     1      42.810 -18.674   2.561  1.00  0.00     0.035 A 
HETATM   23  C   UNL     1      43.683 -19.666   2.119  1.00  0.00     0.024 A 
HETATM   24 CL   UNL     1      41.697 -17.954   1.465  1.00  0.00    -0.084 Cl
HETATM   25  C   UNL     1      44.576 -20.246   3.018  1.00  0.00     0.003 A 
HETATM   26  C   UNL     1      44.579 -19.843   4.355  1.00  0.00     0.014 A 
ENDBRANCH   1  20
TORSDOF 5
ENDMDL
MODEL 5
REMARK VINA RESULT:      -7.7      3.045      4.414
REMARK  5 active torsions:
REMARK  status: ('A' for Active; 'I' for Inactive)
REMARK    1  A    between atoms: C_6  and  C_7 
REMARK    2  A    between atoms: C_12  and  C_13 
REMARK    3  A    between atoms: C_13  and  N_14 
REMARK    4  A    between atoms: C_17  and  C_19 
REMARK    5  A    between atoms: C_17  and  O_18 
ROOT
HETATM    1  C   UNL     1      42.726 -17.516   1.813  1.00  0.00     0.096 A 
HETATM    2  N   UNL     1      43.312 -16.947   0.753  1.00  0.00    -0.174 NA
HETATM    3  N   UNL     1      42.426 -16.063   0.289  1.00  0.00    -0.288 N 
HETATM    4  H   UNL     1      42.685 -15.501  -0.519  1.00  0.00     0.188 HD
HETATM    5  C   UNL     1      41.268 -16.039   1.010  1.00  0.00     0.120 A 
HETATM    6  C   UNL     1      41.413 -16.978   2.017  1.00  0.00     0.016 A 
ENDROOT
BRANCH   6   7
HETATM    7  C   UNL     1      40.453 -17.292   3.102  1.00  0.00     0.277 C 
BRANCH   7   8
HETATM    8  N   UNL     1      40.717 -16.518   4.366  1.00  0.00    -0.064 N 
HETATM    9  H   UNL     1      39.833 -16.072   4.655  1.00  0.00     0.280 HD
HETATM   10  C   UNL     1      41.745 -15.408   4.247  1.00  0.00     0.282 C 
HETATM   11  C   UNL     1      42.069 -15.073   5.704  1.00  0.00     0.180 C 
HETATM   12  C   UNL     1      41.763 -16.347   6.504  1.00  0.00     0.076 C 
HETATM   13  C   UNL     1      41.228 -17.355   5.500  1.00  0.00     0.238 C 
BRANCH  11  14
HETATM   14  C   UNL     1      43.532 -14.642   5.789  1.00  0.00     0.419 C 
HETATM   15  F   UNL     1      43.677 -13.588   6.615  1.00  0.00    -0.168 F 
HETATM   16  F   UNL     1      44.299 -15.652   6.243  1.00  0.00    -0.168 F 
HETATM   17  F   UNL     1      43.983 -14.282   4.568  1.00  0.00    -0.168 F 
ENDBRANCH  11  14
BRANCH  11  18
HETATM   18  O   UNL     1      41.133 -14.067   6.146  1.00  0.00    -0.379 OA
HETATM   19  H   UNL     1      40.382 -14.511   6.593  1.00  0.00     0.211 HD
ENDBRANCH  11  18
ENDBRANCH   7   8
ENDBRANCH   6   7
BRANCH   1  20
HETATM   20  C   UNL     1      43.446 -18.514   2.600  1.00  0.00    -0.003 A 
HETATM   21  C   UNL     1      43.654 -19.809   2.114  1.00  0.00     0.037 A 
HETATM   22  C   UNL     1      44.318 -20.752   2.901  1.00  0.00     0.035 A 
HETATM   23  C   UNL     1      44.798 -20.415   4.163  1.00  0.00     0.024 A 
HETATM   24 CL   UNL     1      44.525 -22.349   2.296  1.00  0.00    -0.084 Cl
HETATM   25  C   UNL     1      44.619 -19.120   4.644  1.00  0.00     0.003 A 
HETATM   26  C   UNL     1      43.946 -18.174   3.866  1.00  0.00     0.014 A 
ENDBRANCH   1  20
TORSDOF 5
ENDMDL
MODEL 6
REMARK VINA RESULT:      -7.7      2.891      3.895
REMARK  5 active torsions:
REMARK  status: ('A' for Active; 'I' for Inactive)
REMARK    1  A    between atoms: C_6  and  C_7 
REMARK    2  A    between atoms: C_12  and  C_13 
REMARK    3  A    between atoms: C_13  and  N_14 
REMARK    4  A    between atoms: C_17  and  C_19 
REMARK    5  A    between atoms: C_17  and  O_18 
ROOT
HETATM    1  C   UNL     1      41.887 -16.833   3.974  1.00  0.00     0.096 A 
HETATM    2  N   UNL     1      41.079 -16.683   5.030  1.00  0.00    -0.174 NA
HETATM    3  N   UNL     1      40.285 -15.654   4.727  1.00  0.00    -0.288 N 
HETATM    4  H   UNL     1      39.572 -15.380   5.399  1.00  0.00     0.188 HD
HETATM    5  C   UNL     1      40.554 -15.116   3.502  1.00  0.00     0.120 A 
HETATM    6  C   UNL     1      41.600 -15.850   2.971  1.00  0.00     0.016 A 
ENDROOT
BRANCH   6   7
HETATM    7  C   UNL     1      42.223 -15.698   1.635  1.00  0.00     0.277 C 
BRANCH   7   8
HETATM    8  N   UNL     1      41.341 -14.978   0.651  1.00  0.00    -0.064 N 
HETATM    9  H   UNL     1      40.389 -14.936   1.049  1.00  0.00     0.280 HD
HETATM   10  C   UNL     1      41.213 -15.632  -0.711  1.00  0.00     0.282 C 
HETATM   11  C   UNL     1      40.600 -14.528  -1.574  1.00  0.00     0.180 C 
HETATM   12  C   UNL     1      41.005 -13.205  -0.911  1.00  0.00     0.076 C 
HETATM   13  C   UNL     1      41.792 -13.583   0.334  1.00  0.00     0.238 C 
BRANCH  11  14
HETATM   14  C   UNL     1      41.129 -14.676  -3.000  1.00  0.00     0.419 C 
HETATM   15  F   UNL     1      42.142 -13.819  -3.231  1.00  0.00    -0.168 F 
HETATM   16  F   UNL     1      41.570 -15.930  -3.214  1.00  0.00    -0.168 F 
HETATM   17  F   UNL     1      40.148 -14.413  -3.890  1.00  0.00    -0.168 F 
ENDBRANCH  11  14
BRANCH  11  18
HETATM   18  O   UNL     1      39.164 -14.627  -1.468  1.00  0.00    -0.379 OA
HETATM   19  H   UNL     1      38.902 -15.562  -1.602  1.00  0.00     0.211 HD
ENDBRANCH  11  18
ENDBRANCH   7   8
ENDBRANCH   6   7
BRANCH   1  20
HETATM   20  C   UNL     1      42.867 -17.917   3.951  1.00  0.00    -0.003 A 
HETATM   21  C   UNL     1      42.887 -18.854   2.912  1.00  0.00     0.037 A 
HETATM   22  C   UNL     1      43.813 -19.898   2.931  1.00  0.00     0.035 A 
HETATM   23  C   UNL     1      44.739 -20.010   3.966  1.00  0.00     0.024 A 
HETATM   24 CL   UNL     1      43.791 -21.060   1.664  1.00  0.00    -0.084 Cl
HETATM   25  C   UNL     1      44.743 -19.065   4.990  1.00  0.00     0.003 A 
HETATM   26  C   UNL     1      43.812 -18.024   4.982  1.00  0.00     0.014 A 
ENDBRANCH   1  20
TORSDOF 5
ENDMDL
MODEL 7
REMARK VINA RESULT:      -7.6      3.630      4.794
REMARK  5 active torsions:
REMARK  status: ('A' for Active; 'I' for Inactive)
REMARK    1  A    between atoms: C_6  and  C_7 
REMARK    2  A    between atoms: C_12  and  C_13 
REMARK    3  A    between atoms: C_13  and  N_14 
REMARK    4  A    between atoms: C_17  and  C_19 
REMARK    5  A    between atoms: C_17  and  O_18 
ROOT
HETATM    1  C   UNL     1      42.962 -17.719   1.954  1.00  0.00     0.096 A 
HETATM    2  N   UNL     1      43.422 -17.638   0.700  1.00  0.00    -0.174 NA
HETATM    3  N   UNL     1      42.637 -16.747   0.090  1.00  0.00    -0.288 N 
HETATM    4  H   UNL     1      42.830 -16.521  -0.883  1.00  0.00     0.188 HD
HETATM    5  C   UNL     1      41.666 -16.244   0.907  1.00  0.00     0.120 A 
HETATM    6  C   UNL     1      41.833 -16.855   2.137  1.00  0.00     0.016 A 
ENDROOT
BRANCH   6   7
HETATM    7  C   UNL     1      41.064 -16.606   3.380  1.00  0.00     0.277 C 
BRANCH   7   8
HETATM    8  N   UNL     1      41.330 -15.251   3.978  1.00  0.00    -0.064 N 
HETATM    9  H   UNL     1      41.087 -14.539   3.271  1.00  0.00     0.280 HD
HETATM   10  C   UNL     1      42.768 -14.988   4.382  1.00  0.00     0.282 C 
HETATM   11  C   UNL     1      42.663 -13.745   5.267  1.00  0.00     0.180 C 
HETATM   12  C   UNL     1      41.238 -13.758   5.837  1.00  0.00     0.076 C 
HETATM   13  C   UNL     1      40.553 -14.972   5.229  1.00  0.00     0.238 C 
BRANCH  11  14
HETATM   14  C   UNL     1      43.745 -13.821   6.343  1.00  0.00     0.419 C 
HETATM   15  F   UNL     1      44.974 -13.739   5.798  1.00  0.00    -0.168 F 
HETATM   16  F   UNL     1      43.602 -12.821   7.232  1.00  0.00    -0.168 F 
HETATM   17  F   UNL     1      43.660 -14.995   7.006  1.00  0.00    -0.168 F 
ENDBRANCH  11  14
BRANCH  11  18
HETATM   18  O   UNL     1      42.762 -12.584   4.416  1.00  0.00    -0.379 OA
HETATM   19  H   UNL     1      42.352 -12.793   3.550  1.00  0.00     0.211 HD
ENDBRANCH  11  18
ENDBRANCH   7   8
ENDBRANCH   6   7
BRANCH   1  20
HETATM   20  C   UNL     1      43.630 -18.583   2.924  1.00  0.00    -0.003 A 
HETATM   21  C   UNL     1      44.005 -18.104   4.184  1.00  0.00     0.037 A 
HETATM   22  C   UNL     1      44.671 -18.942   5.080  1.00  0.00     0.035 A 
HETATM   23  C   UNL     1      44.952 -20.263   4.745  1.00  0.00     0.024 A 
HETATM   24 CL   UNL     1      45.158 -18.316   6.607  1.00  0.00    -0.084 Cl
HETATM   25  C   UNL     1      44.558 -20.756   3.502  1.00  0.00     0.003 A 
HETATM   26  C   UNL     1      43.901 -19.920   2.597  1.00  0.00     0.014 A 
ENDBRANCH   1  20
TORSDOF 5
ENDMDL
MODEL 8
REMARK VINA RESULT:      -7.5      3.388      4.719
REMARK  5 active torsions:
REMARK  status: ('A' for Active; 'I' for Inactive)
REMARK    1  A    between atoms: C_6  and  C_7 
REMARK    2  A    between atoms: C_12  and  C_13 
REMARK    3  A    between atoms: C_13  and  N_14 
REMARK    4  A    between atoms: C_17  and  C_19 
REMARK    5  A    between atoms: C_17  and  O_18 
ROOT
HETATM    1  C   UNL     1      42.689 -14.980   2.715  1.00  0.00     0.096 A 
HETATM    2  N   UNL     1      43.526 -13.990   3.046  1.00  0.00    -0.174 NA
HETATM    3  N   UNL     1      42.800 -12.872   2.972  1.00  0.00    -0.288 N 
HETATM    4  H   UNL     1      43.249 -11.989   3.206  1.00  0.00     0.188 HD
HETATM    5  C   UNL     1      41.509 -13.098   2.594  1.00  0.00     0.120 A 
HETATM    6  C   UNL     1      41.388 -14.464   2.407  1.00  0.00     0.016 A 
ENDROOT
BRANCH   6   7
HETATM    7  C   UNL     1      40.165 -15.222   2.048  1.00  0.00     0.277 C 
BRANCH   7   8
HETATM    8  N   UNL     1      39.848 -15.167   0.577  1.00  0.00    -0.064 N 
HETATM    9  H   UNL     1      39.330 -16.025   0.332  1.00  0.00     0.280 HD
HETATM   10  C   UNL     1      41.050 -15.106  -0.346  1.00  0.00     0.282 C 
HETATM   11  C   UNL     1      40.441 -14.687  -1.686  1.00  0.00     0.180 C 
HETATM   12  C   UNL     1      39.151 -13.931  -1.341  1.00  0.00     0.076 C 
HETATM   13  C   UNL     1      39.029 -13.978   0.174  1.00  0.00     0.238 C 
BRANCH  11  14
HETATM   14  C   UNL     1      41.461 -13.833  -2.437  1.00  0.00     0.419 C 
HETATM   15  F   UNL     1      41.991 -14.512  -3.473  1.00  0.00    -0.168 F 
HETATM   16  F   UNL     1      40.885 -12.711  -2.909  1.00  0.00    -0.168 F 
HETATM   17  F   UNL     1      42.469 -13.478  -1.611  1.00  0.00    -0.168 F 
ENDBRANCH  11  14
BRANCH  11  18
HETATM   18  O   UNL     1      40.048 -15.886  -2.388  1.00  0.00    -0.379 OA
HETATM   19  H   UNL     1      40.122 -15.723  -3.352  1.00  0.00     0.211 HD
ENDBRANCH  11  18
ENDBRANCH   7   8
ENDBRANCH   6   7
BRANCH   1  20
HETATM   20  C   UNL     1      43.151 -16.366   2.738  1.00  0.00    -0.003 A 
HETATM   21  C   UNL     1      43.172 -17.104   3.927  1.00  0.00     0.037 A 
HETATM   22  C   UNL     1      43.649 -18.416   3.926  1.00  0.00     0.035 A 
HETATM   23  C   UNL     1      44.087 -19.014   2.748  1.00  0.00     0.024 A 
HETATM   24 CL   UNL     1      43.703 -19.287   5.408  1.00  0.00    -0.084 Cl
HETATM   25  C   UNL     1      44.043 -18.295   1.554  1.00  0.00     0.003 A 
HETATM   26  C   UNL     1      43.578 -16.978   1.550  1.00  0.00     0.014 A 
ENDBRANCH   1  20
TORSDOF 5
ENDMDL
MODEL 9
REMARK VINA RESULT:      -7.3      2.600      3.818
REMARK  5 active torsions:
REMARK  status: ('A' for Active; 'I' for Inactive)
REMARK    1  A    between atoms: C_6  and  C_7 
REMARK    2  A    between atoms: C_12  and  C_13 
REMARK    3  A    between atoms: C_13  and  N_14 
REMARK    4  A    between atoms: C_17  and  C_19 
REMARK    5  A    between atoms: C_17  and  O_18 
ROOT
HETATM    1  C   UNL     1      42.788 -17.429   2.107  1.00  0.00     0.096 A 
HETATM    2  N   UNL     1      43.276 -16.899   0.979  1.00  0.00    -0.174 NA
HETATM    3  N   UNL     1      42.433 -15.916   0.654  1.00  0.00    -0.288 N 
HETATM    4  H   UNL     1      42.634 -15.365  -0.177  1.00  0.00     0.188 HD
HETATM    5  C   UNL     1      41.398 -15.789   1.533  1.00  0.00     0.120 A 
HETATM    6  C   UNL     1      41.582 -16.762   2.501  1.00  0.00     0.016 A 
ENDROOT
BRANCH   6   7
HETATM    7  C   UNL     1      40.757 -17.001   3.709  1.00  0.00     0.277 C 
BRANCH   7   8
HETATM    8  N   UNL     1      40.861 -15.893   4.723  1.00  0.00    -0.064 N 
HETATM    9  H   UNL     1      40.639 -16.289   5.650  1.00  0.00     0.280 HD
HETATM   10  C   UNL     1      39.916 -14.726   4.511  1.00  0.00     0.282 C 
HETATM   11  C   UNL     1      40.492 -13.639   5.420  1.00  0.00     0.180 C 
HETATM   12  C   UNL     1      41.985 -13.966   5.568  1.00  0.00     0.076 C 
HETATM   13  C   UNL     1      42.213 -15.249   4.786  1.00  0.00     0.238 C 
BRANCH  11  14
HETATM   14  C   UNL     1      40.232 -12.278   4.776  1.00  0.00     0.419 C 
HETATM   15  F   UNL     1      40.946 -11.312   5.384  1.00  0.00    -0.168 F 
HETATM   16  F   UNL     1      40.562 -12.300   3.471  1.00  0.00    -0.168 F 
HETATM   17  F   UNL     1      38.923 -11.958   4.879  1.00  0.00    -0.168 F 
ENDBRANCH  11  14
BRANCH  11  18
HETATM   18  O   UNL     1      39.899 -13.793   6.727  1.00  0.00    -0.379 OA
HETATM   19  H   UNL     1      39.022 -13.355   6.728  1.00  0.00     0.211 HD
ENDBRANCH  11  18
ENDBRANCH   7   8
ENDBRANCH   6   7
BRANCH   1  20
HETATM   20  C   UNL     1      43.502 -18.515   2.774  1.00  0.00    -0.003 A 
HETATM   21  C   UNL     1      43.716 -19.742   2.136  1.00  0.00     0.037 A 
HETATM   22  C   UNL     1      44.372 -20.774   2.809  1.00  0.00     0.035 A 
HETATM   23  C   UNL     1      44.840 -20.593   4.108  1.00  0.00     0.024 A 
HETATM   24 CL   UNL     1      44.587 -22.285   2.017  1.00  0.00    -0.084 Cl
HETATM   25  C   UNL     1      44.655 -19.365   4.740  1.00  0.00     0.003 A 
HETATM   26  C   UNL     1      43.989 -18.332   4.077  1.00  0.00     0.014 A 
ENDBRANCH   1  20
TORSDOF 5
ENDMDL
MODEL 10
REMARK VINA RESULT:      -7.3      1.446      2.042
REMARK  5 active torsions:
REMARK  status: ('A' for Active; 'I' for Inactive)
REMARK    1  A    between atoms: C_6  and  C_7 
REMARK    2  A    between atoms: C_12  and  C_13 
REMARK    3  A    between atoms: C_13  and  N_14 
REMARK    4  A    between atoms: C_17  and  C_19 
REMARK    5  A    between atoms: C_17  and  O_18 
ROOT
HETATM    1  C   UNL     1      43.889 -17.613   5.423  1.00  0.00     0.096 A 
HETATM    2  N   UNL     1      44.775 -17.277   6.367  1.00  0.00    -0.174 NA
HETATM    3  N   UNL     1      44.267 -16.195   6.962  1.00  0.00    -0.288 N 
HETATM    4  H   UNL     1      44.785 -15.782   7.734  1.00  0.00     0.188 HD
HETATM    5  C   UNL     1      43.073 -15.806   6.430  1.00  0.00     0.120 A 
HETATM    6  C   UNL     1      42.784 -16.700   5.414  1.00  0.00     0.016 A 
ENDROOT
BRANCH   6   7
HETATM    7  C   UNL     1      41.569 -16.743   4.566  1.00  0.00     0.277 C 
BRANCH   7   8
HETATM    8  N   UNL     1      41.465 -15.572   3.625  1.00  0.00    -0.064 N 
HETATM    9  H   UNL     1      42.023 -14.798   4.018  1.00  0.00     0.280 HD
HETATM   10  C   UNL     1      40.064 -15.032   3.410  1.00  0.00     0.282 C 
HETATM   11  C   UNL     1      40.217 -14.145   2.173  1.00  0.00     0.180 C 
HETATM   12  C   UNL     1      41.420 -14.706   1.402  1.00  0.00     0.076 C 
HETATM   13  C   UNL     1      41.952 -15.860   2.236  1.00  0.00     0.238 C 
BRANCH  11  14
HETATM   14  C   UNL     1      38.913 -14.193   1.377  1.00  0.00     0.419 C 
HETATM   15  F   UNL     1      38.190 -15.282   1.700  1.00  0.00    -0.168 F 
HETATM   16  F   UNL     1      38.169 -13.097   1.619  1.00  0.00    -0.168 F 
HETATM   17  F   UNL     1      39.177 -14.244   0.054  1.00  0.00    -0.168 F 
ENDBRANCH  11  14
BRANCH  11  18
HETATM   18  O   UNL     1      40.585 -12.822   2.618  1.00  0.00    -0.379 OA
HETATM   19  H   UNL     1      39.978 -12.172   2.205  1.00  0.00     0.211 HD
ENDBRANCH  11  18
ENDBRANCH   7   8
ENDBRANCH   6   7
BRANCH   1  20
HETATM   20  C   UNL     1      44.112 -18.799   4.599  1.00  0.00    -0.003 A 
HETATM   21  C   UNL     1      44.490 -20.019   5.170  1.00  0.00     0.037 A 
HETATM   22  C   UNL     1      44.729 -21.128   4.357  1.00  0.00     0.035 A 
HETATM   23  C   UNL     1      44.575 -21.044   2.976  1.00  0.00     0.024 A 
HETATM   24 CL   UNL     1      45.232 -22.604   5.081  1.00  0.00    -0.084 Cl
HETATM   25  C   UNL     1      44.172 -19.840   2.400  1.00  0.00     0.003 A 
HETATM   26  C   UNL     1      43.942 -18.724   3.208  1.00  0.00     0.014 A 
ENDBRANCH   1  20
TORSDOF 5
ENDMDL
