MODEL 1
REMARK VINA RESULT:      -9.0      0.000      0.000
REMARK  7 active torsions:
REMARK  status: ('A' for Active; 'I' for Inactive)
REMARK    1  A    between atoms: C_2  and  C_3 
REMARK    2  A    between atoms: C_3  and  N_4 
REMARK       I    between atoms: N_4  and  C_5 
REMARK    3  A    between atoms: C_5  and  C_6 
REMARK    4  A    between atoms: C_7  and  N_8 
REMARK    5  A    between atoms: N_9  and  N_10 
REMARK    6  A    between atoms: C_11  and  C_12 
REMARK    7  A    between atoms: C_13  and  O_14 
ROOT
HETATM    1  C   UNL     1      41.470 -15.578   4.063  1.00  0.00     0.104 C 
HETATM    2  C   UNL     1      41.658 -15.030   5.325  1.00  0.00     0.123 C 
HETATM    3  N   UNL     1      42.830 -15.563   5.853  1.00  0.00    -0.202 N 
HETATM    4  C   UNL     1      43.122 -16.719   5.150  1.00  0.00     0.183 A 
HETATM    5  C   UNL     1      42.307 -16.726   4.019  1.00  0.00     0.124 A 
HETATM    6  N   UNL     1      42.420 -17.705   3.086  1.00  0.00    -0.242 NA
HETATM    7  C   UNL     1      43.306 -18.668   3.371  1.00  0.00     0.086 A 
HETATM    8  C   UNL     1      44.109 -18.649   4.541  1.00  0.00     0.088 A 
HETATM    9  N   UNL     1      44.051 -17.659   5.449  1.00  0.00    -0.225 NA
HETATM   10  C   UNL     1      43.433 -19.729   2.483  1.00  0.00     0.034 A 
HETATM   11  C   UNL     1      44.327 -20.775   2.718  1.00  0.00     0.002 A 
HETATM   12  C   UNL     1      45.112 -20.758   3.862  1.00  0.00     0.002 A 
HETATM   13  C   UNL     1      44.997 -19.695   4.759  1.00  0.00     0.034 A 
ENDROOT
BRANCH   3  14
HETATM   14  N   UNL     1      43.497 -14.890   6.853  1.00  0.00    -0.176 NA
HETATM   15  C   UNL     1      44.445 -14.087   6.488  1.00  0.00     0.153 C 
BRANCH  15  16
HETATM   16  C   UNL     1      45.056 -13.169   7.481  1.00  0.00     0.017 A 
HETATM   17  C   UNL     1      46.363 -12.683   7.330  1.00  0.00     0.077 A 
HETATM   18  C   UNL     1      46.947 -11.900   8.323  1.00  0.00     0.039 A 
HETATM   19  C   UNL     1      46.228 -11.603   9.479  1.00  0.00     0.022 A 
HETATM   20  C   UNL     1      44.927 -12.086   9.630  1.00  0.00     0.012 A 
HETATM   21 BR   UNL     1      43.964 -11.696  11.210  1.00  0.00    -0.051 Br
HETATM   22  C   UNL     1      44.333 -12.870   8.639  1.00  0.00     0.034 A 
BRANCH  17  23
HETATM   23  O   UNL     1      47.142 -12.968   6.242  1.00  0.00    -0.360 OA
HETATM   24  H   UNL     1      46.540 -12.970   5.467  1.00  0.00     0.217 HD
ENDBRANCH  17  23
ENDBRANCH  15  16
ENDBRANCH   3  14
BRANCH   2  25
HETATM   25  N   UNL     1      40.982 -14.033   5.978  1.00  0.00    -0.286 NA
HETATM   26  H   UNL     1      41.137 -13.077   5.650  1.00  0.00     0.125 HD
HETATM   27  H   UNL     1      39.979 -14.185   6.111  1.00  0.00     0.125 HD
ENDBRANCH   2  25
BRANCH   1  28
HETATM   28  C   UNL     1      40.634 -15.034   2.995  1.00  0.00     0.257 C 
HETATM   29  N   UNL     1      41.256 -15.055   1.758  1.00  0.00    -0.352 N 
HETATM   30  H   UNL     1      42.169 -15.498   1.763  1.00  0.00     0.163 HD
HETATM   31  O   UNL     1      39.467 -14.702   3.153  1.00  0.00    -0.267 OA
BRANCH  29  32
HETATM   32  C   UNL     1      40.523 -15.107   0.501  1.00  0.00     0.080 C 
HETATM   33  C   UNL     1      40.248 -13.709  -0.052  1.00  0.00     0.032 C 
BRANCH  32  34
HETATM   34  C   UNL     1      41.308 -15.930  -0.541  1.00  0.00     0.020 C 
HETATM   35  C   UNL     1      40.934 -15.604  -1.984  1.00  0.00     0.007 C 
ENDBRANCH  32  34
ENDBRANCH  29  32
ENDBRANCH   1  28
TORSDOF 7
ENDMDL
MODEL 2
REMARK VINA RESULT:      -8.7      3.151      8.365
REMARK  7 active torsions:
REMARK  status: ('A' for Active; 'I' for Inactive)
REMARK    1  A    between atoms: C_2  and  C_3 
REMARK    2  A    between atoms: C_3  and  N_4 
REMARK       I    between atoms: N_4  and  C_5 
REMARK    3  A    between atoms: C_5  and  C_6 
REMARK    4  A    between atoms: C_7  and  N_8 
REMARK    5  A    between atoms: N_9  and  N_10 
REMARK    6  A    between atoms: C_11  and  C_12 
REMARK    7  A    between atoms: C_13  and  O_14 
ROOT
HETATM    1  C   UNL     1      43.632 -14.225   6.613  1.00  0.00     0.104 C 
HETATM    2  C   UNL     1      43.494 -15.606   6.554  1.00  0.00     0.123 C 
HETATM    3  N   UNL     1      42.699 -15.910   5.454  1.00  0.00    -0.202 N 
HETATM    4  C   UNL     1      42.006 -14.764   5.104  1.00  0.00     0.183 A 
HETATM    5  C   UNL     1      42.594 -13.705   5.793  1.00  0.00     0.124 A 
HETATM    6  N   UNL     1      42.178 -12.428   5.595  1.00  0.00    -0.242 NA
HETATM    7  C   UNL     1      41.141 -12.287   4.758  1.00  0.00     0.086 A 
HETATM    8  C   UNL     1      40.545 -13.387   4.085  1.00  0.00     0.088 A 
HETATM    9  N   UNL     1      40.979 -14.651   4.227  1.00  0.00    -0.225 NA
HETATM   10  C   UNL     1      40.631 -11.013   4.551  1.00  0.00     0.034 A 
HETATM   11  C   UNL     1      39.545 -10.789   3.703  1.00  0.00     0.002 A 
HETATM   12  C   UNL     1      38.961 -11.862   3.045  1.00  0.00     0.002 A 
HETATM   13  C   UNL     1      39.468 -13.147   3.241  1.00  0.00     0.034 A 
ENDROOT
BRANCH   3  14
HETATM   14  N   UNL     1      42.766 -17.164   4.889  1.00  0.00    -0.176 NA
HETATM   15  C   UNL     1      43.610 -17.328   3.922  1.00  0.00     0.153 C 
BRANCH  15  16
HETATM   16  C   UNL     1      43.895 -18.692   3.415  1.00  0.00     0.017 A 
HETATM   17  C   UNL     1      43.637 -19.055   2.084  1.00  0.00     0.077 A 
HETATM   18  C   UNL     1      43.823 -20.367   1.657  1.00  0.00     0.039 A 
HETATM   19  C   UNL     1      44.264 -21.331   2.563  1.00  0.00     0.022 A 
HETATM   20  C   UNL     1      44.521 -20.972   3.888  1.00  0.00     0.012 A 
HETATM   21 BR   UNL     1      45.099 -22.288   5.116  1.00  0.00    -0.051 Br
HETATM   22  C   UNL     1      44.339 -19.657   4.323  1.00  0.00     0.034 A 
BRANCH  17  23
HETATM   23  O   UNL     1      43.164 -18.172   1.151  1.00  0.00    -0.360 OA
HETATM   24  H   UNL     1      43.638 -17.327   1.308  1.00  0.00     0.217 HD
ENDBRANCH  17  23
ENDBRANCH  15  16
ENDBRANCH   3  14
BRANCH   2  25
HETATM   25  N   UNL     1      44.097 -16.597   7.282  1.00  0.00    -0.286 NA
HETATM   26  H   UNL     1      43.611 -16.915   8.125  1.00  0.00     0.125 HD
HETATM   27  H   UNL     1      44.416 -17.412   6.751  1.00  0.00     0.125 HD
ENDBRANCH   2  25
BRANCH   1  28
HETATM   28  C   UNL     1      44.674 -13.486   7.322  1.00  0.00     0.257 C 
HETATM   29  N   UNL     1      44.185 -12.745   8.384  1.00  0.00    -0.352 N 
HETATM   30  H   UNL     1      43.191 -12.872   8.552  1.00  0.00     0.163 HD
HETATM   31  O   UNL     1      45.868 -13.598   7.077  1.00  0.00    -0.267 OA
BRANCH  29  32
HETATM   32  C   UNL     1      44.992 -12.386   9.542  1.00  0.00     0.080 C 
HETATM   33  C   UNL     1      45.764 -11.087   9.313  1.00  0.00     0.032 C 
BRANCH  32  34
HETATM   34  C   UNL     1      44.099 -12.243  10.791  1.00  0.00     0.020 C 
HETATM   35  C   UNL     1      44.110 -10.841  11.393  1.00  0.00     0.007 C 
ENDBRANCH  32  34
ENDBRANCH  29  32
ENDBRANCH   1  28
TORSDOF 7
ENDMDL
MODEL 3
REMARK VINA RESULT:      -8.7      2.896      7.267
REMARK  7 active torsions:
REMARK  status: ('A' for Active; 'I' for Inactive)
REMARK    1  A    between atoms: C_2  and  C_3 
REMARK    2  A    between atoms: C_3  and  N_4 
REMARK       I    between atoms: N_4  and  C_5 
REMARK    3  A    between atoms: C_5  and  C_6 
REMARK    4  A    between atoms: C_7  and  N_8 
REMARK    5  A    between atoms: N_9  and  N_10 
REMARK    6  A    between atoms: C_11  and  C_12 
REMARK    7  A    between atoms: C_13  and  O_14 
ROOT
HETATM    1  C   UNL     1      43.536 -15.248   5.638  1.00  0.00     0.104 C 
HETATM    2  C   UNL     1      42.729 -14.351   4.949  1.00  0.00     0.123 C 
HETATM    3  N   UNL     1      41.962 -15.074   4.042  1.00  0.00    -0.202 N 
HETATM    4  C   UNL     1      42.574 -16.302   3.856  1.00  0.00     0.183 A 
HETATM    5  C   UNL     1      43.533 -16.436   4.858  1.00  0.00     0.124 A 
HETATM    6  N   UNL     1      44.251 -17.581   4.985  1.00  0.00    -0.242 NA
HETATM    7  C   UNL     1      44.015 -18.512   4.052  1.00  0.00     0.086 A 
HETATM    8  C   UNL     1      43.047 -18.341   3.027  1.00  0.00     0.088 A 
HETATM    9  N   UNL     1      42.286 -17.238   2.918  1.00  0.00    -0.225 NA
HETATM   10  C   UNL     1      44.754 -19.686   4.091  1.00  0.00     0.034 A 
HETATM   11  C   UNL     1      44.572 -20.697   3.146  1.00  0.00     0.002 A 
HETATM   12  C   UNL     1      43.627 -20.532   2.143  1.00  0.00     0.002 A 
HETATM   13  C   UNL     1      42.874 -19.358   2.096  1.00  0.00     0.034 A 
ENDROOT
BRANCH   3  14
HETATM   14  N   UNL     1      40.784 -14.541   3.566  1.00  0.00    -0.176 NA
HETATM   15  C   UNL     1      40.830 -13.956   2.412  1.00  0.00     0.153 C 
BRANCH  15  16
HETATM   16  C   UNL     1      39.570 -13.554   1.739  1.00  0.00     0.017 A 
HETATM   17  C   UNL     1      38.542 -14.475   1.486  1.00  0.00     0.077 A 
HETATM   18  C   UNL     1      37.410 -14.095   0.769  1.00  0.00     0.039 A 
HETATM   19  C   UNL     1      37.302 -12.789   0.292  1.00  0.00     0.022 A 
HETATM   20  C   UNL     1      38.325 -11.872   0.543  1.00  0.00     0.012 A 
HETATM   21 BR   UNL     1      38.180 -10.109  -0.123  1.00  0.00    -0.051 Br
HETATM   22  C   UNL     1      39.462 -12.245   1.263  1.00  0.00     0.034 A 
BRANCH  17  23
HETATM   23  O   UNL     1      38.598 -15.782   1.888  1.00  0.00    -0.360 OA
HETATM   24  H   UNL     1      37.817 -16.224   1.490  1.00  0.00     0.217 HD
ENDBRANCH  17  23
ENDBRANCH  15  16
ENDBRANCH   3  14
BRANCH   2  25
HETATM   25  N   UNL     1      42.520 -13.010   5.136  1.00  0.00    -0.286 NA
HETATM   26  H   UNL     1      42.485 -12.425   4.298  1.00  0.00     0.125 HD
HETATM   27  H   UNL     1      41.742 -12.760   5.752  1.00  0.00     0.125 HD
ENDBRANCH   2  25
BRANCH   1  28
HETATM   28  C   UNL     1      44.187 -15.019   6.926  1.00  0.00     0.257 C 
HETATM   29  N   UNL     1      44.962 -13.872   6.944  1.00  0.00    -0.352 N 
HETATM   30  H   UNL     1      44.915 -13.330   6.087  1.00  0.00     0.163 HD
HETATM   31  O   UNL     1      43.978 -15.703   7.919  1.00  0.00    -0.267 OA
BRANCH  29  32
HETATM   32  C   UNL     1      45.251 -13.127   8.161  1.00  0.00     0.080 C 
HETATM   33  C   UNL     1      46.538 -12.313   8.034  1.00  0.00     0.032 C 
BRANCH  32  34
HETATM   34  C   UNL     1      44.077 -12.188   8.503  1.00  0.00     0.020 C 
HETATM   35  C   UNL     1      44.372 -11.237   9.660  1.00  0.00     0.007 C 
ENDBRANCH  32  34
ENDBRANCH  29  32
ENDBRANCH   1  28
TORSDOF 7
ENDMDL
MODEL 4
REMARK VINA RESULT:      -8.4      3.176      7.427
REMARK  7 active torsions:
REMARK  status: ('A' for Active; 'I' for Inactive)
REMARK    1  A    between atoms: C_2  and  C_3 
REMARK    2  A    between atoms: C_3  and  N_4 
REMARK       I    between atoms: N_4  and  C_5 
REMARK    3  A    between atoms: C_5  and  C_6 
REMARK    4  A    between atoms: C_7  and  N_8 
REMARK    5  A    between atoms: N_9  and  N_10 
REMARK    6  A    between atoms: C_11  and  C_12 
REMARK    7  A    between atoms: C_13  and  O_14 
ROOT
HETATM    1  C   UNL     1      43.576 -15.563   5.327  1.00  0.00     0.104 C 
HETATM    2  C   UNL     1      42.920 -14.671   4.488  1.00  0.00     0.123 C 
HETATM    3  N   UNL     1      42.239 -15.410   3.526  1.00  0.00    -0.202 N 
HETATM    4  C   UNL     1      42.798 -16.675   3.491  1.00  0.00     0.183 A 
HETATM    5  C   UNL     1      43.607 -16.796   4.620  1.00  0.00     0.124 A 
HETATM    6  N   UNL     1      44.236 -17.964   4.904  1.00  0.00    -0.242 NA
HETATM    7  C   UNL     1      44.071 -18.938   3.999  1.00  0.00     0.086 A 
HETATM    8  C   UNL     1      43.259 -18.782   2.845  1.00  0.00     0.088 A 
HETATM    9  N   UNL     1      42.585 -17.651   2.575  1.00  0.00    -0.225 NA
HETATM   10  C   UNL     1      44.731 -20.143   4.202  1.00  0.00     0.034 A 
HETATM   11  C   UNL     1      44.617 -21.199   3.297  1.00  0.00     0.002 A 
HETATM   12  C   UNL     1      43.825 -21.049   2.168  1.00  0.00     0.002 A 
HETATM   13  C   UNL     1      43.153 -19.845   1.956  1.00  0.00     0.034 A 
ENDROOT
BRANCH   3  14
HETATM   14  N   UNL     1      41.168 -14.848   2.866  1.00  0.00    -0.176 NA
HETATM   15  C   UNL     1      41.372 -14.443   1.654  1.00  0.00     0.153 C 
BRANCH  15  16
HETATM   16  C   UNL     1      40.222 -14.033   0.811  1.00  0.00     0.017 A 
HETATM   17  C   UNL     1      39.090 -13.411   1.357  1.00  0.00     0.077 A 
HETATM   18  C   UNL     1      37.985 -13.123   0.560  1.00  0.00     0.039 A 
HETATM   19  C   UNL     1      38.003 -13.461  -0.792  1.00  0.00     0.022 A 
HETATM   20  C   UNL     1      39.129 -14.081  -1.337  1.00  0.00     0.012 A 
HETATM   21 BR   UNL     1      39.138 -14.555  -3.167  1.00  0.00    -0.051 Br
HETATM   22  C   UNL     1      40.242 -14.371  -0.545  1.00  0.00     0.034 A 
BRANCH  17  23
HETATM   23  O   UNL     1      38.986 -13.087   2.683  1.00  0.00    -0.360 OA
HETATM   24  H   UNL     1      39.347 -12.179   2.772  1.00  0.00     0.217 HD
ENDBRANCH  17  23
ENDBRANCH  15  16
ENDBRANCH   3  14
BRANCH   2  25
HETATM   25  N   UNL     1      42.765 -13.313   4.572  1.00  0.00    -0.286 NA
HETATM   26  H   UNL     1      42.352 -12.842   3.763  1.00  0.00     0.125 HD
HETATM   27  H   UNL     1      42.320 -12.964   5.426  1.00  0.00     0.125 HD
ENDBRANCH   2  25
BRANCH   1  28
HETATM   28  C   UNL     1      44.062 -15.289   6.677  1.00  0.00     0.257 C 
HETATM   29  N   UNL     1      44.822 -14.134   6.754  1.00  0.00    -0.352 N 
HETATM   30  H   UNL     1      44.878 -13.619   5.881  1.00  0.00     0.163 HD
HETATM   31  O   UNL     1      43.737 -15.943   7.659  1.00  0.00    -0.267 OA
BRANCH  29  32
HETATM   32  C   UNL     1      44.955 -13.349   7.973  1.00  0.00     0.080 C 
HETATM   33  C   UNL     1      46.300 -12.625   8.037  1.00  0.00     0.032 C 
BRANCH  32  34
HETATM   34  C   UNL     1      43.810 -12.321   8.074  1.00  0.00     0.020 C 
HETATM   35  C   UNL     1      43.903 -11.422   9.303  1.00  0.00     0.007 C 
ENDBRANCH  32  34
ENDBRANCH  29  32
ENDBRANCH   1  28
TORSDOF 7
ENDMDL
MODEL 5
REMARK VINA RESULT:      -8.3      3.983      6.982
REMARK  7 active torsions:
REMARK  status: ('A' for Active; 'I' for Inactive)
REMARK    1  A    between atoms: C_2  and  C_3 
REMARK    2  A    between atoms: C_3  and  N_4 
REMARK       I    between atoms: N_4  and  C_5 
REMARK    3  A    between atoms: C_5  and  C_6 
REMARK    4  A    between atoms: C_7  and  N_8 
REMARK    5  A    between atoms: N_9  and  N_10 
REMARK    6  A    between atoms: C_11  and  C_12 
REMARK    7  A    between atoms: C_13  and  O_14 
ROOT
HETATM    1  C   UNL     1      39.500 -14.415   1.103  1.00  0.00     0.104 C 
HETATM    2  C   UNL     1      40.435 -15.441   1.053  1.00  0.00     0.123 C 
HETATM    3  N   UNL     1      40.888 -15.672   2.348  1.00  0.00    -0.202 N 
HETATM    4  C   UNL     1      40.588 -14.553   3.105  1.00  0.00     0.183 A 
HETATM    5  C   UNL     1      39.704 -13.778   2.357  1.00  0.00     0.124 A 
HETATM    6  N   UNL     1      39.165 -12.644   2.872  1.00  0.00    -0.242 NA
HETATM    7  C   UNL     1      39.597 -12.308   4.095  1.00  0.00     0.086 A 
HETATM    8  C   UNL     1      40.517 -13.104   4.828  1.00  0.00     0.088 A 
HETATM    9  N   UNL     1      41.018 -14.259   4.357  1.00  0.00    -0.225 NA
HETATM   10  C   UNL     1      39.127 -11.130   4.659  1.00  0.00     0.034 A 
HETATM   11  C   UNL     1      39.540 -10.710   5.924  1.00  0.00     0.002 A 
HETATM   12  C   UNL     1      40.439 -11.485   6.641  1.00  0.00     0.002 A 
HETATM   13  C   UNL     1      40.915 -12.675   6.088  1.00  0.00     0.034 A 
ENDROOT
BRANCH   3  14
HETATM   14  N   UNL     1      41.448 -16.889   2.669  1.00  0.00    -0.176 NA
HETATM   15  C   UNL     1      42.737 -16.930   2.779  1.00  0.00     0.153 C 
BRANCH  15  16
HETATM   16  C   UNL     1      43.391 -18.142   3.332  1.00  0.00     0.017 A 
HETATM   17  C   UNL     1      43.969 -18.151   4.610  1.00  0.00     0.077 A 
HETATM   18  C   UNL     1      44.660 -19.270   5.069  1.00  0.00     0.039 A 
HETATM   19  C   UNL     1      44.782 -20.389   4.247  1.00  0.00     0.022 A 
HETATM   20  C   UNL     1      44.207 -20.382   2.975  1.00  0.00     0.012 A 
HETATM   21 BR   UNL     1      44.394 -21.896   1.858  1.00  0.00    -0.051 Br
HETATM   22  C   UNL     1      43.511 -19.264   2.509  1.00  0.00     0.034 A 
BRANCH  17  23
HETATM   23  O   UNL     1      43.924 -17.075   5.455  1.00  0.00    -0.360 OA
HETATM   24  H   UNL     1      43.349 -16.409   5.020  1.00  0.00     0.217 HD
ENDBRANCH  17  23
ENDBRANCH  15  16
ENDBRANCH   3  14
BRANCH   2  25
HETATM   25  N   UNL     1      40.814 -16.257   0.019  1.00  0.00    -0.286 NA
HETATM   26  H   UNL     1      40.363 -17.173  -0.038  1.00  0.00     0.125 HD
HETATM   27  H   UNL     1      40.822 -15.828  -0.910  1.00  0.00     0.125 HD
ENDBRANCH   2  25
BRANCH   1  28
HETATM   28  C   UNL     1      38.486 -14.114   0.096  1.00  0.00     0.257 C 
HETATM   29  N   UNL     1      38.995 -14.078  -1.191  1.00  0.00    -0.352 N 
HETATM   30  H   UNL     1      39.978 -14.324  -1.252  1.00  0.00     0.163 HD
HETATM   31  O   UNL     1      37.291 -14.020   0.347  1.00  0.00    -0.267 OA
BRANCH  29  32
HETATM   32  C   UNL     1      38.189 -14.350  -2.373  1.00  0.00     0.080 C 
HETATM   33  C   UNL     1      37.627 -13.066  -2.983  1.00  0.00     0.032 C 
BRANCH  32  34
HETATM   34  C   UNL     1      39.026 -15.100  -3.429  1.00  0.00     0.020 C 
HETATM   35  C   UNL     1      40.532 -14.916  -3.257  1.00  0.00     0.007 C 
ENDBRANCH  32  34
ENDBRANCH  29  32
ENDBRANCH   1  28
TORSDOF 7
ENDMDL
MODEL 6
REMARK VINA RESULT:      -8.2      4.565      7.121
REMARK  7 active torsions:
REMARK  status: ('A' for Active; 'I' for Inactive)
REMARK    1  A    between atoms: C_2  and  C_3 
REMARK    2  A    between atoms: C_3  and  N_4 
REMARK       I    between atoms: N_4  and  C_5 
REMARK    3  A    between atoms: C_5  and  C_6 
REMARK    4  A    between atoms: C_7  and  N_8 
REMARK    5  A    between atoms: N_9  and  N_10 
REMARK    6  A    between atoms: C_11  and  C_12 
REMARK    7  A    between atoms: C_13  and  O_14 
ROOT
HETATM    1  C   UNL     1      39.635 -13.485   2.567  1.00  0.00     0.104 C 
HETATM    2  C   UNL     1      40.090 -14.557   3.323  1.00  0.00     0.123 C 
HETATM    3  N   UNL     1      40.948 -15.309   2.528  1.00  0.00    -0.202 N 
HETATM    4  C   UNL     1      40.694 -14.982   1.207  1.00  0.00     0.183 A 
HETATM    5  C   UNL     1      39.905 -13.833   1.215  1.00  0.00     0.124 A 
HETATM    6  N   UNL     1      39.554 -13.221   0.056  1.00  0.00    -0.242 NA
HETATM    7  C   UNL     1      39.962 -13.836  -1.062  1.00  0.00     0.086 A 
HETATM    8  C   UNL     1      40.747 -15.019  -1.043  1.00  0.00     0.088 A 
HETATM    9  N   UNL     1      41.151 -15.609   0.095  1.00  0.00    -0.225 NA
HETATM   10  C   UNL     1      39.591 -13.293  -2.285  1.00  0.00     0.034 A 
HETATM   11  C   UNL     1      39.968 -13.884  -3.492  1.00  0.00     0.002 A 
HETATM   12  C   UNL     1      40.734 -15.040  -3.476  1.00  0.00     0.002 A 
HETATM   13  C   UNL     1      41.118 -15.593  -2.253  1.00  0.00     0.034 A 
ENDROOT
BRANCH   3  14
HETATM   14  N   UNL     1      41.879 -16.135   3.118  1.00  0.00    -0.176 NA
HETATM   15  C   UNL     1      41.669 -17.410   3.035  1.00  0.00     0.153 C 
BRANCH  15  16
HETATM   16  C   UNL     1      42.730 -18.360   3.451  1.00  0.00     0.017 A 
HETATM   17  C   UNL     1      43.529 -18.127   4.580  1.00  0.00     0.077 A 
HETATM   18  C   UNL     1      44.580 -18.984   4.895  1.00  0.00     0.039 A 
HETATM   19  C   UNL     1      44.845 -20.081   4.076  1.00  0.00     0.022 A 
HETATM   20  C   UNL     1      44.050 -20.314   2.951  1.00  0.00     0.012 A 
HETATM   21 BR   UNL     1      44.427 -21.791   1.834  1.00  0.00    -0.051 Br
HETATM   22  C   UNL     1      42.993 -19.459   2.631  1.00  0.00     0.034 A 
BRANCH  17  23
HETATM   23  O   UNL     1      43.354 -17.050   5.407  1.00  0.00    -0.360 OA
HETATM   24  H   UNL     1      42.427 -17.097   5.726  1.00  0.00     0.217 HD
ENDBRANCH  17  23
ENDBRANCH  15  16
ENDBRANCH   3  14
BRANCH   2  25
HETATM   25  N   UNL     1      39.927 -14.847   4.652  1.00  0.00    -0.286 NA
HETATM   26  H   UNL     1      40.548 -15.555   5.052  1.00  0.00     0.125 HD
HETATM   27  H   UNL     1      39.884 -14.044   5.284  1.00  0.00     0.125 HD
ENDBRANCH   2  25
BRANCH   1  28
HETATM   28  C   UNL     1      39.063 -12.242   3.077  1.00  0.00     0.257 C 
HETATM   29  N   UNL     1      38.509 -11.452   2.084  1.00  0.00    -0.352 N 
HETATM   30  H   UNL     1      38.526 -11.879   1.162  1.00  0.00     0.163 HD
HETATM   31  O   UNL     1      38.976 -11.976   4.269  1.00  0.00    -0.267 OA
BRANCH  29  32
HETATM   32  C   UNL     1      37.437 -10.498   2.330  1.00  0.00     0.080 C 
HETATM   33  C   UNL     1      37.950  -9.058   2.326  1.00  0.00     0.032 C 
BRANCH  32  34
HETATM   34  C   UNL     1      36.328 -10.655   1.271  1.00  0.00     0.020 C 
HETATM   35  C   UNL     1      36.422 -11.955   0.477  1.00  0.00     0.007 C 
ENDBRANCH  32  34
ENDBRANCH  29  32
ENDBRANCH   1  28
TORSDOF 7
ENDMDL
MODEL 7
REMARK VINA RESULT:      -8.2      3.632      7.472
REMARK  7 active torsions:
REMARK  status: ('A' for Active; 'I' for Inactive)
REMARK    1  A    between atoms: C_2  and  C_3 
REMARK    2  A    between atoms: C_3  and  N_4 
REMARK       I    between atoms: N_4  and  C_5 
REMARK    3  A    between atoms: C_5  and  C_6 
REMARK    4  A    between atoms: C_7  and  N_8 
REMARK    5  A    between atoms: N_9  and  N_10 
REMARK    6  A    between atoms: C_11  and  C_12 
REMARK    7  A    between atoms: C_13  and  O_14 
ROOT
HETATM    1  C   UNL     1      39.847 -13.688   4.850  1.00  0.00     0.104 C 
HETATM    2  C   UNL     1      40.400 -14.890   5.273  1.00  0.00     0.123 C 
HETATM    3  N   UNL     1      41.124 -15.426   4.212  1.00  0.00    -0.202 N 
HETATM    4  C   UNL     1      40.681 -14.819   3.050  1.00  0.00     0.183 A 
HETATM    5  C   UNL     1      39.912 -13.721   3.430  1.00  0.00     0.124 A 
HETATM    6  N   UNL     1      39.398 -12.875   2.501  1.00  0.00    -0.242 NA
HETATM    7  C   UNL     1      39.630 -13.216   1.226  1.00  0.00     0.086 A 
HETATM    8  C   UNL     1      40.399 -14.354   0.865  1.00  0.00     0.088 A 
HETATM    9  N   UNL     1      40.962 -15.171   1.772  1.00  0.00    -0.225 NA
HETATM   10  C   UNL     1      39.088 -12.423   0.223  1.00  0.00     0.034 A 
HETATM   11  C   UNL     1      39.277 -12.722  -1.127  1.00  0.00     0.002 A 
HETATM   12  C   UNL     1      40.027 -13.833  -1.482  1.00  0.00     0.002 A 
HETATM   13  C   UNL     1      40.582 -14.635  -0.483  1.00  0.00     0.034 A 
ENDROOT
BRANCH   3  14
HETATM   14  N   UNL     1      42.124 -16.339   4.461  1.00  0.00    -0.176 NA
HETATM   15  C   UNL     1      41.875 -17.576   4.174  1.00  0.00     0.153 C 
BRANCH  15  16
HETATM   16  C   UNL     1      42.970 -18.576   4.207  1.00  0.00     0.017 A 
HETATM   17  C   UNL     1      43.960 -18.554   5.200  1.00  0.00     0.077 A 
HETATM   18  C   UNL     1      45.031 -19.444   5.155  1.00  0.00     0.039 A 
HETATM   19  C   UNL     1      45.121 -20.362   4.109  1.00  0.00     0.022 A 
HETATM   20  C   UNL     1      44.135 -20.385   3.119  1.00  0.00     0.012 A 
HETATM   21 BR   UNL     1      44.275 -21.618   1.693  1.00  0.00    -0.051 Br
HETATM   22  C   UNL     1      43.058 -19.497   3.159  1.00  0.00     0.034 A 
BRANCH  17  23
HETATM   23  O   UNL     1      43.959 -17.656   6.233  1.00  0.00    -0.360 OA
HETATM   24  H   UNL     1      43.016 -17.476   6.438  1.00  0.00     0.217 HD
ENDBRANCH  17  23
ENDBRANCH  15  16
ENDBRANCH   3  14
BRANCH   2  25
HETATM   25  N   UNL     1      40.433 -15.473   6.512  1.00  0.00    -0.286 NA
HETATM   26  H   UNL     1      40.724 -16.452   6.557  1.00  0.00     0.125 HD
HETATM   27  H   UNL     1      40.917 -14.945   7.243  1.00  0.00     0.125 HD
ENDBRANCH   2  25
BRANCH   1  28
HETATM   28  C   UNL     1      39.368 -12.604   5.703  1.00  0.00     0.257 C 
HETATM   29  N   UNL     1      40.174 -12.388   6.808  1.00  0.00    -0.352 N 
HETATM   30  H   UNL     1      41.007 -12.970   6.829  1.00  0.00     0.163 HD
HETATM   31  O   UNL     1      38.421 -11.885   5.415  1.00  0.00    -0.267 OA
BRANCH  29  32
HETATM   32  C   UNL     1      40.270 -11.103   7.484  1.00  0.00     0.080 C 
HETATM   33  C   UNL     1      39.490 -11.095   8.798  1.00  0.00     0.032 C 
BRANCH  32  34
HETATM   34  C   UNL     1      41.747 -10.752   7.758  1.00  0.00     0.020 C 
HETATM   35  C   UNL     1      42.035 -10.420   9.219  1.00  0.00     0.007 C 
ENDBRANCH  32  34
ENDBRANCH  29  32
ENDBRANCH   1  28
TORSDOF 7
ENDMDL
MODEL 8
REMARK VINA RESULT:      -8.1      3.843      7.460
REMARK  7 active torsions:
REMARK  status: ('A' for Active; 'I' for Inactive)
REMARK    1  A    between atoms: C_2  and  C_3 
REMARK    2  A    between atoms: C_3  and  N_4 
REMARK       I    between atoms: N_4  and  C_5 
REMARK    3  A    between atoms: C_5  and  C_6 
REMARK    4  A    between atoms: C_7  and  N_8 
REMARK    5  A    between atoms: N_9  and  N_10 
REMARK    6  A    between atoms: C_11  and  C_12 
REMARK    7  A    between atoms: C_13  and  O_14 
ROOT
HETATM    1  C   UNL     1      42.785 -14.617   3.758  1.00  0.00     0.104 C 
HETATM    2  C   UNL     1      42.705 -14.023   2.505  1.00  0.00     0.123 C 
HETATM    3  N   UNL     1      42.598 -15.035   1.557  1.00  0.00    -0.202 N 
HETATM    4  C   UNL     1      43.038 -16.210   2.142  1.00  0.00     0.183 A 
HETATM    5  C   UNL     1      43.130 -15.974   3.512  1.00  0.00     0.124 A 
HETATM    6  N   UNL     1      43.466 -16.972   4.369  1.00  0.00    -0.242 NA
HETATM    7  C   UNL     1      43.758 -18.146   3.795  1.00  0.00     0.086 A 
HETATM    8  C   UNL     1      43.678 -18.354   2.392  1.00  0.00     0.088 A 
HETATM    9  N   UNL     1      43.295 -17.394   1.533  1.00  0.00    -0.225 NA
HETATM   10  C   UNL     1      44.162 -19.195   4.610  1.00  0.00     0.034 A 
HETATM   11  C   UNL     1      44.494 -20.444   4.083  1.00  0.00     0.002 A 
HETATM   12  C   UNL     1      44.417 -20.649   2.713  1.00  0.00     0.002 A 
HETATM   13  C   UNL     1      44.008 -19.604   1.883  1.00  0.00     0.034 A 
ENDROOT
BRANCH   3  14
HETATM   14  N   UNL     1      42.057 -14.759   0.321  1.00  0.00    -0.176 NA
HETATM   15  C   UNL     1      40.784 -14.949   0.182  1.00  0.00     0.153 C 
BRANCH  15  16
HETATM   16  C   UNL     1      40.096 -14.469  -1.042  1.00  0.00     0.017 A 
HETATM   17  C   UNL     1      40.550 -14.808  -2.325  1.00  0.00     0.077 A 
HETATM   18  C   UNL     1      39.945 -14.268  -3.458  1.00  0.00     0.039 A 
HETATM   19  C   UNL     1      38.883 -13.376  -3.313  1.00  0.00     0.022 A 
HETATM   20  C   UNL     1      38.431 -13.037  -2.036  1.00  0.00     0.012 A 
HETATM   21 BR   UNL     1      37.003 -11.812  -1.847  1.00  0.00    -0.051 Br
HETATM   22  C   UNL     1      39.031 -13.577  -0.896  1.00  0.00     0.034 A 
BRANCH  17  23
HETATM   23  O   UNL     1      41.612 -15.644  -2.543  1.00  0.00    -0.360 OA
HETATM   24  H   UNL     1      42.394 -15.066  -2.671  1.00  0.00     0.217 HD
ENDBRANCH  17  23
ENDBRANCH  15  16
ENDBRANCH   3  14
BRANCH   2  25
HETATM   25  N   UNL     1      42.587 -12.707   2.145  1.00  0.00    -0.286 NA
HETATM   26  H   UNL     1      42.880 -12.457   1.197  1.00  0.00     0.125 HD
HETATM   27  H   UNL     1      41.685 -12.267   2.344  1.00  0.00     0.125 HD
ENDBRANCH   2  25
BRANCH   1  28
HETATM   28  C   UNL     1      42.504 -13.980   5.041  1.00  0.00     0.257 C 
HETATM   29  N   UNL     1      41.608 -12.928   4.939  1.00  0.00    -0.352 N 
HETATM   30  H   UNL     1      41.235 -12.796   4.003  1.00  0.00     0.163 HD
HETATM   31  O   UNL     1      42.922 -14.400   6.112  1.00  0.00    -0.267 OA
BRANCH  29  32
HETATM   32  C   UNL     1      40.756 -12.499   6.038  1.00  0.00     0.080 C 
HETATM   33  C   UNL     1      41.185 -11.139   6.589  1.00  0.00     0.032 C 
BRANCH  32  34
HETATM   34  C   UNL     1      39.286 -12.429   5.578  1.00  0.00     0.020 C 
HETATM   35  C   UNL     1      39.096 -11.704   4.249  1.00  0.00     0.007 C 
ENDBRANCH  32  34
ENDBRANCH  29  32
ENDBRANCH   1  28
TORSDOF 7
ENDMDL
MODEL 9
REMARK VINA RESULT:      -8.1      3.759      8.069
REMARK  7 active torsions:
REMARK  status: ('A' for Active; 'I' for Inactive)
REMARK    1  A    between atoms: C_2  and  C_3 
REMARK    2  A    between atoms: C_3  and  N_4 
REMARK       I    between atoms: N_4  and  C_5 
REMARK    3  A    between atoms: C_5  and  C_6 
REMARK    4  A    between atoms: C_7  and  N_8 
REMARK    5  A    between atoms: N_9  and  N_10 
REMARK    6  A    between atoms: C_11  and  C_12 
REMARK    7  A    between atoms: C_13  and  O_14 
ROOT
HETATM    1  C   UNL     1      42.303 -17.870   2.446  1.00  0.00     0.104 C 
HETATM    2  C   UNL     1      41.386 -17.239   1.615  1.00  0.00     0.123 C 
HETATM    3  N   UNL     1      41.493 -15.868   1.822  1.00  0.00    -0.202 N 
HETATM    4  C   UNL     1      42.124 -15.673   3.039  1.00  0.00     0.183 A 
HETATM    5  C   UNL     1      42.658 -16.901   3.424  1.00  0.00     0.124 A 
HETATM    6  N   UNL     1      43.408 -17.013   4.549  1.00  0.00    -0.242 NA
HETATM    7  C   UNL     1      43.530 -15.890   5.270  1.00  0.00     0.086 A 
HETATM    8  C   UNL     1      42.957 -14.655   4.866  1.00  0.00     0.088 A 
HETATM    9  N   UNL     1      42.257 -14.513   3.727  1.00  0.00    -0.225 NA
HETATM   10  C   UNL     1      44.240 -15.946   6.461  1.00  0.00     0.034 A 
HETATM   11  C   UNL     1      44.399 -14.821   7.271  1.00  0.00     0.002 A 
HETATM   12  C   UNL     1      43.839 -13.614   6.880  1.00  0.00     0.002 A 
HETATM   13  C   UNL     1      43.127 -13.543   5.682  1.00  0.00     0.034 A 
ENDROOT
BRANCH   3  14
HETATM   14  N   UNL     1      41.061 -14.994   0.849  1.00  0.00    -0.176 NA
HETATM   15  C   UNL     1      41.943 -14.585  -0.006  1.00  0.00     0.153 C 
BRANCH  15  16
HETATM   16  C   UNL     1      41.511 -13.824  -1.203  1.00  0.00     0.017 A 
HETATM   17  C   UNL     1      40.617 -14.364  -2.139  1.00  0.00     0.077 A 
HETATM   18  C   UNL     1      40.301 -13.668  -3.303  1.00  0.00     0.039 A 
HETATM   19  C   UNL     1      40.885 -12.425  -3.543  1.00  0.00     0.022 A 
HETATM   20  C   UNL     1      41.776 -11.886  -2.612  1.00  0.00     0.012 A 
HETATM   21 BR   UNL     1      42.579 -10.209  -2.954  1.00  0.00    -0.051 Br
HETATM   22  C   UNL     1      42.095 -12.577  -1.442  1.00  0.00     0.034 A 
BRANCH  17  23
HETATM   23  O   UNL     1      40.037 -15.595  -1.990  1.00  0.00    -0.360 OA
HETATM   24  H   UNL     1      40.082 -15.805  -1.032  1.00  0.00     0.217 HD
ENDBRANCH  17  23
ENDBRANCH  15  16
ENDBRANCH   3  14
BRANCH   2  25
HETATM   25  N   UNL     1      40.583 -17.740   0.625  1.00  0.00    -0.286 NA
HETATM   26  H   UNL     1      40.659 -17.307  -0.298  1.00  0.00     0.125 HD
HETATM   27  H   UNL     1      40.585 -18.758   0.519  1.00  0.00     0.125 HD
ENDBRANCH   2  25
BRANCH   1  28
HETATM   28  C   UNL     1      42.829 -19.224   2.290  1.00  0.00     0.257 C 
HETATM   29  N   UNL     1      43.909 -19.484   3.117  1.00  0.00    -0.352 N 
HETATM   30  H   UNL     1      44.135 -18.722   3.749  1.00  0.00     0.163 HD
HETATM   31  O   UNL     1      42.302 -20.078   1.589  1.00  0.00    -0.267 OA
BRANCH  29  32
HETATM   32  C   UNL     1      44.260 -20.822   3.570  1.00  0.00     0.080 C 
HETATM   33  C   UNL     1      45.102 -21.567   2.535  1.00  0.00     0.032 C 
BRANCH  32  34
HETATM   34  C   UNL     1      45.027 -20.750   4.905  1.00  0.00     0.020 C 
HETATM   35  C   UNL     1      44.206 -20.162   6.050  1.00  0.00     0.007 C 
ENDBRANCH  32  34
ENDBRANCH  29  32
ENDBRANCH   1  28
TORSDOF 7
ENDMDL
MODEL 10
REMARK VINA RESULT:      -8.0      4.245      7.456
REMARK  7 active torsions:
REMARK  status: ('A' for Active; 'I' for Inactive)
REMARK    1  A    between atoms: C_2  and  C_3 
REMARK    2  A    between atoms: C_3  and  N_4 
REMARK       I    between atoms: N_4  and  C_5 
REMARK    3  A    between atoms: C_5  and  C_6 
REMARK    4  A    between atoms: C_7  and  N_8 
REMARK    5  A    between atoms: N_9  and  N_10 
REMARK    6  A    between atoms: C_11  and  C_12 
REMARK    7  A    between atoms: C_13  and  O_14 
ROOT
HETATM    1  C   UNL     1      40.466 -13.493   2.685  1.00  0.00     0.104 C 
HETATM    2  C   UNL     1      40.446 -14.738   3.301  1.00  0.00     0.123 C 
HETATM    3  N   UNL     1      40.913 -15.676   2.386  1.00  0.00    -0.202 N 
HETATM    4  C   UNL     1      40.807 -15.121   1.122  1.00  0.00     0.183 A 
HETATM    5  C   UNL     1      40.560 -13.760   1.292  1.00  0.00     0.124 A 
HETATM    6  N   UNL     1      40.483 -12.927   0.224  1.00  0.00    -0.242 NA
HETATM    7  C   UNL     1      40.593 -13.520  -0.973  1.00  0.00     0.086 A 
HETATM    8  C   UNL     1      40.823 -14.913  -1.120  1.00  0.00     0.088 A 
HETATM    9  N   UNL     1      40.957 -15.745  -0.072  1.00  0.00    -0.225 NA
HETATM   10  C   UNL     1      40.470 -12.733  -2.111  1.00  0.00     0.034 A 
HETATM   11  C   UNL     1      40.562 -13.281  -3.391  1.00  0.00     0.002 A 
HETATM   12  C   UNL     1      40.785 -14.642  -3.537  1.00  0.00     0.002 A 
HETATM   13  C   UNL     1      40.916 -15.443  -2.401  1.00  0.00     0.034 A 
ENDROOT
BRANCH   3  14
HETATM   14  N   UNL     1      41.426 -16.872   2.836  1.00  0.00    -0.176 NA
HETATM   15  C   UNL     1      42.655 -17.136   2.529  1.00  0.00     0.153 C 
BRANCH  15  16
HETATM   16  C   UNL     1      43.340 -18.292   3.158  1.00  0.00     0.017 A 
HETATM   17  C   UNL     1      43.894 -18.213   4.444  1.00  0.00     0.077 A 
HETATM   18  C   UNL     1      44.614 -19.281   4.973  1.00  0.00     0.039 A 
HETATM   19  C   UNL     1      44.791 -20.437   4.215  1.00  0.00     0.022 A 
HETATM   20  C   UNL     1      44.240 -20.517   2.934  1.00  0.00     0.012 A 
HETATM   21 BR   UNL     1      44.501 -22.080   1.903  1.00  0.00    -0.051 Br
HETATM   22  C   UNL     1      43.515 -19.451   2.397  1.00  0.00     0.034 A 
BRANCH  17  23
HETATM   23  O   UNL     1      43.795 -17.096   5.229  1.00  0.00    -0.360 OA
HETATM   24  H   UNL     1      44.689 -16.690   5.241  1.00  0.00     0.217 HD
ENDBRANCH  17  23
ENDBRANCH  15  16
ENDBRANCH   3  14
BRANCH   2  25
HETATM   25  N   UNL     1      40.188 -15.090   4.599  1.00  0.00    -0.286 NA
HETATM   26  H   UNL     1      40.582 -15.975   4.927  1.00  0.00     0.125 HD
HETATM   27  H   UNL     1      40.358 -14.366   5.302  1.00  0.00     0.125 HD
ENDBRANCH   2  25
BRANCH   1  28
HETATM   28  C   UNL     1      40.460 -12.193   3.353  1.00  0.00     0.257 C 
HETATM   29  N   UNL     1      39.725 -12.191   4.526  1.00  0.00    -0.352 N 
HETATM   30  H   UNL     1      39.353 -13.101   4.780  1.00  0.00     0.163 HD
HETATM   31  O   UNL     1      41.128 -11.238   2.979  1.00  0.00    -0.267 OA
BRANCH  29  32
HETATM   32  C   UNL     1      39.985 -11.273   5.626  1.00  0.00     0.080 C 
HETATM   33  C   UNL     1      39.102 -10.028   5.544  1.00  0.00     0.032 C 
BRANCH  32  34
HETATM   34  C   UNL     1      39.757 -11.980   6.977  1.00  0.00     0.020 C 
HETATM   35  C   UNL     1      39.387 -11.027   8.110  1.00  0.00     0.007 C 
ENDBRANCH  32  34
ENDBRANCH  29  32
ENDBRANCH   1  28
TORSDOF 7
ENDMDL
