MODEL 1
REMARK VINA RESULT:      -9.3      0.000      0.000
REMARK  6 active torsions:
REMARK  status: ('A' for Active; 'I' for Inactive)
REMARK    1  A    between atoms: O_2  and  C_3 
REMARK    2  A    between atoms: C_5  and  C_6 
REMARK    3  A    between atoms: C_12  and  C_13 
REMARK       I    between atoms: C_13  and  N_14 
REMARK    4  A    between atoms: N_14  and  C_15 
REMARK    5  A    between atoms: C_15  and  C_16 
REMARK    6  A    between atoms: C_23  and  C_24 
ROOT
HETATM    1  C   UNL     1      41.672 -17.248   4.843  1.00  0.00     0.118 C 
HETATM    2  N   UNL     1      40.894 -16.382   3.940  1.00  0.00    -0.365 N 
HETATM    3  C   UNL     1      41.442 -15.223   3.474  1.00  0.00     0.138 A 
HETATM    4  N   UNL     1      42.597 -14.717   4.028  1.00  0.00    -0.240 N 
HETATM    5  N   UNL     1      43.034 -13.598   3.436  1.00  0.00    -0.181 NA
HETATM    6  C   UNL     1      42.100 -13.351   2.515  1.00  0.00     0.160 A 
HETATM    7  C   UNL     1      41.083 -14.337   2.475  1.00  0.00     0.096 A 
HETATM    8  C   UNL     1      43.320 -15.337   5.124  1.00  0.00     0.221 C 
HETATM    9  C   UNL     1      42.405 -16.344   5.848  1.00  0.00     0.066 C 
HETATM   10  H   UNL     1      39.886 -16.414   4.104  1.00  0.00     0.161 HD
ENDROOT
BRANCH   7  11
HETATM   11  C   UNL     1      39.984 -14.376   1.526  1.00  0.00     0.257 C 
HETATM   12  N   UNL     1      40.149 -13.596   0.406  1.00  0.00    -0.352 N 
HETATM   13  H   UNL     1      40.928 -12.952   0.408  1.00  0.00     0.163 HD
HETATM   14  O   UNL     1      38.967 -15.026   1.742  1.00  0.00    -0.267 OA
BRANCH  12  15
HETATM   15  C   UNL     1      39.052 -13.357  -0.499  1.00  0.00     0.161 C 
BRANCH  15  16
HETATM   16  C   UNL     1      39.150 -14.226  -1.723  1.00  0.00    -0.041 A 
HETATM   17  C   UNL     1      40.344 -14.901  -2.013  1.00  0.00     0.009 A 
HETATM   18  C   UNL     1      40.441 -15.725  -3.136  1.00  0.00     0.001 A 
HETATM   19  C   UNL     1      39.347 -15.873  -3.986  1.00  0.00     0.000 A 
HETATM   20  C   UNL     1      38.159 -15.196  -3.717  1.00  0.00     0.001 A 
HETATM   21  C   UNL     1      38.059 -14.375  -2.592  1.00  0.00     0.009 A 
ENDBRANCH  15  16
ENDBRANCH  12  15
ENDBRANCH   7  11
BRANCH   1  22
HETATM   22  C   UNL     1      42.574 -18.209   4.066  1.00  0.00    -0.033 A 
HETATM   23  C   UNL     1      43.557 -18.984   4.718  1.00  0.00     0.046 A 
HETATM   24  C   UNL     1      44.387 -19.859   4.013  1.00  0.00     0.068 A 
HETATM   25  C   UNL     1      44.260 -19.950   2.628  1.00  0.00     0.037 A 
HETATM   26  C   UNL     1      43.320 -19.174   1.955  1.00  0.00     0.003 A 
HETATM   27  C   UNL     1      42.492 -18.302   2.666  1.00  0.00     0.009 A 
BRANCH  24  28
HETATM   28  O   UNL     1      45.356 -20.657   4.555  1.00  0.00    -0.356 OA
HETATM   29  C   UNL     1      44.964 -21.964   4.956  1.00  0.00     0.210 C 
ENDBRANCH  24  28
ENDBRANCH   1  22
BRANCH   8  30
HETATM   30  C   UNL     1      43.832 -14.320   6.124  1.00  0.00     0.409 C 
HETATM   31  F   UNL     1      42.932 -13.342   6.374  1.00  0.00    -0.169 F 
HETATM   32  F   UNL     1      44.062 -14.940   7.316  1.00  0.00    -0.169 F 
HETATM   33  F   UNL     1      45.001 -13.749   5.773  1.00  0.00    -0.169 F 
ENDBRANCH   8  30
TORSDOF 6
ENDMDL
MODEL 2
REMARK VINA RESULT:      -9.0      1.077      1.504
REMARK  6 active torsions:
REMARK  status: ('A' for Active; 'I' for Inactive)
REMARK    1  A    between atoms: O_2  and  C_3 
REMARK    2  A    between atoms: C_5  and  C_6 
REMARK    3  A    between atoms: C_12  and  C_13 
REMARK       I    between atoms: C_13  and  N_14 
REMARK    4  A    between atoms: N_14  and  C_15 
REMARK    5  A    between atoms: C_15  and  C_16 
REMARK    6  A    between atoms: C_23  and  C_24 
ROOT
HETATM    1  C   UNL     1      42.121 -17.066   5.683  1.00  0.00     0.118 C 
HETATM    2  N   UNL     1      41.360 -16.292   4.688  1.00  0.00    -0.365 N 
HETATM    3  C   UNL     1      41.926 -15.197   4.105  1.00  0.00     0.138 A 
HETATM    4  N   UNL     1      43.084 -14.649   4.609  1.00  0.00    -0.240 N 
HETATM    5  N   UNL     1      43.539 -13.604   3.905  1.00  0.00    -0.181 NA
HETATM    6  C   UNL     1      42.612 -13.446   2.956  1.00  0.00     0.160 A 
HETATM    7  C   UNL     1      41.583 -14.418   3.014  1.00  0.00     0.096 A 
HETATM    8  C   UNL     1      43.793 -15.156   5.770  1.00  0.00     0.221 C 
HETATM    9  C   UNL     1      42.861 -16.070   6.591  1.00  0.00     0.066 C 
HETATM   10  H   UNL     1      40.350 -16.294   4.848  1.00  0.00     0.161 HD
ENDROOT
BRANCH   7  11
HETATM   11  C   UNL     1      40.489 -14.544   2.068  1.00  0.00     0.257 C 
HETATM   12  N   UNL     1      40.507 -13.646   1.027  1.00  0.00    -0.352 N 
HETATM   13  H   UNL     1      41.173 -12.887   1.089  1.00  0.00     0.163 HD
HETATM   14  O   UNL     1      39.593 -15.368   2.223  1.00  0.00    -0.267 OA
BRANCH  12  15
HETATM   15  C   UNL     1      39.371 -13.503   0.151  1.00  0.00     0.161 C 
BRANCH  15  16
HETATM   16  C   UNL     1      39.606 -14.186  -1.169  1.00  0.00    -0.041 A 
HETATM   17  C   UNL     1      40.777 -14.927  -1.379  1.00  0.00     0.009 A 
HETATM   18  C   UNL     1      40.997 -15.580  -2.593  1.00  0.00     0.001 A 
HETATM   19  C   UNL     1      40.052 -15.490  -3.613  1.00  0.00     0.000 A 
HETATM   20  C   UNL     1      38.890 -14.744  -3.422  1.00  0.00     0.001 A 
HETATM   21  C   UNL     1      38.667 -14.094  -2.206  1.00  0.00     0.009 A 
ENDBRANCH  15  16
ENDBRANCH  12  15
ENDBRANCH   7  11
BRANCH   1  22
HETATM   22  C   UNL     1      43.015 -18.116   5.020  1.00  0.00    -0.033 A 
HETATM   23  C   UNL     1      42.764 -18.572   3.708  1.00  0.00     0.046 A 
HETATM   24  C   UNL     1      43.574 -19.534   3.100  1.00  0.00     0.068 A 
HETATM   25  C   UNL     1      44.643 -20.075   3.813  1.00  0.00     0.037 A 
HETATM   26  C   UNL     1      44.895 -19.666   5.119  1.00  0.00     0.003 A 
HETATM   27  C   UNL     1      44.082 -18.703   5.722  1.00  0.00     0.009 A 
BRANCH  24  28
HETATM   28  O   UNL     1      43.420 -20.029   1.834  1.00  0.00    -0.356 OA
HETATM   29  C   UNL     1      43.566 -21.434   1.669  1.00  0.00     0.210 C 
ENDBRANCH  24  28
ENDBRANCH   1  22
BRANCH   8  30
HETATM   30  C   UNL     1      44.312 -14.046   6.659  1.00  0.00     0.409 C 
HETATM   31  F   UNL     1      43.466 -12.993   6.720  1.00  0.00    -0.169 F 
HETATM   32  F   UNL     1      44.434 -14.512   7.935  1.00  0.00    -0.169 F 
HETATM   33  F   UNL     1      45.534 -13.595   6.313  1.00  0.00    -0.169 F 
ENDBRANCH   8  30
TORSDOF 6
ENDMDL
MODEL 3
REMARK VINA RESULT:      -8.9      2.397      6.855
REMARK  6 active torsions:
REMARK  status: ('A' for Active; 'I' for Inactive)
REMARK    1  A    between atoms: O_2  and  C_3 
REMARK    2  A    between atoms: C_5  and  C_6 
REMARK    3  A    between atoms: C_12  and  C_13 
REMARK       I    between atoms: C_13  and  N_14 
REMARK    4  A    between atoms: N_14  and  C_15 
REMARK    5  A    between atoms: C_15  and  C_16 
REMARK    6  A    between atoms: C_23  and  C_24 
ROOT
HETATM    1  C   UNL     1      43.108 -14.182   3.190  1.00  0.00     0.118 C 
HETATM    2  N   UNL     1      43.417 -15.212   4.197  1.00  0.00    -0.365 N 
HETATM    3  C   UNL     1      42.452 -15.614   5.073  1.00  0.00     0.138 A 
HETATM    4  N   UNL     1      41.281 -14.901   5.208  1.00  0.00    -0.240 N 
HETATM    5  N   UNL     1      40.416 -15.443   6.075  1.00  0.00    -0.181 NA
HETATM    6  C   UNL     1      41.077 -16.502   6.548  1.00  0.00     0.160 A 
HETATM    7  C   UNL     1      42.351 -16.676   5.953  1.00  0.00     0.096 A 
HETATM    8  C   UNL     1      40.967 -13.693   4.466  1.00  0.00     0.221 C 
HETATM    9  C   UNL     1      42.258 -13.096   3.871  1.00  0.00     0.066 C 
HETATM   10  H   UNL     1      44.389 -15.204   4.511  1.00  0.00     0.161 HD
ENDROOT
BRANCH   7  11
HETATM   11  C   UNL     1      43.257 -17.781   6.210  1.00  0.00     0.257 C 
HETATM   12  N   UNL     1      44.088 -18.113   5.166  1.00  0.00    -0.352 N 
HETATM   13  H   UNL     1      43.896 -17.678   4.274  1.00  0.00     0.163 HD
HETATM   14  O   UNL     1      43.241 -18.397   7.271  1.00  0.00    -0.267 OA
BRANCH  12  15
HETATM   15  C   UNL     1      44.868 -19.325   5.195  1.00  0.00     0.161 C 
BRANCH  15  16
HETATM   16  C   UNL     1      44.535 -20.221   4.033  1.00  0.00    -0.041 A 
HETATM   17  C   UNL     1      43.943 -19.687   2.880  1.00  0.00     0.009 A 
HETATM   18  C   UNL     1      43.646 -20.505   1.788  1.00  0.00     0.001 A 
HETATM   19  C   UNL     1      43.930 -21.868   1.843  1.00  0.00     0.000 A 
HETATM   20  C   UNL     1      44.505 -22.414   2.990  1.00  0.00     0.001 A 
HETATM   21  C   UNL     1      44.806 -21.596   4.080  1.00  0.00     0.009 A 
ENDBRANCH  15  16
ENDBRANCH  12  15
ENDBRANCH   7  11
BRANCH   1  22
HETATM   22  C   UNL     1      42.485 -14.789   1.932  1.00  0.00    -0.033 A 
HETATM   23  C   UNL     1      41.744 -14.002   1.025  1.00  0.00     0.046 A 
HETATM   24  C   UNL     1      41.168 -14.552  -0.123  1.00  0.00     0.068 A 
HETATM   25  C   UNL     1      41.307 -15.918  -0.366  1.00  0.00     0.037 A 
HETATM   26  C   UNL     1      42.006 -16.724   0.528  1.00  0.00     0.003 A 
HETATM   27  C   UNL     1      42.580 -16.167   1.673  1.00  0.00     0.009 A 
BRANCH  24  28
HETATM   28  O   UNL     1      40.447 -13.872  -1.064  1.00  0.00    -0.356 OA
HETATM   29  C   UNL     1      39.032 -13.885  -0.925  1.00  0.00     0.210 C 
ENDBRANCH  24  28
ENDBRANCH   1  22
BRANCH   8  30
HETATM   30  C   UNL     1      40.286 -12.649   5.326  1.00  0.00     0.409 C 
HETATM   31  F   UNL     1      40.864 -12.522   6.541  1.00  0.00    -0.169 F 
HETATM   32  F   UNL     1      40.393 -11.431   4.723  1.00  0.00    -0.169 F 
HETATM   33  F   UNL     1      38.966 -12.861   5.499  1.00  0.00    -0.169 F 
ENDBRANCH   8  30
TORSDOF 6
ENDMDL
MODEL 4
REMARK VINA RESULT:      -8.9      3.585      7.551
REMARK  6 active torsions:
REMARK  status: ('A' for Active; 'I' for Inactive)
REMARK    1  A    between atoms: O_2  and  C_3 
REMARK    2  A    between atoms: C_5  and  C_6 
REMARK    3  A    between atoms: C_12  and  C_13 
REMARK       I    between atoms: C_13  and  N_14 
REMARK    4  A    between atoms: N_14  and  C_15 
REMARK    5  A    between atoms: C_15  and  C_16 
REMARK    6  A    between atoms: C_23  and  C_24 
ROOT
HETATM    1  C   UNL     1      43.838 -16.879   2.291  1.00  0.00     0.118 C 
HETATM    2  N   UNL     1      44.041 -16.122   3.538  1.00  0.00    -0.365 N 
HETATM    3  C   UNL     1      42.976 -15.842   4.342  1.00  0.00     0.138 A 
HETATM    4  N   UNL     1      41.687 -16.022   3.892  1.00  0.00    -0.240 N 
HETATM    5  N   UNL     1      40.751 -15.744   4.809  1.00  0.00    -0.181 NA
HETATM    6  C   UNL     1      41.463 -15.320   5.856  1.00  0.00     0.160 A 
HETATM    7  C   UNL     1      42.861 -15.370   5.637  1.00  0.00     0.096 A 
HETATM    8  C   UNL     1      41.341 -16.505   2.567  1.00  0.00     0.221 C 
HETATM    9  C   UNL     1      42.553 -16.357   1.626  1.00  0.00     0.066 C 
HETATM   10  H   UNL     1      44.809 -15.449   3.491  1.00  0.00     0.161 HD
ENDROOT
BRANCH   7  11
HETATM   11  C   UNL     1      43.880 -15.048   6.620  1.00  0.00     0.257 C 
HETATM   12  N   UNL     1      43.841 -13.763   7.106  1.00  0.00    -0.352 N 
HETATM   13  H   UNL     1      43.224 -13.115   6.636  1.00  0.00     0.163 HD
HETATM   14  O   UNL     1      44.739 -15.860   6.951  1.00  0.00    -0.267 OA
BRANCH  12  15
HETATM   15  C   UNL     1      44.922 -13.238   7.904  1.00  0.00     0.161 C 
BRANCH  15  16
HETATM   16  C   UNL     1      44.435 -12.188   8.865  1.00  0.00    -0.041 A 
HETATM   17  C   UNL     1      43.266 -11.467   8.588  1.00  0.00     0.009 A 
HETATM   18  C   UNL     1      42.795 -10.503   9.481  1.00  0.00     0.001 A 
HETATM   19  C   UNL     1      43.496 -10.244  10.657  1.00  0.00     0.000 A 
HETATM   20  C   UNL     1      44.669 -10.943  10.938  1.00  0.00     0.001 A 
HETATM   21  C   UNL     1      45.138 -11.910  10.047  1.00  0.00     0.009 A 
ENDBRANCH  15  16
ENDBRANCH  12  15
ENDBRANCH   7  11
BRANCH   1  22
HETATM   22  C   UNL     1      43.865 -18.390   2.535  1.00  0.00    -0.033 A 
HETATM   23  C   UNL     1      44.426 -18.934   3.711  1.00  0.00     0.046 A 
HETATM   24  C   UNL     1      44.458 -20.313   3.936  1.00  0.00     0.068 A 
HETATM   25  C   UNL     1      43.947 -21.174   2.966  1.00  0.00     0.037 A 
HETATM   26  C   UNL     1      43.416 -20.666   1.784  1.00  0.00     0.003 A 
HETATM   27  C   UNL     1      43.386 -19.287   1.565  1.00  0.00     0.009 A 
BRANCH  24  28
HETATM   28  O   UNL     1      44.967 -20.933   5.044  1.00  0.00    -0.356 OA
HETATM   29  C   UNL     1      44.960 -22.355   5.046  1.00  0.00     0.210 C 
ENDBRANCH  24  28
ENDBRANCH   1  22
BRANCH   8  30
HETATM   30  C   UNL     1      40.158 -15.767   1.976  1.00  0.00     0.409 C 
HETATM   31  F   UNL     1      38.987 -16.406   2.195  1.00  0.00    -0.169 F 
HETATM   32  F   UNL     1      40.044 -14.548   2.576  1.00  0.00    -0.169 F 
HETATM   33  F   UNL     1      40.271 -15.520   0.656  1.00  0.00    -0.169 F 
ENDBRANCH   8  30
TORSDOF 6
ENDMDL
MODEL 5
REMARK VINA RESULT:      -8.4      1.677      2.515
REMARK  6 active torsions:
REMARK  status: ('A' for Active; 'I' for Inactive)
REMARK    1  A    between atoms: O_2  and  C_3 
REMARK    2  A    between atoms: C_5  and  C_6 
REMARK    3  A    between atoms: C_12  and  C_13 
REMARK       I    between atoms: C_13  and  N_14 
REMARK    4  A    between atoms: N_14  and  C_15 
REMARK    5  A    between atoms: C_15  and  C_16 
REMARK    6  A    between atoms: C_23  and  C_24 
ROOT
HETATM    1  C   UNL     1      42.134 -17.294   5.501  1.00  0.00     0.118 C 
HETATM    2  N   UNL     1      41.399 -16.557   4.458  1.00  0.00    -0.365 N 
HETATM    3  C   UNL     1      41.966 -15.461   3.877  1.00  0.00     0.138 A 
HETATM    4  N   UNL     1      43.089 -14.877   4.420  1.00  0.00    -0.240 N 
HETATM    5  N   UNL     1      43.551 -13.837   3.715  1.00  0.00    -0.181 NA
HETATM    6  C   UNL     1      42.664 -13.718   2.724  1.00  0.00     0.160 A 
HETATM    7  C   UNL     1      41.654 -14.712   2.757  1.00  0.00     0.096 A 
HETATM    8  C   UNL     1      43.757 -15.345   5.621  1.00  0.00     0.221 C 
HETATM    9  C   UNL     1      42.811 -16.264   6.420  1.00  0.00     0.066 C 
HETATM   10  H   UNL     1      40.384 -16.580   4.575  1.00  0.00     0.161 HD
ENDROOT
BRANCH   7  11
HETATM   11  C   UNL     1      40.606 -14.882   1.767  1.00  0.00     0.257 C 
HETATM   12  N   UNL     1      39.373 -14.395   2.130  1.00  0.00    -0.352 N 
HETATM   13  H   UNL     1      39.259 -14.109   3.093  1.00  0.00     0.163 HD
HETATM   14  O   UNL     1      40.808 -15.462   0.705  1.00  0.00    -0.267 OA
BRANCH  12  15
HETATM   15  C   UNL     1      38.197 -14.700   1.353  1.00  0.00     0.161 C 
BRANCH  15  16
HETATM   16  C   UNL     1      37.868 -13.586   0.395  1.00  0.00    -0.041 A 
HETATM   17  C   UNL     1      38.237 -13.686  -0.954  1.00  0.00     0.009 A 
HETATM   18  C   UNL     1      37.920 -12.667  -1.854  1.00  0.00     0.001 A 
HETATM   19  C   UNL     1      37.242 -11.534  -1.413  1.00  0.00     0.000 A 
HETATM   20  C   UNL     1      36.883 -11.416  -0.071  1.00  0.00     0.001 A 
HETATM   21  C   UNL     1      37.194 -12.436   0.831  1.00  0.00     0.009 A 
ENDBRANCH  15  16
ENDBRANCH  12  15
ENDBRANCH   7  11
BRANCH   1  22
HETATM   22  C   UNL     1      43.079 -18.336   4.899  1.00  0.00    -0.033 A 
HETATM   23  C   UNL     1      42.895 -18.824   3.588  1.00  0.00     0.046 A 
HETATM   24  C   UNL     1      43.753 -19.779   3.035  1.00  0.00     0.068 A 
HETATM   25  C   UNL     1      44.800 -20.281   3.805  1.00  0.00     0.037 A 
HETATM   26  C   UNL     1      44.986 -19.840   5.112  1.00  0.00     0.003 A 
HETATM   27  C   UNL     1      44.127 -18.884   5.659  1.00  0.00     0.009 A 
BRANCH  24  28
HETATM   28  O   UNL     1      43.664 -20.302   1.775  1.00  0.00    -0.356 OA
HETATM   29  C   UNL     1      43.969 -21.683   1.627  1.00  0.00     0.210 C 
ENDBRANCH  24  28
ENDBRANCH   1  22
BRANCH   8  30
HETATM   30  C   UNL     1      44.213 -14.206   6.509  1.00  0.00     0.409 C 
HETATM   31  F   UNL     1      45.366 -13.645   6.080  1.00  0.00    -0.169 F 
HETATM   32  F   UNL     1      43.275 -13.215   6.483  1.00  0.00    -0.169 F 
HETATM   33  F   UNL     1      44.356 -14.545   7.805  1.00  0.00    -0.169 F 
ENDBRANCH   8  30
TORSDOF 6
ENDMDL
MODEL 6
REMARK VINA RESULT:      -8.4      3.779      7.554
REMARK  6 active torsions:
REMARK  status: ('A' for Active; 'I' for Inactive)
REMARK    1  A    between atoms: O_2  and  C_3 
REMARK    2  A    between atoms: C_5  and  C_6 
REMARK    3  A    between atoms: C_12  and  C_13 
REMARK       I    between atoms: C_13  and  N_14 
REMARK    4  A    between atoms: N_14  and  C_15 
REMARK    5  A    between atoms: C_15  and  C_16 
REMARK    6  A    between atoms: C_23  and  C_24 
ROOT
HETATM    1  C   UNL     1      43.709 -15.646   4.295  1.00  0.00     0.118 C 
HETATM    2  N   UNL     1      43.239 -14.287   4.615  1.00  0.00    -0.365 N 
HETATM    3  C   UNL     1      41.909 -13.996   4.542  1.00  0.00     0.138 A 
HETATM    4  N   UNL     1      41.030 -14.862   3.932  1.00  0.00    -0.240 N 
HETATM    5  N   UNL     1      39.754 -14.457   3.977  1.00  0.00    -0.181 NA
HETATM    6  C   UNL     1      39.829 -13.271   4.585  1.00  0.00     0.160 A 
HETATM    7  C   UNL     1      41.146 -12.927   4.978  1.00  0.00     0.096 A 
HETATM    8  C   UNL     1      41.412 -16.123   3.322  1.00  0.00     0.221 C 
HETATM    9  C   UNL     1      42.932 -16.137   3.062  1.00  0.00     0.066 C 
HETATM   10  H   UNL     1      43.914 -13.554   4.387  1.00  0.00     0.161 HD
ENDROOT
BRANCH   7  11
HETATM   11  C   UNL     1      41.520 -11.740   5.725  1.00  0.00     0.257 C 
HETATM   12  N   UNL     1      41.911 -11.964   7.024  1.00  0.00    -0.352 N 
HETATM   13  H   UNL     1      41.759 -12.893   7.394  1.00  0.00     0.163 HD
HETATM   14  O   UNL     1      41.443 -10.618   5.236  1.00  0.00    -0.267 OA
BRANCH  12  15
HETATM   15  C   UNL     1      42.084 -10.870   7.946  1.00  0.00     0.161 C 
BRANCH  15  16
HETATM   16  C   UNL     1      43.233 -11.119   8.886  1.00  0.00    -0.041 A 
HETATM   17  C   UNL     1      44.239 -12.032   8.541  1.00  0.00     0.009 A 
HETATM   18  C   UNL     1      45.318 -12.257   9.396  1.00  0.00     0.001 A 
HETATM   19  C   UNL     1      45.397 -11.580  10.611  1.00  0.00     0.000 A 
HETATM   20  C   UNL     1      44.395 -10.680  10.972  1.00  0.00     0.001 A 
HETATM   21  C   UNL     1      43.317 -10.450  10.116  1.00  0.00     0.009 A 
ENDBRANCH  15  16
ENDBRANCH  12  15
ENDBRANCH   7  11
BRANCH   1  22
HETATM   22  C   UNL     1      43.633 -16.571   5.512  1.00  0.00    -0.033 A 
HETATM   23  C   UNL     1      43.725 -17.973   5.377  1.00  0.00     0.046 A 
HETATM   24  C   UNL     1      43.651 -18.822   6.484  1.00  0.00     0.068 A 
HETATM   25  C   UNL     1      43.455 -18.275   7.750  1.00  0.00     0.037 A 
HETATM   26  C   UNL     1      43.329 -16.897   7.909  1.00  0.00     0.003 A 
HETATM   27  C   UNL     1      43.405 -16.054   6.799  1.00  0.00     0.009 A 
BRANCH  24  28
HETATM   28  O   UNL     1      43.742 -20.186   6.456  1.00  0.00    -0.356 OA
HETATM   29  C   UNL     1      44.524 -20.759   5.415  1.00  0.00     0.210 C 
ENDBRANCH  24  28
ENDBRANCH   1  22
BRANCH   8  30
HETATM   30  C   UNL     1      40.681 -16.379   2.021  1.00  0.00     0.409 C 
HETATM   31  F   UNL     1      40.651 -15.289   1.221  1.00  0.00    -0.169 F 
HETATM   32  F   UNL     1      41.338 -17.347   1.320  1.00  0.00    -0.169 F 
HETATM   33  F   UNL     1      39.421 -16.830   2.180  1.00  0.00    -0.169 F 
ENDBRANCH   8  30
TORSDOF 6
ENDMDL
MODEL 7
REMARK VINA RESULT:      -8.2      3.499      7.829
REMARK  6 active torsions:
REMARK  status: ('A' for Active; 'I' for Inactive)
REMARK    1  A    between atoms: O_2  and  C_3 
REMARK    2  A    between atoms: C_5  and  C_6 
REMARK    3  A    between atoms: C_12  and  C_13 
REMARK       I    between atoms: C_13  and  N_14 
REMARK    4  A    between atoms: N_14  and  C_15 
REMARK    5  A    between atoms: C_15  and  C_16 
REMARK    6  A    between atoms: C_23  and  C_24 
ROOT
HETATM    1  C   UNL     1      39.144 -14.717   2.485  1.00  0.00     0.118 C 
HETATM    2  N   UNL     1      40.010 -15.803   2.973  1.00  0.00    -0.365 N 
HETATM    3  C   UNL     1      41.224 -16.016   2.389  1.00  0.00     0.138 A 
HETATM    4  N   UNL     1      41.547 -15.413   1.194  1.00  0.00    -0.240 N 
HETATM    5  N   UNL     1      42.787 -15.685   0.769  1.00  0.00    -0.181 NA
HETATM    6  C   UNL     1      43.249 -16.533   1.691  1.00  0.00     0.160 A 
HETATM    7  C   UNL     1      42.328 -16.772   2.741  1.00  0.00     0.096 A 
HETATM    8  C   UNL     1      40.662 -14.526   0.458  1.00  0.00     0.221 C 
HETATM    9  C   UNL     1      39.213 -14.712   0.949  1.00  0.00     0.066 C 
HETATM   10  H   UNL     1      39.497 -16.607   3.341  1.00  0.00     0.161 HD
ENDROOT
BRANCH   7  11
HETATM   11  C   UNL     1      42.583 -17.582   3.918  1.00  0.00     0.257 C 
HETATM   12  N   UNL     1      43.908 -17.850   4.170  1.00  0.00    -0.352 N 
HETATM   13  H   UNL     1      44.570 -17.602   3.447  1.00  0.00     0.163 HD
HETATM   14  O   UNL     1      41.670 -18.030   4.605  1.00  0.00    -0.267 OA
BRANCH  12  15
HETATM   15  C   UNL     1      44.293 -18.825   5.159  1.00  0.00     0.161 C 
BRANCH  15  16
HETATM   16  C   UNL     1      44.430 -20.197   4.555  1.00  0.00    -0.041 A 
HETATM   17  C   UNL     1      44.344 -20.365   3.166  1.00  0.00     0.009 A 
HETATM   18  C   UNL     1      44.488 -21.630   2.593  1.00  0.00     0.001 A 
HETATM   19  C   UNL     1      44.708 -22.740   3.404  1.00  0.00     0.000 A 
HETATM   20  C   UNL     1      44.781 -22.588   4.788  1.00  0.00     0.001 A 
HETATM   21  C   UNL     1      44.642 -21.323   5.362  1.00  0.00     0.009 A 
ENDBRANCH  15  16
ENDBRANCH  12  15
ENDBRANCH   7  11
BRANCH   1  22
HETATM   22  C   UNL     1      39.486 -13.380   3.146  1.00  0.00    -0.033 A 
HETATM   23  C   UNL     1      40.366 -13.308   4.247  1.00  0.00     0.046 A 
HETATM   24  C   UNL     1      40.678 -12.091   4.858  1.00  0.00     0.068 A 
HETATM   25  C   UNL     1      40.085 -10.921   4.386  1.00  0.00     0.037 A 
HETATM   26  C   UNL     1      39.189 -10.966   3.321  1.00  0.00     0.003 A 
HETATM   27  C   UNL     1      38.883 -12.186   2.714  1.00  0.00     0.009 A 
BRANCH  24  28
HETATM   28  O   UNL     1      41.525 -11.918   5.917  1.00  0.00    -0.356 OA
HETATM   29  C   UNL     1      42.551 -12.889   6.086  1.00  0.00     0.210 C 
ENDBRANCH  24  28
ENDBRANCH   1  22
BRANCH   8  30
HETATM   30  C   UNL     1      40.718 -14.767  -1.036  1.00  0.00     0.409 C 
HETATM   31  F   UNL     1      40.906 -16.070  -1.344  1.00  0.00    -0.169 F 
HETATM   32  F   UNL     1      39.524 -14.413  -1.592  1.00  0.00    -0.169 F 
HETATM   33  F   UNL     1      41.654 -14.036  -1.673  1.00  0.00    -0.169 F 
ENDBRANCH   8  30
TORSDOF 6
ENDMDL
MODEL 8
REMARK VINA RESULT:      -8.0      1.783      2.578
REMARK  6 active torsions:
REMARK  status: ('A' for Active; 'I' for Inactive)
REMARK    1  A    between atoms: O_2  and  C_3 
REMARK    2  A    between atoms: C_5  and  C_6 
REMARK    3  A    between atoms: C_12  and  C_13 
REMARK       I    between atoms: C_13  and  N_14 
REMARK    4  A    between atoms: N_14  and  C_15 
REMARK    5  A    between atoms: C_15  and  C_16 
REMARK    6  A    between atoms: C_23  and  C_24 
ROOT
HETATM    1  C   UNL     1      40.775 -16.683   4.964  1.00  0.00     0.118 C 
HETATM    2  N   UNL     1      40.782 -16.512   3.501  1.00  0.00    -0.365 N 
HETATM    3  C   UNL     1      41.333 -15.390   2.953  1.00  0.00     0.138 A 
HETATM    4  N   UNL     1      41.647 -14.303   3.739  1.00  0.00    -0.240 N 
HETATM    5  N   UNL     1      42.218 -13.297   3.064  1.00  0.00    -0.181 NA
HETATM    6  C   UNL     1      42.216 -13.733   1.802  1.00  0.00     0.160 A 
HETATM    7  C   UNL     1      41.690 -15.041   1.664  1.00  0.00     0.096 A 
HETATM    8  C   UNL     1      41.429 -14.238   5.173  1.00  0.00     0.221 C 
HETATM    9  C   UNL     1      40.424 -15.327   5.597  1.00  0.00     0.066 C 
HETATM   10  H   UNL     1      39.984 -16.944   3.032  1.00  0.00     0.161 HD
ENDROOT
BRANCH   7  11
HETATM   11  C   UNL     1      41.636 -15.801   0.428  1.00  0.00     0.257 C 
HETATM   12  N   UNL     1      41.668 -15.051  -0.724  1.00  0.00    -0.352 N 
HETATM   13  H   UNL     1      41.569 -14.050  -0.621  1.00  0.00     0.163 HD
HETATM   14  O   UNL     1      41.522 -17.023   0.426  1.00  0.00    -0.267 OA
BRANCH  12  15
HETATM   15  C   UNL     1      41.389 -15.649  -2.006  1.00  0.00     0.161 C 
BRANCH  15  16
HETATM   16  C   UNL     1      40.032 -15.244  -2.517  1.00  0.00    -0.041 A 
HETATM   17  C   UNL     1      39.501 -15.854  -3.662  1.00  0.00     0.009 A 
HETATM   18  C   UNL     1      38.237 -15.500  -4.135  1.00  0.00     0.001 A 
HETATM   19  C   UNL     1      37.494 -14.524  -3.473  1.00  0.00     0.000 A 
HETATM   20  C   UNL     1      38.017 -13.900  -2.341  1.00  0.00     0.001 A 
HETATM   21  C   UNL     1      39.280 -14.256  -1.865  1.00  0.00     0.009 A 
ENDBRANCH  15  16
ENDBRANCH  12  15
ENDBRANCH   7  11
BRANCH   1  22
HETATM   22  C   UNL     1      42.079 -17.307   5.466  1.00  0.00    -0.033 A 
HETATM   23  C   UNL     1      42.842 -18.171   4.653  1.00  0.00     0.046 A 
HETATM   24  C   UNL     1      44.031 -18.747   5.108  1.00  0.00     0.068 A 
HETATM   25  C   UNL     1      44.462 -18.482   6.407  1.00  0.00     0.037 A 
HETATM   26  C   UNL     1      43.713 -17.658   7.243  1.00  0.00     0.003 A 
HETATM   27  C   UNL     1      42.526 -17.085   6.781  1.00  0.00     0.009 A 
BRANCH  24  28
HETATM   28  O   UNL     1      44.843 -19.583   4.393  1.00  0.00    -0.356 OA
HETATM   29  C   UNL     1      44.895 -20.942   4.809  1.00  0.00     0.210 C 
ENDBRANCH  24  28
ENDBRANCH   1  22
BRANCH   8  30
HETATM   30  C   UNL     1      40.916 -12.884   5.616  1.00  0.00     0.409 C 
HETATM   31  F   UNL     1      40.183 -12.270   4.660  1.00  0.00    -0.169 F 
HETATM   32  F   UNL     1      40.086 -13.048   6.686  1.00  0.00    -0.169 F 
HETATM   33  F   UNL     1      41.883 -12.040   6.025  1.00  0.00    -0.169 F 
ENDBRANCH   8  30
TORSDOF 6
ENDMDL
MODEL 9
REMARK VINA RESULT:      -8.0      3.913      8.227
REMARK  6 active torsions:
REMARK  status: ('A' for Active; 'I' for Inactive)
REMARK    1  A    between atoms: O_2  and  C_3 
REMARK    2  A    between atoms: C_5  and  C_6 
REMARK    3  A    between atoms: C_12  and  C_13 
REMARK       I    between atoms: C_13  and  N_14 
REMARK    4  A    between atoms: N_14  and  C_15 
REMARK    5  A    between atoms: C_15  and  C_16 
REMARK    6  A    between atoms: C_23  and  C_24 
ROOT
HETATM    1  C   UNL     1      37.805 -14.020   0.968  1.00  0.00     0.118 C 
HETATM    2  N   UNL     1      38.760 -14.974   1.559  1.00  0.00    -0.365 N 
HETATM    3  C   UNL     1      40.016 -15.085   1.039  1.00  0.00     0.138 A 
HETATM    4  N   UNL     1      40.328 -14.521  -0.178  1.00  0.00    -0.240 N 
HETATM    5  N   UNL     1      41.609 -14.679  -0.534  1.00  0.00    -0.181 NA
HETATM    6  C   UNL     1      42.116 -15.415   0.458  1.00  0.00     0.160 A 
HETATM    7  C   UNL     1      41.177 -15.692   1.483  1.00  0.00     0.096 A 
HETATM    8  C   UNL     1      39.388 -13.783  -1.004  1.00  0.00     0.221 C 
HETATM    9  C   UNL     1      37.946 -14.098  -0.562  1.00  0.00     0.066 C 
HETATM   10  H   UNL     1      38.319 -15.806   1.956  1.00  0.00     0.161 HD
ENDROOT
BRANCH   7  11
HETATM   11  C   UNL     1      41.462 -16.399   2.718  1.00  0.00     0.257 C 
HETATM   12  N   UNL     1      42.794 -16.638   2.963  1.00  0.00    -0.352 N 
HETATM   13  H   UNL     1      43.439 -16.450   2.207  1.00  0.00     0.163 HD
HETATM   14  O   UNL     1      40.567 -16.790   3.461  1.00  0.00    -0.267 OA
BRANCH  12  15
HETATM   15  C   UNL     1      43.205 -17.525   4.023  1.00  0.00     0.161 C 
BRANCH  15  16
HETATM   16  C   UNL     1      43.603 -18.874   3.488  1.00  0.00    -0.041 A 
HETATM   17  C   UNL     1      44.448 -19.706   4.235  1.00  0.00     0.009 A 
HETATM   18  C   UNL     1      44.808 -20.967   3.757  1.00  0.00     0.001 A 
HETATM   19  C   UNL     1      44.335 -21.404   2.521  1.00  0.00     0.000 A 
HETATM   20  C   UNL     1      43.506 -20.580   1.762  1.00  0.00     0.001 A 
HETATM   21  C   UNL     1      43.141 -19.320   2.241  1.00  0.00     0.009 A 
ENDBRANCH  15  16
ENDBRANCH  12  15
ENDBRANCH   7  11
BRANCH   1  22
HETATM   22  C   UNL     1      37.969 -12.617   1.556  1.00  0.00    -0.033 A 
HETATM   23  C   UNL     1      38.870 -12.364   2.613  1.00  0.00     0.046 A 
HETATM   24  C   UNL     1      39.020 -11.086   3.157  1.00  0.00     0.068 A 
HETATM   25  C   UNL     1      38.243 -10.040   2.662  1.00  0.00     0.037 A 
HETATM   26  C   UNL     1      37.324 -10.267   1.641  1.00  0.00     0.003 A 
HETATM   27  C   UNL     1      37.180 -11.547   1.101  1.00  0.00     0.009 A 
BRANCH  24  28
HETATM   28  O   UNL     1      39.872 -10.740   4.169  1.00  0.00    -0.356 OA
HETATM   29  C   UNL     1      39.507 -11.141   5.484  1.00  0.00     0.210 C 
ENDBRANCH  24  28
ENDBRANCH   1  22
BRANCH   8  30
HETATM   30  C   UNL     1      39.541 -14.103  -2.476  1.00  0.00     0.409 C 
HETATM   31  F   UNL     1      39.767 -15.417  -2.699  1.00  0.00    -0.169 F 
HETATM   32  F   UNL     1      38.379 -13.802  -3.123  1.00  0.00    -0.169 F 
HETATM   33  F   UNL     1      40.503 -13.390  -3.094  1.00  0.00    -0.169 F 
ENDBRANCH   8  30
TORSDOF 6
ENDMDL
MODEL 10
REMARK VINA RESULT:      -8.0      3.731      8.328
REMARK  6 active torsions:
REMARK  status: ('A' for Active; 'I' for Inactive)
REMARK    1  A    between atoms: O_2  and  C_3 
REMARK    2  A    between atoms: C_5  and  C_6 
REMARK    3  A    between atoms: C_12  and  C_13 
REMARK       I    between atoms: C_13  and  N_14 
REMARK    4  A    between atoms: N_14  and  C_15 
REMARK    5  A    between atoms: C_15  and  C_16 
REMARK    6  A    between atoms: C_23  and  C_24 
ROOT
HETATM    1  C   UNL     1      40.295 -15.498   2.726  1.00  0.00     0.118 C 
HETATM    2  N   UNL     1      40.406 -14.627   3.909  1.00  0.00    -0.365 N 
HETATM    3  C   UNL     1      41.559 -14.620   4.639  1.00  0.00     0.138 A 
HETATM    4  N   UNL     1      42.518 -15.589   4.451  1.00  0.00    -0.240 N 
HETATM    5  N   UNL     1      43.609 -15.424   5.210  1.00  0.00    -0.181 NA
HETATM    6  C   UNL     1      43.312 -14.349   5.945  1.00  0.00     0.160 A 
HETATM    7  C   UNL     1      42.051 -13.788   5.629  1.00  0.00     0.096 A 
HETATM    8  C   UNL     1      42.406 -16.679   3.498  1.00  0.00     0.221 C 
HETATM    9  C   UNL     1      40.934 -16.852   3.074  1.00  0.00     0.066 C 
HETATM   10  H   UNL     1      39.519 -14.475   4.394  1.00  0.00     0.161 HD
ENDROOT
BRANCH   7  11
HETATM   11  C   UNL     1      41.499 -12.575   6.205  1.00  0.00     0.257 C 
HETATM   12  N   UNL     1      42.337 -11.899   7.061  1.00  0.00    -0.352 N 
HETATM   13  H   UNL     1      43.187 -12.371   7.336  1.00  0.00     0.163 HD
HETATM   14  O   UNL     1      40.349 -12.214   5.974  1.00  0.00    -0.267 OA
BRANCH  12  15
HETATM   15  C   UNL     1      41.847 -10.818   7.878  1.00  0.00     0.161 C 
BRANCH  15  16
HETATM   16  C   UNL     1      42.658 -10.669   9.137  1.00  0.00    -0.041 A 
HETATM   17  C   UNL     1      43.916 -11.278   9.239  1.00  0.00     0.009 A 
HETATM   18  C   UNL     1      44.685 -11.132  10.395  1.00  0.00     0.001 A 
HETATM   19  C   UNL     1      44.199 -10.383  11.464  1.00  0.00     0.000 A 
HETATM   20  C   UNL     1      42.943  -9.784  11.381  1.00  0.00     0.001 A 
HETATM   21  C   UNL     1      42.174  -9.926  10.224  1.00  0.00     0.009 A 
ENDBRANCH  15  16
ENDBRANCH  12  15
ENDBRANCH   7  11
BRANCH   1  22
HETATM   22  C   UNL     1      40.862 -14.824   1.474  1.00  0.00    -0.033 A 
HETATM   23  C   UNL     1      41.414 -13.526   1.523  1.00  0.00     0.046 A 
HETATM   24  C   UNL     1      41.927 -12.905   0.382  1.00  0.00     0.068 A 
HETATM   25  C   UNL     1      41.870 -13.572  -0.841  1.00  0.00     0.037 A 
HETATM   26  C   UNL     1      41.303 -14.841  -0.924  1.00  0.00     0.003 A 
HETATM   27  C   UNL     1      40.792 -15.457   0.221  1.00  0.00     0.009 A 
BRANCH  24  28
HETATM   28  O   UNL     1      42.491 -11.661   0.331  1.00  0.00    -0.356 OA
HETATM   29  C   UNL     1      42.866 -11.175  -0.952  1.00  0.00     0.210 C 
ENDBRANCH  24  28
ENDBRANCH   1  22
BRANCH   8  30
HETATM   30  C   UNL     1      42.922 -17.989   4.058  1.00  0.00     0.409 C 
HETATM   31  F   UNL     1      42.363 -18.298   5.250  1.00  0.00    -0.169 F 
HETATM   32  F   UNL     1      42.589 -19.002   3.208  1.00  0.00    -0.169 F 
HETATM   33  F   UNL     1      44.262 -18.039   4.186  1.00  0.00    -0.169 F 
ENDBRANCH   8  30
TORSDOF 6
ENDMDL
