MODEL 1
REMARK VINA RESULT:      -8.9      0.000      0.000
REMARK  10 active torsions:
REMARK  status: ('A' for Active; 'I' for Inactive)
REMARK    1  A    between atoms: C_4  and  C_5 
REMARK    2  A    between atoms: C_5  and  C_6 
REMARK    3  A    between atoms: C_6  and  N_7 
REMARK    4  A    between atoms: C_6  and  C_15 
REMARK       I    between atoms: N_7  and  C_8 
REMARK    5  A    between atoms: C_8  and  C_9 
REMARK       I    between atoms: C_15  and  N_16 
REMARK    6  A    between atoms: N_16  and  C_17 
REMARK    7  A    between atoms: C_17  and  C_18 
REMARK    8  A    between atoms: C_18  and  C_19 
REMARK    9  A    between atoms: C_21  and  O_22 
REMARK   10  A    between atoms: C_23  and  O_24 
ROOT
HETATM    1  C   UNL     1      43.814 -14.761   6.426  1.00  0.00     0.181 C 
ENDROOT
BRANCH   1   2
HETATM    2  C   UNL     1      42.543 -14.530   5.582  1.00  0.00     0.073 C 
BRANCH   2   3
HETATM    3  C   UNL     1      42.350 -15.444   4.391  1.00  0.00    -0.056 A 
HETATM    4  C   UNL     1      41.215 -16.258   4.259  1.00  0.00     0.007 A 
HETATM    5  C   UNL     1      41.013 -17.022   3.107  1.00  0.00     0.001 A 
HETATM    6  C   UNL     1      41.931 -16.968   2.061  1.00  0.00     0.000 A 
HETATM    7  C   UNL     1      43.054 -16.151   2.169  1.00  0.00     0.001 A 
HETATM    8  C   UNL     1      43.262 -15.395   3.325  1.00  0.00     0.007 A 
ENDBRANCH   2   3
ENDBRANCH   1   2
BRANCH   1   9
HETATM    9  N   UNL     1      43.975 -13.838   7.555  1.00  0.00    -0.342 N 
HETATM   10  C   UNL     1      45.123 -13.162   7.892  1.00  0.00     0.276 C 
HETATM   11  O   UNL     1      46.121 -13.181   7.174  1.00  0.00    -0.265 OA
HETATM   12  H   UNL     1      43.223 -13.793   8.235  1.00  0.00     0.163 HD
BRANCH  10  13
HETATM   13  C   UNL     1      45.018 -12.390   9.111  1.00  0.00     0.142 A 
HETATM   14  O   UNL     1      44.320 -12.904  10.176  1.00  0.00    -0.317 OA
HETATM   15  C   UNL     1      44.364 -11.978  11.169  1.00  0.00     0.143 A 
HETATM   16  C   UNL     1      45.073 -10.872  10.767  1.00  0.00     0.027 A 
HETATM   17  C   UNL     1      45.498 -11.136   9.441  1.00  0.00     0.045 A 
ENDBRANCH  10  13
ENDBRANCH   1   9
BRANCH   1  18
HETATM   18  C   UNL     1      43.904 -16.266   6.763  1.00  0.00     0.240 C 
HETATM   19  N   UNL     1      44.913 -16.983   6.161  1.00  0.00    -0.359 N 
HETATM   20  H   UNL     1      45.616 -16.441   5.668  1.00  0.00     0.162 HD
HETATM   21  O   UNL     1      43.192 -16.756   7.643  1.00  0.00    -0.271 OA
BRANCH  19  22
HETATM   22  C   UNL     1      45.292 -18.294   6.661  1.00  0.00     0.127 C 
BRANCH  22  23
HETATM   23  C   UNL     1      44.232 -19.375   6.423  1.00  0.00     0.058 C 
BRANCH  23  24
HETATM   24  C   UNL     1      44.264 -20.160   5.127  1.00  0.00    -0.054 A 
HETATM   25  C   UNL     1      44.561 -21.527   5.044  1.00  0.00     0.046 A 
HETATM   26  C   UNL     1      44.624 -22.152   3.800  1.00  0.00     0.099 A 
HETATM   27  C   UNL     1      44.346 -21.444   2.636  1.00  0.00     0.098 A 
HETATM   28  C   UNL     1      44.025 -20.100   2.692  1.00  0.00     0.040 A 
HETATM   29  C   UNL     1      43.992 -19.459   3.933  1.00  0.00     0.010 A 
BRANCH  26  30
HETATM   30  O   UNL     1      44.975 -23.469   3.680  1.00  0.00    -0.358 OA
HETATM   31  H   UNL     1      45.192 -23.795   4.573  1.00  0.00     0.218 HD
ENDBRANCH  26  30
BRANCH  27  32
HETATM   32  O   UNL     1      44.399 -22.072   1.426  1.00  0.00    -0.358 OA
HETATM   33  H   UNL     1      45.260 -21.798   1.051  1.00  0.00     0.218 HD
ENDBRANCH  27  32
ENDBRANCH  23  24
ENDBRANCH  22  23
ENDBRANCH  19  22
ENDBRANCH   1  18
TORSDOF 10
ENDMDL
MODEL 2
REMARK VINA RESULT:      -8.4      2.372      2.863
REMARK  10 active torsions:
REMARK  status: ('A' for Active; 'I' for Inactive)
REMARK    1  A    between atoms: C_4  and  C_5 
REMARK    2  A    between atoms: C_5  and  C_6 
REMARK    3  A    between atoms: C_6  and  N_7 
REMARK    4  A    between atoms: C_6  and  C_15 
REMARK       I    between atoms: N_7  and  C_8 
REMARK    5  A    between atoms: C_8  and  C_9 
REMARK       I    between atoms: C_15  and  N_16 
REMARK    6  A    between atoms: N_16  and  C_17 
REMARK    7  A    between atoms: C_17  and  C_18 
REMARK    8  A    between atoms: C_18  and  C_19 
REMARK    9  A    between atoms: C_21  and  O_22 
REMARK   10  A    between atoms: C_23  and  O_24 
ROOT
HETATM    1  C   UNL     1      42.176 -15.266   5.572  1.00  0.00     0.181 C 
ENDROOT
BRANCH   1   2
HETATM    2  C   UNL     1      41.186 -16.047   4.682  1.00  0.00     0.073 C 
BRANCH   2   3
HETATM    3  C   UNL     1      41.638 -16.341   3.267  1.00  0.00    -0.056 A 
HETATM    4  C   UNL     1      42.930 -16.025   2.823  1.00  0.00     0.007 A 
HETATM    5  C   UNL     1      43.355 -16.391   1.544  1.00  0.00     0.001 A 
HETATM    6  C   UNL     1      42.502 -17.095   0.698  1.00  0.00     0.000 A 
HETATM    7  C   UNL     1      41.221 -17.431   1.131  1.00  0.00     0.001 A 
HETATM    8  C   UNL     1      40.792 -17.057   2.406  1.00  0.00     0.007 A 
ENDBRANCH   2   3
ENDBRANCH   1   2
BRANCH   1   9
HETATM    9  N   UNL     1      41.609 -14.081   6.225  1.00  0.00    -0.342 N 
HETATM   10  C   UNL     1      41.688 -12.788   5.768  1.00  0.00     0.276 C 
HETATM   11  O   UNL     1      42.157 -12.518   4.663  1.00  0.00    -0.265 OA
HETATM   12  H   UNL     1      41.244 -14.193   7.166  1.00  0.00     0.163 HD
BRANCH  10  13
HETATM   13  C   UNL     1      41.117 -11.807   6.665  1.00  0.00     0.142 A 
HETATM   14  O   UNL     1      41.939 -10.889   7.270  1.00  0.00    -0.317 OA
HETATM   15  C   UNL     1      41.157 -10.111   8.062  1.00  0.00     0.143 A 
HETATM   16  C   UNL     1      39.844 -10.510   7.986  1.00  0.00     0.027 A 
HETATM   17  C   UNL     1      39.815 -11.602   7.084  1.00  0.00     0.045 A 
ENDBRANCH  10  13
ENDBRANCH   1   9
BRANCH   1  18
HETATM   18  C   UNL     1      42.889 -16.275   6.501  1.00  0.00     0.240 C 
HETATM   19  N   UNL     1      42.671 -17.612   6.256  1.00  0.00    -0.359 N 
HETATM   20  H   UNL     1      42.187 -17.837   5.391  1.00  0.00     0.162 HD
HETATM   21  O   UNL     1      43.726 -15.890   7.320  1.00  0.00    -0.271 OA
BRANCH  19  22
HETATM   22  C   UNL     1      43.540 -18.624   6.833  1.00  0.00     0.127 C 
BRANCH  22  23
HETATM   23  C   UNL     1      44.752 -18.968   5.960  1.00  0.00     0.058 C 
BRANCH  23  24
HETATM   24  C   UNL     1      44.567 -19.913   4.790  1.00  0.00    -0.054 A 
HETATM   25  C   UNL     1      44.783 -21.296   4.856  1.00  0.00     0.046 A 
HETATM   26  C   UNL     1      44.644 -22.079   3.711  1.00  0.00     0.099 A 
HETATM   27  C   UNL     1      44.243 -21.509   2.508  1.00  0.00     0.098 A 
HETATM   28  C   UNL     1      43.998 -20.150   2.421  1.00  0.00     0.040 A 
HETATM   29  C   UNL     1      44.168 -19.355   3.557  1.00  0.00     0.010 A 
BRANCH  26  30
HETATM   30  O   UNL     1      44.911 -23.421   3.727  1.00  0.00    -0.358 OA
HETATM   31  H   UNL     1      44.782 -23.732   4.642  1.00  0.00     0.218 HD
ENDBRANCH  26  30
BRANCH  27  32
HETATM   32  O   UNL     1      44.099 -22.289   1.398  1.00  0.00    -0.358 OA
HETATM   33  H   UNL     1      43.135 -22.444   1.337  1.00  0.00     0.218 HD
ENDBRANCH  27  32
ENDBRANCH  23  24
ENDBRANCH  22  23
ENDBRANCH  19  22
ENDBRANCH   1  18
TORSDOF 10
ENDMDL
MODEL 3
REMARK VINA RESULT:      -8.3      2.359      3.412
REMARK  10 active torsions:
REMARK  status: ('A' for Active; 'I' for Inactive)
REMARK    1  A    between atoms: C_4  and  C_5 
REMARK    2  A    between atoms: C_5  and  C_6 
REMARK    3  A    between atoms: C_6  and  N_7 
REMARK    4  A    between atoms: C_6  and  C_15 
REMARK       I    between atoms: N_7  and  C_8 
REMARK    5  A    between atoms: C_8  and  C_9 
REMARK       I    between atoms: C_15  and  N_16 
REMARK    6  A    between atoms: N_16  and  C_17 
REMARK    7  A    between atoms: C_17  and  C_18 
REMARK    8  A    between atoms: C_18  and  C_19 
REMARK    9  A    between atoms: C_21  and  O_22 
REMARK   10  A    between atoms: C_23  and  O_24 
ROOT
HETATM    1  C   UNL     1      44.427 -14.512   6.799  1.00  0.00     0.181 C 
ENDROOT
BRANCH   1   2
HETATM    2  C   UNL     1      43.718 -14.021   5.520  1.00  0.00     0.073 C 
BRANCH   2   3
HETATM    3  C   UNL     1      42.245 -13.696   5.648  1.00  0.00    -0.056 A 
HETATM    4  C   UNL     1      41.795 -12.394   5.917  1.00  0.00     0.007 A 
HETATM    5  C   UNL     1      40.430 -12.100   5.937  1.00  0.00     0.001 A 
HETATM    6  C   UNL     1      39.495 -13.097   5.669  1.00  0.00     0.000 A 
HETATM    7  C   UNL     1      39.926 -14.390   5.383  1.00  0.00     0.001 A 
HETATM    8  C   UNL     1      41.290 -14.688   5.372  1.00  0.00     0.007 A 
ENDBRANCH   2   3
ENDBRANCH   1   2
BRANCH   1   9
HETATM    9  N   UNL     1      44.267 -13.635   7.963  1.00  0.00    -0.342 N 
HETATM   10  C   UNL     1      45.229 -12.811   8.496  1.00  0.00     0.276 C 
HETATM   11  O   UNL     1      46.315 -12.641   7.944  1.00  0.00    -0.265 OA
HETATM   12  H   UNL     1      43.422 -13.738   8.516  1.00  0.00     0.163 HD
BRANCH  10  13
HETATM   13  C   UNL     1      44.820 -12.125   9.703  1.00  0.00     0.142 A 
HETATM   14  O   UNL     1      44.294 -12.852  10.742  1.00  0.00    -0.317 OA
HETATM   15  C   UNL     1      43.981 -11.971  11.728  1.00  0.00     0.143 A 
HETATM   16  C   UNL     1      44.291 -10.688  11.346  1.00  0.00     0.027 A 
HETATM   17  C   UNL     1      44.834 -10.785  10.041  1.00  0.00     0.045 A 
ENDBRANCH  10  13
ENDBRANCH   1   9
BRANCH   1  18
HETATM   18  C   UNL     1      44.059 -15.998   7.015  1.00  0.00     0.240 C 
HETATM   19  N   UNL     1      44.283 -16.856   5.962  1.00  0.00    -0.359 N 
HETATM   20  H   UNL     1      44.817 -16.483   5.183  1.00  0.00     0.162 HD
HETATM   21  O   UNL     1      43.723 -16.405   8.129  1.00  0.00    -0.271 OA
BRANCH  19  22
HETATM   22  C   UNL     1      44.297 -18.295   6.169  1.00  0.00     0.127 C 
BRANCH  22  23
HETATM   23  C   UNL     1      43.570 -19.083   5.073  1.00  0.00     0.058 C 
BRANCH  23  24
HETATM   24  C   UNL     1      43.198 -18.375   3.786  1.00  0.00    -0.054 A 
HETATM   25  C   UNL     1      42.001 -17.671   3.594  1.00  0.00     0.046 A 
HETATM   26  C   UNL     1      41.719 -17.101   2.355  1.00  0.00     0.099 A 
HETATM   27  C   UNL     1      42.637 -17.179   1.314  1.00  0.00     0.098 A 
HETATM   28  C   UNL     1      43.837 -17.845   1.484  1.00  0.00     0.040 A 
HETATM   29  C   UNL     1      44.112 -18.448   2.714  1.00  0.00     0.010 A 
BRANCH  26  30
HETATM   30  O   UNL     1      40.532 -16.464   2.116  1.00  0.00    -0.358 OA
HETATM   31  H   UNL     1      39.898 -16.766   2.792  1.00  0.00     0.218 HD
ENDBRANCH  26  30
BRANCH  27  32
HETATM   32  O   UNL     1      42.353 -16.604   0.109  1.00  0.00    -0.358 OA
HETATM   33  H   UNL     1      41.588 -17.114  -0.226  1.00  0.00     0.218 HD
ENDBRANCH  27  32
ENDBRANCH  23  24
ENDBRANCH  22  23
ENDBRANCH  19  22
ENDBRANCH   1  18
TORSDOF 10
ENDMDL
MODEL 4
REMARK VINA RESULT:      -8.3      3.809      7.085
REMARK  10 active torsions:
REMARK  status: ('A' for Active; 'I' for Inactive)
REMARK    1  A    between atoms: C_4  and  C_5 
REMARK    2  A    between atoms: C_5  and  C_6 
REMARK    3  A    between atoms: C_6  and  N_7 
REMARK    4  A    between atoms: C_6  and  C_15 
REMARK       I    between atoms: N_7  and  C_8 
REMARK    5  A    between atoms: C_8  and  C_9 
REMARK       I    between atoms: C_15  and  N_16 
REMARK    6  A    between atoms: N_16  and  C_17 
REMARK    7  A    between atoms: C_17  and  C_18 
REMARK    8  A    between atoms: C_18  and  C_19 
REMARK    9  A    between atoms: C_21  and  O_22 
REMARK   10  A    between atoms: C_23  and  O_24 
ROOT
HETATM    1  C   UNL     1      42.180 -17.616   3.096  1.00  0.00     0.181 C 
ENDROOT
BRANCH   1   2
HETATM    2  C   UNL     1      43.185 -18.267   2.123  1.00  0.00     0.073 C 
BRANCH   2   3
HETATM    3  C   UNL     1      43.753 -19.608   2.537  1.00  0.00    -0.056 A 
HETATM    4  C   UNL     1      44.357 -19.801   3.789  1.00  0.00     0.007 A 
HETATM    5  C   UNL     1      44.789 -21.068   4.187  1.00  0.00     0.001 A 
HETATM    6  C   UNL     1      44.604 -22.165   3.348  1.00  0.00     0.000 A 
HETATM    7  C   UNL     1      43.990 -21.993   2.110  1.00  0.00     0.001 A 
HETATM    8  C   UNL     1      43.568 -20.725   1.707  1.00  0.00     0.007 A 
ENDBRANCH   2   3
ENDBRANCH   1   2
BRANCH   1   9
HETATM    9  N   UNL     1      42.766 -16.632   4.012  1.00  0.00    -0.342 N 
HETATM   10  C   UNL     1      42.806 -16.723   5.383  1.00  0.00     0.276 C 
HETATM   11  O   UNL     1      42.447 -17.739   5.975  1.00  0.00    -0.265 OA
HETATM   12  H   UNL     1      43.046 -15.737   3.624  1.00  0.00     0.163 HD
BRANCH  10  13
HETATM   13  C   UNL     1      43.365 -15.560   6.038  1.00  0.00     0.142 A 
HETATM   14  O   UNL     1      42.816 -14.325   5.798  1.00  0.00    -0.317 OA
HETATM   15  C   UNL     1      43.534 -13.422   6.515  1.00  0.00     0.143 A 
HETATM   16  C   UNL     1      44.540 -14.048   7.211  1.00  0.00     0.027 A 
HETATM   17  C   UNL     1      44.432 -15.427   6.907  1.00  0.00     0.045 A 
ENDBRANCH  10  13
ENDBRANCH   1   9
BRANCH   1  18
HETATM   18  C   UNL     1      40.958 -17.137   2.280  1.00  0.00     0.240 C 
HETATM   19  N   UNL     1      40.218 -16.104   2.810  1.00  0.00    -0.359 N 
HETATM   20  H   UNL     1      40.620 -15.630   3.614  1.00  0.00     0.162 HD
HETATM   21  O   UNL     1      40.754 -17.568   1.143  1.00  0.00    -0.271 OA
BRANCH  19  22
HETATM   22  C   UNL     1      39.278 -15.365   1.984  1.00  0.00     0.127 C 
BRANCH  22  23
HETATM   23  C   UNL     1      39.737 -13.942   1.648  1.00  0.00     0.058 C 
BRANCH  23  24
HETATM   24  C   UNL     1      40.640 -13.728   0.449  1.00  0.00    -0.054 A 
HETATM   25  C   UNL     1      41.592 -12.703   0.356  1.00  0.00     0.046 A 
HETATM   26  C   UNL     1      42.337 -12.548  -0.811  1.00  0.00     0.099 A 
HETATM   27  C   UNL     1      42.183 -13.432  -1.873  1.00  0.00     0.098 A 
HETATM   28  C   UNL     1      41.268 -14.468  -1.798  1.00  0.00     0.040 A 
HETATM   29  C   UNL     1      40.494 -14.609  -0.643  1.00  0.00     0.010 A 
BRANCH  26  30
HETATM   30  O   UNL     1      43.227 -11.520  -0.959  1.00  0.00    -0.358 OA
HETATM   31  H   UNL     1      43.754 -11.703  -1.759  1.00  0.00     0.218 HD
ENDBRANCH  26  30
BRANCH  27  32
HETATM   32  O   UNL     1      42.928 -13.276  -3.005  1.00  0.00    -0.358 OA
HETATM   33  H   UNL     1      42.334 -13.566  -3.726  1.00  0.00     0.218 HD
ENDBRANCH  27  32
ENDBRANCH  23  24
ENDBRANCH  22  23
ENDBRANCH  19  22
ENDBRANCH   1  18
TORSDOF 10
ENDMDL
MODEL 5
REMARK VINA RESULT:      -8.2      4.111      8.368
REMARK  10 active torsions:
REMARK  status: ('A' for Active; 'I' for Inactive)
REMARK    1  A    between atoms: C_4  and  C_5 
REMARK    2  A    between atoms: C_5  and  C_6 
REMARK    3  A    between atoms: C_6  and  N_7 
REMARK    4  A    between atoms: C_6  and  C_15 
REMARK       I    between atoms: N_7  and  C_8 
REMARK    5  A    between atoms: C_8  and  C_9 
REMARK       I    between atoms: C_15  and  N_16 
REMARK    6  A    between atoms: N_16  and  C_17 
REMARK    7  A    between atoms: C_17  and  C_18 
REMARK    8  A    between atoms: C_18  and  C_19 
REMARK    9  A    between atoms: C_21  and  O_22 
REMARK   10  A    between atoms: C_23  and  O_24 
ROOT
HETATM    1  C   UNL     1      41.723 -16.520   1.099  1.00  0.00     0.181 C 
ENDROOT
BRANCH   1   2
HETATM    2  C   UNL     1      41.474 -17.914   1.711  1.00  0.00     0.073 C 
BRANCH   2   3
HETATM    3  C   UNL     1      42.646 -18.557   2.422  1.00  0.00    -0.056 A 
HETATM    4  C   UNL     1      43.032 -18.168   3.714  1.00  0.00     0.007 A 
HETATM    5  C   UNL     1      44.055 -18.839   4.387  1.00  0.00     0.001 A 
HETATM    6  C   UNL     1      44.694 -19.922   3.787  1.00  0.00     0.000 A 
HETATM    7  C   UNL     1      44.311 -20.332   2.513  1.00  0.00     0.001 A 
HETATM    8  C   UNL     1      43.295 -19.655   1.835  1.00  0.00     0.007 A 
ENDBRANCH   2   3
ENDBRANCH   1   2
BRANCH   1   9
HETATM    9  N   UNL     1      41.068 -16.292  -0.194  1.00  0.00    -0.342 N 
HETATM   10  C   UNL     1      41.128 -15.142  -0.942  1.00  0.00     0.276 C 
HETATM   11  O   UNL     1      41.866 -14.207  -0.635  1.00  0.00    -0.265 OA
HETATM   12  H   UNL     1      40.398 -16.987  -0.509  1.00  0.00     0.163 HD
BRANCH  10  13
HETATM   13  C   UNL     1      40.307 -15.166  -2.134  1.00  0.00     0.142 A 
HETATM   14  O   UNL     1      39.343 -14.204  -2.306  1.00  0.00    -0.317 OA
HETATM   15  C   UNL     1      38.717 -14.471  -3.482  1.00  0.00     0.143 A 
HETATM   16  C   UNL     1      39.255 -15.590  -4.072  1.00  0.00     0.027 A 
HETATM   17  C   UNL     1      40.282 -16.039  -3.206  1.00  0.00     0.045 A 
ENDBRANCH  10  13
ENDBRANCH   1   9
BRANCH   1  18
HETATM   18  C   UNL     1      41.455 -15.458   2.190  1.00  0.00     0.240 C 
HETATM   19  N   UNL     1      42.501 -14.629   2.526  1.00  0.00    -0.359 N 
HETATM   20  H   UNL     1      43.319 -14.671   1.925  1.00  0.00     0.162 HD
HETATM   21  O   UNL     1      40.315 -15.277   2.622  1.00  0.00    -0.271 OA
BRANCH  19  22
HETATM   22  C   UNL     1      42.266 -13.404   3.272  1.00  0.00     0.127 C 
BRANCH  22  23
HETATM   23  C   UNL     1      42.947 -13.376   4.644  1.00  0.00     0.058 C 
BRANCH  23  24
HETATM   24  C   UNL     1      42.865 -14.605   5.528  1.00  0.00    -0.054 A 
HETATM   25  C   UNL     1      41.685 -15.323   5.766  1.00  0.00     0.046 A 
HETATM   26  C   UNL     1      41.694 -16.407   6.642  1.00  0.00     0.099 A 
HETATM   27  C   UNL     1      42.875 -16.818   7.248  1.00  0.00     0.098 A 
HETATM   28  C   UNL     1      44.059 -16.143   7.010  1.00  0.00     0.040 A 
HETATM   29  C   UNL     1      44.050 -15.035   6.160  1.00  0.00     0.010 A 
BRANCH  26  30
HETATM   30  O   UNL     1      40.546 -17.088   6.946  1.00  0.00    -0.358 OA
HETATM   31  H   UNL     1      40.465 -17.101   7.917  1.00  0.00     0.218 HD
ENDBRANCH  26  30
BRANCH  27  32
HETATM   32  O   UNL     1      42.871 -17.889   8.093  1.00  0.00    -0.358 OA
HETATM   33  H   UNL     1      43.806 -18.177   8.121  1.00  0.00     0.218 HD
ENDBRANCH  27  32
ENDBRANCH  23  24
ENDBRANCH  22  23
ENDBRANCH  19  22
ENDBRANCH   1  18
TORSDOF 10
ENDMDL
MODEL 6
REMARK VINA RESULT:      -8.1      4.702      7.774
REMARK  10 active torsions:
REMARK  status: ('A' for Active; 'I' for Inactive)
REMARK    1  A    between atoms: C_4  and  C_5 
REMARK    2  A    between atoms: C_5  and  C_6 
REMARK    3  A    between atoms: C_6  and  N_7 
REMARK    4  A    between atoms: C_6  and  C_15 
REMARK       I    between atoms: N_7  and  C_8 
REMARK    5  A    between atoms: C_8  and  C_9 
REMARK       I    between atoms: C_15  and  N_16 
REMARK    6  A    between atoms: N_16  and  C_17 
REMARK    7  A    between atoms: C_17  and  C_18 
REMARK    8  A    between atoms: C_18  and  C_19 
REMARK    9  A    between atoms: C_21  and  O_22 
REMARK   10  A    between atoms: C_23  and  O_24 
ROOT
HETATM    1  C   UNL     1      41.561 -17.566   2.617  1.00  0.00     0.181 C 
ENDROOT
BRANCH   1   2
HETATM    2  C   UNL     1      42.519 -18.188   1.579  1.00  0.00     0.073 C 
BRANCH   2   3
HETATM    3  C   UNL     1      43.219 -19.467   1.988  1.00  0.00    -0.056 A 
HETATM    4  C   UNL     1      42.789 -20.723   1.533  1.00  0.00     0.007 A 
HETATM    5  C   UNL     1      43.506 -21.880   1.846  1.00  0.00     0.001 A 
HETATM    6  C   UNL     1      44.673 -21.797   2.602  1.00  0.00     0.000 A 
HETATM    7  C   UNL     1      45.122 -20.555   3.046  1.00  0.00     0.001 A 
HETATM    8  C   UNL     1      44.400 -19.399   2.742  1.00  0.00     0.007 A 
ENDBRANCH   2   3
ENDBRANCH   1   2
BRANCH   1   9
HETATM    9  N   UNL     1      42.043 -17.614   4.001  1.00  0.00    -0.342 N 
HETATM   10  C   UNL     1      42.986 -16.786   4.560  1.00  0.00     0.276 C 
HETATM   11  O   UNL     1      43.437 -15.815   3.955  1.00  0.00    -0.265 OA
HETATM   12  H   UNL     1      41.766 -18.410   4.567  1.00  0.00     0.163 HD
BRANCH  10  13
HETATM   13  C   UNL     1      43.335 -17.122   5.924  1.00  0.00     0.142 A 
HETATM   14  O   UNL     1      42.633 -16.552   6.957  1.00  0.00    -0.317 OA
HETATM   15  C   UNL     1      43.173 -17.019   8.113  1.00  0.00     0.143 A 
HETATM   16  C   UNL     1      44.214 -17.876   7.848  1.00  0.00     0.027 A 
HETATM   17  C   UNL     1      44.320 -17.946   6.437  1.00  0.00     0.045 A 
ENDBRANCH  10  13
ENDBRANCH   1   9
BRANCH   1  18
HETATM   18  C   UNL     1      41.124 -16.177   2.099  1.00  0.00     0.240 C 
HETATM   19  N   UNL     1      41.759 -15.701   0.974  1.00  0.00    -0.359 N 
HETATM   20  H   UNL     1      42.350 -16.362   0.479  1.00  0.00     0.162 HD
HETATM   21  O   UNL     1      40.153 -15.601   2.593  1.00  0.00    -0.271 OA
BRANCH  19  22
HETATM   22  C   UNL     1      41.201 -14.590   0.221  1.00  0.00     0.127 C 
BRANCH  22  23
HETATM   23  C   UNL     1      41.410 -14.703  -1.293  1.00  0.00     0.058 C 
BRANCH  23  24
HETATM   24  C   UNL     1      40.198 -14.859  -2.190  1.00  0.00    -0.054 A 
HETATM   25  C   UNL     1      40.136 -15.736  -3.281  1.00  0.00     0.046 A 
HETATM   26  C   UNL     1      38.999 -15.769  -4.085  1.00  0.00     0.099 A 
HETATM   27  C   UNL     1      37.899 -14.973  -3.789  1.00  0.00     0.098 A 
HETATM   28  C   UNL     1      37.923 -14.117  -2.703  1.00  0.00     0.040 A 
HETATM   29  C   UNL     1      39.073 -14.055  -1.912  1.00  0.00     0.010 A 
BRANCH  26  30
HETATM   30  O   UNL     1      38.932 -16.567  -5.195  1.00  0.00    -0.358 OA
HETATM   31  H   UNL     1      38.026 -16.922  -5.244  1.00  0.00     0.218 HD
ENDBRANCH  26  30
BRANCH  27  32
HETATM   32  O   UNL     1      36.787 -15.025  -4.578  1.00  0.00    -0.358 OA
HETATM   33  H   UNL     1      36.043 -14.903  -3.954  1.00  0.00     0.218 HD
ENDBRANCH  27  32
ENDBRANCH  23  24
ENDBRANCH  22  23
ENDBRANCH  19  22
ENDBRANCH   1  18
TORSDOF 10
ENDMDL
MODEL 7
REMARK VINA RESULT:      -8.0      5.014      7.528
REMARK  10 active torsions:
REMARK  status: ('A' for Active; 'I' for Inactive)
REMARK    1  A    between atoms: C_4  and  C_5 
REMARK    2  A    between atoms: C_5  and  C_6 
REMARK    3  A    between atoms: C_6  and  N_7 
REMARK    4  A    between atoms: C_6  and  C_15 
REMARK       I    between atoms: N_7  and  C_8 
REMARK    5  A    between atoms: C_8  and  C_9 
REMARK       I    between atoms: C_15  and  N_16 
REMARK    6  A    between atoms: N_16  and  C_17 
REMARK    7  A    between atoms: C_17  and  C_18 
REMARK    8  A    between atoms: C_18  and  C_19 
REMARK    9  A    between atoms: C_21  and  O_22 
REMARK   10  A    between atoms: C_23  and  O_24 
ROOT
HETATM    1  C   UNL     1      41.841 -15.955   3.566  1.00  0.00     0.181 C 
ENDROOT
BRANCH   1   2
HETATM    2  C   UNL     1      43.352 -16.201   3.367  1.00  0.00     0.073 C 
BRANCH   2   3
HETATM    3  C   UNL     1      43.814 -17.642   3.429  1.00  0.00    -0.056 A 
HETATM    4  C   UNL     1      44.075 -18.283   4.649  1.00  0.00     0.007 A 
HETATM    5  C   UNL     1      44.409 -19.639   4.686  1.00  0.00     0.001 A 
HETATM    6  C   UNL     1      44.467 -20.378   3.507  1.00  0.00     0.000 A 
HETATM    7  C   UNL     1      44.194 -19.760   2.289  1.00  0.00     0.001 A 
HETATM    8  C   UNL     1      43.870 -18.402   2.250  1.00  0.00     0.007 A 
ENDBRANCH   2   3
ENDBRANCH   1   2
BRANCH   1   9
HETATM    9  N   UNL     1      41.512 -14.724   4.292  1.00  0.00    -0.342 N 
HETATM   10  C   UNL     1      40.725 -14.630   5.414  1.00  0.00     0.276 C 
HETATM   11  O   UNL     1      40.311 -15.629   6.000  1.00  0.00    -0.265 OA
HETATM   12  H   UNL     1      41.767 -13.842   3.860  1.00  0.00     0.163 HD
BRANCH  10  13
HETATM   13  C   UNL     1      40.495 -13.275   5.866  1.00  0.00     0.142 A 
HETATM   14  O   UNL     1      41.448 -12.316   5.625  1.00  0.00    -0.317 OA
HETATM   15  C   UNL     1      40.993 -11.155   6.164  1.00  0.00     0.143 A 
HETATM   16  C   UNL     1      39.765 -11.345   6.753  1.00  0.00     0.027 A 
HETATM   17  C   UNL     1      39.441 -12.710   6.560  1.00  0.00     0.045 A 
ENDBRANCH  10  13
ENDBRANCH   1   9
BRANCH   1  18
HETATM   18  C   UNL     1      41.137 -16.147   2.203  1.00  0.00     0.240 C 
HETATM   19  N   UNL     1      41.759 -15.611   1.098  1.00  0.00    -0.359 N 
HETATM   20  H   UNL     1      42.705 -15.270   1.236  1.00  0.00     0.162 HD
HETATM   21  O   UNL     1      40.145 -16.872   2.106  1.00  0.00    -0.271 OA
BRANCH  19  22
HETATM   22  C   UNL     1      41.370 -16.019  -0.242  1.00  0.00     0.127 C 
BRANCH  22  23
HETATM   23  C   UNL     1      41.142 -14.848  -1.203  1.00  0.00     0.058 C 
BRANCH  23  24
HETATM   24  C   UNL     1      40.019 -14.940  -2.217  1.00  0.00    -0.054 A 
HETATM   25  C   UNL     1      39.998 -15.846  -3.286  1.00  0.00     0.046 A 
HETATM   26  C   UNL     1      38.950 -15.818  -4.203  1.00  0.00     0.099 A 
HETATM   27  C   UNL     1      37.892 -14.930  -4.043  1.00  0.00     0.098 A 
HETATM   28  C   UNL     1      37.875 -14.042  -2.982  1.00  0.00     0.040 A 
HETATM   29  C   UNL     1      38.940 -14.042  -2.078  1.00  0.00     0.010 A 
BRANCH  26  30
HETATM   30  O   UNL     1      38.932 -16.645  -5.293  1.00  0.00    -0.358 OA
HETATM   31  H   UNL     1      39.618 -16.329  -5.909  1.00  0.00     0.218 HD
ENDBRANCH  26  30
BRANCH  27  32
HETATM   32  O   UNL     1      36.866 -14.922  -4.942  1.00  0.00    -0.358 OA
HETATM   33  H   UNL     1      37.301 -14.759  -5.803  1.00  0.00     0.218 HD
ENDBRANCH  27  32
ENDBRANCH  23  24
ENDBRANCH  22  23
ENDBRANCH  19  22
ENDBRANCH   1  18
TORSDOF 10
ENDMDL
MODEL 8
REMARK VINA RESULT:      -7.8      3.663      7.635
REMARK  10 active torsions:
REMARK  status: ('A' for Active; 'I' for Inactive)
REMARK    1  A    between atoms: C_4  and  C_5 
REMARK    2  A    between atoms: C_5  and  C_6 
REMARK    3  A    between atoms: C_6  and  N_7 
REMARK    4  A    between atoms: C_6  and  C_15 
REMARK       I    between atoms: N_7  and  C_8 
REMARK    5  A    between atoms: C_8  and  C_9 
REMARK       I    between atoms: C_15  and  N_16 
REMARK    6  A    between atoms: N_16  and  C_17 
REMARK    7  A    between atoms: C_17  and  C_18 
REMARK    8  A    between atoms: C_18  and  C_19 
REMARK    9  A    between atoms: C_21  and  O_22 
REMARK   10  A    between atoms: C_23  and  O_24 
ROOT
HETATM    1  C   UNL     1      42.644 -16.503   1.707  1.00  0.00     0.181 C 
ENDROOT
BRANCH   1   2
HETATM    2  C   UNL     1      42.019 -17.909   1.825  1.00  0.00     0.073 C 
BRANCH   2   3
HETATM    3  C   UNL     1      42.904 -18.994   2.403  1.00  0.00    -0.056 A 
HETATM    4  C   UNL     1      43.160 -20.187   1.711  1.00  0.00     0.007 A 
HETATM    5  C   UNL     1      44.053 -21.131   2.221  1.00  0.00     0.001 A 
HETATM    6  C   UNL     1      44.719 -20.889   3.420  1.00  0.00     0.000 A 
HETATM    7  C   UNL     1      44.489 -19.701   4.111  1.00  0.00     0.001 A 
HETATM    8  C   UNL     1      43.588 -18.761   3.606  1.00  0.00     0.007 A 
ENDBRANCH   2   3
ENDBRANCH   1   2
BRANCH   1   9
HETATM    9  N   UNL     1      42.406 -15.832   0.425  1.00  0.00    -0.342 N 
HETATM   10  C   UNL     1      41.194 -15.386  -0.044  1.00  0.00     0.276 C 
HETATM   11  O   UNL     1      40.182 -15.404   0.655  1.00  0.00    -0.265 OA
HETATM   12  H   UNL     1      43.170 -15.813  -0.244  1.00  0.00     0.163 HD
BRANCH  10  13
HETATM   13  C   UNL     1      41.241 -14.843  -1.384  1.00  0.00     0.142 A 
HETATM   14  O   UNL     1      41.963 -13.700  -1.622  1.00  0.00    -0.317 OA
HETATM   15  C   UNL     1      41.823 -13.404  -2.940  1.00  0.00     0.143 A 
HETATM   16  C   UNL     1      41.020 -14.331  -3.560  1.00  0.00     0.027 A 
HETATM   17  C   UNL     1      40.645 -15.262  -2.560  1.00  0.00     0.045 A 
ENDBRANCH  10  13
ENDBRANCH   1   9
BRANCH   1  18
HETATM   18  C   UNL     1      42.266 -15.699   2.972  1.00  0.00     0.240 C 
HETATM   19  N   UNL     1      43.143 -14.716   3.373  1.00  0.00    -0.359 N 
HETATM   20  H   UNL     1      43.889 -14.487   2.723  1.00  0.00     0.162 HD
HETATM   21  O   UNL     1      41.161 -15.841   3.499  1.00  0.00    -0.271 OA
BRANCH  19  22
HETATM   22  C   UNL     1      42.730 -13.696   4.323  1.00  0.00     0.127 C 
BRANCH  22  23
HETATM   23  C   UNL     1      43.290 -13.903   5.734  1.00  0.00     0.058 C 
BRANCH  23  24
HETATM   24  C   UNL     1      43.392 -15.312   6.283  1.00  0.00    -0.054 A 
HETATM   25  C   UNL     1      44.595 -16.018   6.417  1.00  0.00     0.046 A 
HETATM   26  C   UNL     1      44.584 -17.333   6.878  1.00  0.00     0.099 A 
HETATM   27  C   UNL     1      43.392 -17.941   7.255  1.00  0.00     0.098 A 
HETATM   28  C   UNL     1      42.193 -17.258   7.158  1.00  0.00     0.040 A 
HETATM   29  C   UNL     1      42.193 -15.951   6.665  1.00  0.00     0.010 A 
BRANCH  26  30
HETATM   30  O   UNL     1      45.733 -18.071   6.958  1.00  0.00    -0.358 OA
HETATM   31  H   UNL     1      45.611 -18.721   7.675  1.00  0.00     0.218 HD
ENDBRANCH  26  30
BRANCH  27  32
HETATM   32  O   UNL     1      43.397 -19.225   7.717  1.00  0.00    -0.358 OA
HETATM   33  H   UNL     1      42.784 -19.698   7.119  1.00  0.00     0.218 HD
ENDBRANCH  27  32
ENDBRANCH  23  24
ENDBRANCH  22  23
ENDBRANCH  19  22
ENDBRANCH   1  18
TORSDOF 10
ENDMDL
MODEL 9
REMARK VINA RESULT:      -7.8      4.143      8.373
REMARK  10 active torsions:
REMARK  status: ('A' for Active; 'I' for Inactive)
REMARK    1  A    between atoms: C_4  and  C_5 
REMARK    2  A    between atoms: C_5  and  C_6 
REMARK    3  A    between atoms: C_6  and  N_7 
REMARK    4  A    between atoms: C_6  and  C_15 
REMARK       I    between atoms: N_7  and  C_8 
REMARK    5  A    between atoms: C_8  and  C_9 
REMARK       I    between atoms: C_15  and  N_16 
REMARK    6  A    between atoms: N_16  and  C_17 
REMARK    7  A    between atoms: C_17  and  C_18 
REMARK    8  A    between atoms: C_18  and  C_19 
REMARK    9  A    between atoms: C_21  and  O_22 
REMARK   10  A    between atoms: C_23  and  O_24 
ROOT
HETATM    1  C   UNL     1      41.650 -16.558   3.239  1.00  0.00     0.181 C 
ENDROOT
BRANCH   1   2
HETATM    2  C   UNL     1      41.294 -16.026   4.644  1.00  0.00     0.073 C 
BRANCH   2   3
HETATM    3  C   UNL     1      42.452 -15.565   5.504  1.00  0.00    -0.056 A 
HETATM    4  C   UNL     1      43.099 -14.341   5.280  1.00  0.00     0.007 A 
HETATM    5  C   UNL     1      44.101 -13.894   6.143  1.00  0.00     0.001 A 
HETATM    6  C   UNL     1      44.458 -14.654   7.254  1.00  0.00     0.000 A 
HETATM    7  C   UNL     1      43.813 -15.864   7.500  1.00  0.00     0.001 A 
HETATM    8  C   UNL     1      42.818 -16.316   6.632  1.00  0.00     0.007 A 
ENDBRANCH   2   3
ENDBRANCH   1   2
BRANCH   1   9
HETATM    9  N   UNL     1      42.292 -17.876   3.228  1.00  0.00    -0.342 N 
HETATM   10  C   UNL     1      43.465 -18.201   2.591  1.00  0.00     0.276 C 
HETATM   11  O   UNL     1      44.169 -17.347   2.054  1.00  0.00    -0.265 OA
HETATM   12  H   UNL     1      41.765 -18.658   3.604  1.00  0.00     0.163 HD
BRANCH  10  13
HETATM   13  C   UNL     1      43.816 -19.602   2.674  1.00  0.00     0.142 A 
HETATM   14  O   UNL     1      44.549 -20.050   3.745  1.00  0.00    -0.317 OA
HETATM   15  C   UNL     1      44.751 -21.381   3.564  1.00  0.00     0.143 A 
HETATM   16  C   UNL     1      44.167 -21.803   2.394  1.00  0.00     0.027 A 
HETATM   17  C   UNL     1      43.562 -20.659   1.819  1.00  0.00     0.045 A 
ENDBRANCH  10  13
ENDBRANCH   1   9
BRANCH   1  18
HETATM   18  C   UNL     1      40.405 -16.403   2.335  1.00  0.00     0.240 C 
HETATM   19  N   UNL     1      39.612 -15.299   2.548  1.00  0.00    -0.359 N 
HETATM   20  H   UNL     1      39.986 -14.590   3.172  1.00  0.00     0.162 HD
HETATM   21  O   UNL     1      40.228 -17.159   1.378  1.00  0.00    -0.271 OA
BRANCH  19  22
HETATM   22  C   UNL     1      38.636 -14.884   1.554  1.00  0.00     0.127 C 
BRANCH  22  23
HETATM   23  C   UNL     1      38.985 -13.564   0.859  1.00  0.00     0.058 C 
BRANCH  23  24
HETATM   24  C   UNL     1      40.041 -13.566  -0.228  1.00  0.00    -0.054 A 
HETATM   25  C   UNL     1      39.991 -14.376  -1.371  1.00  0.00     0.046 A 
HETATM   26  C   UNL     1      41.039 -14.352  -2.289  1.00  0.00     0.099 A 
HETATM   27  C   UNL     1      42.118 -13.494  -2.110  1.00  0.00     0.098 A 
HETATM   28  C   UNL     1      42.180 -12.664  -1.005  1.00  0.00     0.040 A 
HETATM   29  C   UNL     1      41.148 -12.708  -0.063  1.00  0.00     0.010 A 
BRANCH  26  30
HETATM   30  O   UNL     1      41.052 -15.178  -3.380  1.00  0.00    -0.358 OA
HETATM   31  H   UNL     1      41.977 -15.445  -3.532  1.00  0.00     0.218 HD
ENDBRANCH  26  30
BRANCH  27  32
HETATM   32  O   UNL     1      43.131 -13.471  -3.024  1.00  0.00    -0.358 OA
HETATM   33  H   UNL     1      43.050 -14.326  -3.494  1.00  0.00     0.218 HD
ENDBRANCH  27  32
ENDBRANCH  23  24
ENDBRANCH  22  23
ENDBRANCH  19  22
ENDBRANCH   1  18
TORSDOF 10
ENDMDL
MODEL 10
REMARK VINA RESULT:      -7.7      4.602      8.309
REMARK  10 active torsions:
REMARK  status: ('A' for Active; 'I' for Inactive)
REMARK    1  A    between atoms: C_4  and  C_5 
REMARK    2  A    between atoms: C_5  and  C_6 
REMARK    3  A    between atoms: C_6  and  N_7 
REMARK    4  A    between atoms: C_6  and  C_15 
REMARK       I    between atoms: N_7  and  C_8 
REMARK    5  A    between atoms: C_8  and  C_9 
REMARK       I    between atoms: C_15  and  N_16 
REMARK    6  A    between atoms: N_16  and  C_17 
REMARK    7  A    between atoms: C_17  and  C_18 
REMARK    8  A    between atoms: C_18  and  C_19 
REMARK    9  A    between atoms: C_21  and  O_22 
REMARK   10  A    between atoms: C_23  and  O_24 
ROOT
HETATM    1  C   UNL     1      41.373 -15.535   3.283  1.00  0.00     0.181 C 
ENDROOT
BRANCH   1   2
HETATM    2  C   UNL     1      41.135 -14.956   4.693  1.00  0.00     0.073 C 
BRANCH   2   3
HETATM    3  C   UNL     1      41.973 -15.537   5.812  1.00  0.00    -0.056 A 
HETATM    4  C   UNL     1      41.590 -16.701   6.496  1.00  0.00     0.007 A 
HETATM    5  C   UNL     1      42.425 -17.271   7.459  1.00  0.00     0.001 A 
HETATM    6  C   UNL     1      43.664 -16.700   7.738  1.00  0.00     0.000 A 
HETATM    7  C   UNL     1      44.067 -15.555   7.054  1.00  0.00     0.001 A 
HETATM    8  C   UNL     1      43.228 -14.978   6.099  1.00  0.00     0.007 A 
ENDBRANCH   2   3
ENDBRANCH   1   2
BRANCH   1   9
HETATM    9  N   UNL     1      42.039 -16.841   3.262  1.00  0.00    -0.342 N 
HETATM   10  C   UNL     1      43.277 -17.112   2.732  1.00  0.00     0.276 C 
HETATM   11  O   UNL     1      44.015 -16.218   2.320  1.00  0.00    -0.265 OA
HETATM   12  H   UNL     1      41.492 -17.652   3.535  1.00  0.00     0.163 HD
BRANCH  10  13
HETATM   13  C   UNL     1      43.645 -18.511   2.769  1.00  0.00     0.142 A 
HETATM   14  O   UNL     1      44.286 -19.008   3.876  1.00  0.00    -0.317 OA
HETATM   15  C   UNL     1      44.528 -20.324   3.641  1.00  0.00     0.143 A 
HETATM   16  C   UNL     1      44.060 -20.688   2.401  1.00  0.00     0.027 A 
HETATM   17  C   UNL     1      43.488 -19.521   1.837  1.00  0.00     0.045 A 
ENDBRANCH  10  13
ENDBRANCH   1   9
BRANCH   1  18
HETATM   18  C   UNL     1      40.049 -15.437   2.491  1.00  0.00     0.240 C 
HETATM   19  N   UNL     1      39.502 -14.182   2.342  1.00  0.00    -0.359 N 
HETATM   20  H   UNL     1      40.086 -13.401   2.624  1.00  0.00     0.162 HD
HETATM   21  O   UNL     1      39.596 -16.420   1.902  1.00  0.00    -0.271 OA
BRANCH  19  22
HETATM   22  C   UNL     1      38.470 -13.936   1.347  1.00  0.00     0.127 C 
BRANCH  22  23
HETATM   23  C   UNL     1      38.971 -13.183   0.111  1.00  0.00     0.058 C 
BRANCH  23  24
HETATM   24  C   UNL     1      39.138 -13.940  -1.192  1.00  0.00    -0.054 A 
HETATM   25  C   UNL     1      40.353 -14.477  -1.638  1.00  0.00     0.046 A 
HETATM   26  C   UNL     1      40.422 -15.108  -2.879  1.00  0.00     0.099 A 
HETATM   27  C   UNL     1      39.283 -15.255  -3.663  1.00  0.00     0.098 A 
HETATM   28  C   UNL     1      38.066 -14.757  -3.234  1.00  0.00     0.040 A 
HETATM   29  C   UNL     1      37.996 -14.094  -2.006  1.00  0.00     0.010 A 
BRANCH  26  30
HETATM   30  O   UNL     1      41.605 -15.585  -3.372  1.00  0.00    -0.358 OA
HETATM   31  H   UNL     1      41.540 -16.557  -3.394  1.00  0.00     0.218 HD
ENDBRANCH  26  30
BRANCH  27  32
HETATM   32  O   UNL     1      39.363 -15.886  -4.870  1.00  0.00    -0.358 OA
HETATM   33  H   UNL     1      40.306 -15.811  -5.119  1.00  0.00     0.218 HD
ENDBRANCH  27  32
ENDBRANCH  23  24
ENDBRANCH  22  23
ENDBRANCH  19  22
ENDBRANCH   1  18
TORSDOF 10
ENDMDL
