MODEL 1
REMARK VINA RESULT:      -9.4      0.000      0.000
REMARK  10 active torsions:
REMARK  status: ('A' for Active; 'I' for Inactive)
REMARK    1  A    between atoms: C_2  and  O_3 
REMARK    2  A    between atoms: O_3  and  C_4 
REMARK    3  A    between atoms: C_6  and  O_7 
REMARK    4  A    between atoms: O_7  and  C_8 
REMARK    5  A    between atoms: C_11  and  C_12 
REMARK       I    between atoms: C_12  and  N_13 
REMARK    6  A    between atoms: N_13  and  C_14 
REMARK    7  A    between atoms: C_14  and  N_15 
REMARK    8  A    between atoms: N_15  and  C_16 
REMARK    9  A    between atoms: C_18  and  C_19 
REMARK   10  A    between atoms: C_28  and  O_29 
ROOT
HETATM    1  N   UNL     1      44.217 -14.176   7.758  1.00  0.00    -0.333 N 
HETATM    2  H   UNL     1      43.988 -14.811   8.526  1.00  0.00     0.168 HD
ENDROOT
BRANCH   1   3
HETATM    3  C   UNL     1      44.882 -13.046   8.169  1.00  0.00     0.179 C 
HETATM    4  S   UNL     1      46.414 -12.512   7.764  1.00  0.00    -0.040 SA
BRANCH   3   5
HETATM    5  N   UNL     1      44.186 -12.242   9.055  1.00  0.00    -0.299 N 
HETATM    6  C   UNL     1      44.260 -12.197  10.442  1.00  0.00     0.258 C 
HETATM    7  O   UNL     1      45.150 -12.751  11.084  1.00  0.00    -0.267 OA
HETATM    8  H   UNL     1      43.460 -11.722   8.586  1.00  0.00     0.171 HD
BRANCH   6   9
HETATM    9  C   UNL     1      43.188 -11.434  11.152  1.00  0.00     0.037 A 
HETATM   10  C   UNL     1      42.240 -10.757  10.369  1.00  0.00     0.054 A 
HETATM   11  C   UNL     1      41.247  -9.989  10.976  1.00  0.00     0.072 A 
HETATM   12  C   UNL     1      41.209  -9.881  12.370  1.00  0.00     0.073 A 
HETATM   13  C   UNL     1      42.135 -10.560  13.158  1.00  0.00     0.072 A 
HETATM   14  C   UNL     1      43.110 -11.352  12.548  1.00  0.00     0.054 A 
BRANCH  11  15
HETATM   15  O   UNL     1      40.271  -9.282  10.328  1.00  0.00    -0.351 OA
BRANCH  15  16
HETATM   16  C   UNL     1      39.277 -10.032   9.630  1.00  0.00     0.171 C 
HETATM   17  C   UNL     1      38.999  -9.324   8.317  1.00  0.00     0.034 C 
ENDBRANCH  15  16
ENDBRANCH  11  15
BRANCH  13  18
HETATM   18  O   UNL     1      42.196 -10.542  14.525  1.00  0.00    -0.351 OA
BRANCH  18  19
HETATM   19  C   UNL     1      42.376  -9.269  15.147  1.00  0.00     0.171 C 
HETATM   20  C   UNL     1      41.445  -9.200  16.345  1.00  0.00     0.034 C 
ENDBRANCH  18  19
ENDBRANCH  13  18
ENDBRANCH   6   9
ENDBRANCH   3   5
ENDBRANCH   1   3
BRANCH   1  21
HETATM   21  C   UNL     1      43.824 -14.615   6.474  1.00  0.00     0.035 A 
HETATM   22  C   UNL     1      44.000 -15.977   6.179  1.00  0.00     0.046 A 
HETATM   23  C   UNL     1      43.610 -16.521   4.940  1.00  0.00     0.036 A 
HETATM   24  C   UNL     1      42.984 -15.662   4.014  1.00  0.00     0.084 A 
HETATM   25  C   UNL     1      42.778 -14.307   4.295  1.00  0.00    -0.026 A 
HETATM   26  C   UNL     1      42.107 -13.405   3.299  1.00  0.00     0.051 C 
HETATM   27  C   UNL     1      43.206 -13.798   5.528  1.00  0.00     0.039 A 
BRANCH  23  28
HETATM   28  C   UNL     1      43.826 -17.943   4.594  1.00  0.00     0.112 A 
HETATM   29  S   UNL     1      44.328 -19.111   5.752  1.00  0.00    -0.067 SA
HETATM   30  C   UNL     1      44.393 -20.319   4.529  1.00  0.00     0.035 A 
HETATM   31  C   UNL     1      44.021 -19.749   3.312  1.00  0.00     0.075 A 
HETATM   32  C   UNL     1      44.749 -21.674   4.635  1.00  0.00     0.021 A 
HETATM   33  N   UNL     1      43.719 -18.399   3.359  1.00  0.00    -0.239 NA
HETATM   34  C   UNL     1      43.994 -20.562   2.161  1.00  0.00     0.033 A 
HETATM   35  C   UNL     1      44.342 -21.913   2.255  1.00  0.00     0.002 A 
HETATM   36  C   UNL     1      44.717 -22.459   3.478  1.00  0.00     0.002 A 
ENDBRANCH  23  28
BRANCH  24  37
HETATM   37  O   UNL     1      42.537 -16.111   2.793  1.00  0.00    -0.359 OA
HETATM   38  H   UNL     1      42.957 -16.980   2.618  1.00  0.00     0.218 HD
ENDBRANCH  24  37
ENDBRANCH   1  21
TORSDOF 10
ENDMDL
MODEL 2
REMARK VINA RESULT:      -9.2      0.541      2.962
REMARK  10 active torsions:
REMARK  status: ('A' for Active; 'I' for Inactive)
REMARK    1  A    between atoms: C_2  and  O_3 
REMARK    2  A    between atoms: O_3  and  C_4 
REMARK    3  A    between atoms: C_6  and  O_7 
REMARK    4  A    between atoms: O_7  and  C_8 
REMARK    5  A    between atoms: C_11  and  C_12 
REMARK       I    between atoms: C_12  and  N_13 
REMARK    6  A    between atoms: N_13  and  C_14 
REMARK    7  A    between atoms: C_14  and  N_15 
REMARK    8  A    between atoms: N_15  and  C_16 
REMARK    9  A    between atoms: C_18  and  C_19 
REMARK   10  A    between atoms: C_28  and  O_29 
ROOT
HETATM    1  N   UNL     1      44.347 -14.102   7.873  1.00  0.00    -0.333 N 
HETATM    2  H   UNL     1      44.225 -14.740   8.662  1.00  0.00     0.168 HD
ENDROOT
BRANCH   1   3
HETATM    3  C   UNL     1      44.984 -12.933   8.215  1.00  0.00     0.179 C 
HETATM    4  S   UNL     1      46.530 -12.420   7.838  1.00  0.00    -0.040 SA
BRANCH   3   5
HETATM    5  N   UNL     1      44.241 -12.062   8.993  1.00  0.00    -0.299 N 
HETATM    6  C   UNL     1      44.158 -11.976  10.377  1.00  0.00     0.258 C 
HETATM    7  O   UNL     1      44.935 -12.558  11.132  1.00  0.00    -0.267 OA
HETATM    8  H   UNL     1      43.605 -11.518   8.429  1.00  0.00     0.171 HD
BRANCH   6   9
HETATM    9  C   UNL     1      43.060 -11.131  10.938  1.00  0.00     0.037 A 
HETATM   10  C   UNL     1      43.271 -10.530  12.188  1.00  0.00     0.054 A 
HETATM   11  C   UNL     1      42.263  -9.771  12.782  1.00  0.00     0.072 A 
HETATM   12  C   UNL     1      41.031  -9.626  12.135  1.00  0.00     0.073 A 
HETATM   13  C   UNL     1      40.815 -10.205  10.887  1.00  0.00     0.072 A 
HETATM   14  C   UNL     1      41.837 -10.940  10.282  1.00  0.00     0.054 A 
BRANCH  11  15
HETATM   15  O   UNL     1      42.343  -9.139  13.994  1.00  0.00    -0.351 OA
BRANCH  15  16
HETATM   16  C   UNL     1      42.002  -9.903  15.150  1.00  0.00     0.171 C 
HETATM   17  C   UNL     1      42.170  -9.007  16.364  1.00  0.00     0.034 C 
ENDBRANCH  15  16
ENDBRANCH  11  15
BRANCH  13  18
HETATM   18  O   UNL     1      39.664 -10.128  10.152  1.00  0.00    -0.351 OA
BRANCH  18  19
HETATM   19  C   UNL     1      39.624 -10.871   8.934  1.00  0.00     0.171 C 
HETATM   20  C   UNL     1      39.390  -9.892   7.797  1.00  0.00     0.034 C 
ENDBRANCH  18  19
ENDBRANCH  13  18
ENDBRANCH   6   9
ENDBRANCH   3   5
ENDBRANCH   1   3
BRANCH   1  21
HETATM   21  C   UNL     1      43.861 -14.575   6.633  1.00  0.00     0.035 A 
HETATM   22  C   UNL     1      44.056 -15.935   6.344  1.00  0.00     0.046 A 
HETATM   23  C   UNL     1      43.582 -16.512   5.150  1.00  0.00     0.036 A 
HETATM   24  C   UNL     1      42.852 -15.689   4.269  1.00  0.00     0.084 A 
HETATM   25  C   UNL     1      42.626 -14.336   4.547  1.00  0.00    -0.026 A 
HETATM   26  C   UNL     1      41.844 -13.472   3.598  1.00  0.00     0.051 C 
HETATM   27  C   UNL     1      43.139 -13.793   5.732  1.00  0.00     0.039 A 
BRANCH  23  28
HETATM   28  C   UNL     1      43.814 -17.931   4.808  1.00  0.00     0.112 A 
HETATM   29  S   UNL     1      44.337 -19.090   5.966  1.00  0.00    -0.067 SA
HETATM   30  C   UNL     1      44.411 -20.300   4.746  1.00  0.00     0.035 A 
HETATM   31  C   UNL     1      44.026 -19.739   3.529  1.00  0.00     0.075 A 
HETATM   32  C   UNL     1      44.785 -21.650   4.855  1.00  0.00     0.021 A 
HETATM   33  N   UNL     1      43.706 -18.393   3.574  1.00  0.00    -0.239 NA
HETATM   34  C   UNL     1      44.003 -20.556   2.381  1.00  0.00     0.033 A 
HETATM   35  C   UNL     1      44.369 -21.902   2.477  1.00  0.00     0.002 A 
HETATM   36  C   UNL     1      44.758 -22.439   3.700  1.00  0.00     0.002 A 
ENDBRANCH  23  28
BRANCH  24  37
HETATM   37  O   UNL     1      42.318 -16.172   3.096  1.00  0.00    -0.359 OA
HETATM   38  H   UNL     1      41.661 -16.864   3.326  1.00  0.00     0.218 HD
ENDBRANCH  24  37
ENDBRANCH   1  21
TORSDOF 10
ENDMDL
MODEL 3
REMARK VINA RESULT:      -8.9      2.442      4.265
REMARK  10 active torsions:
REMARK  status: ('A' for Active; 'I' for Inactive)
REMARK    1  A    between atoms: C_2  and  O_3 
REMARK    2  A    between atoms: O_3  and  C_4 
REMARK    3  A    between atoms: C_6  and  O_7 
REMARK    4  A    between atoms: O_7  and  C_8 
REMARK    5  A    between atoms: C_11  and  C_12 
REMARK       I    between atoms: C_12  and  N_13 
REMARK    6  A    between atoms: N_13  and  C_14 
REMARK    7  A    between atoms: C_14  and  N_15 
REMARK    8  A    between atoms: N_15  and  C_16 
REMARK    9  A    between atoms: C_18  and  C_19 
REMARK   10  A    between atoms: C_28  and  O_29 
ROOT
HETATM    1  N   UNL     1      40.255 -12.923   5.631  1.00  0.00    -0.333 N 
HETATM    2  H   UNL     1      39.682 -13.199   6.431  1.00  0.00     0.168 HD
ENDROOT
BRANCH   1   3
HETATM    3  C   UNL     1      40.941 -11.750   5.834  1.00  0.00     0.179 C 
HETATM    4  S   UNL     1      41.151 -10.452   4.800  1.00  0.00    -0.040 SA
BRANCH   3   5
HETATM    5  N   UNL     1      41.555 -11.633   7.069  1.00  0.00    -0.299 N 
HETATM    6  C   UNL     1      41.215 -10.820   8.143  1.00  0.00     0.258 C 
HETATM    7  O   UNL     1      40.145 -10.218   8.216  1.00  0.00    -0.267 OA
HETATM    8  H   UNL     1      42.426 -12.140   7.095  1.00  0.00     0.171 HD
BRANCH   6   9
HETATM    9  C   UNL     1      42.222 -10.693   9.240  1.00  0.00     0.037 A 
HETATM   10  C   UNL     1      41.787 -10.181  10.472  1.00  0.00     0.054 A 
HETATM   11  C   UNL     1      42.693  -9.995  11.516  1.00  0.00     0.072 A 
HETATM   12  C   UNL     1      44.044 -10.303  11.324  1.00  0.00     0.073 A 
HETATM   13  C   UNL     1      44.486 -10.826  10.112  1.00  0.00     0.072 A 
HETATM   14  C   UNL     1      43.570 -11.039   9.079  1.00  0.00     0.054 A 
BRANCH  11  15
HETATM   15  O   UNL     1      42.396  -9.503  12.758  1.00  0.00    -0.351 OA
BRANCH  15  16
HETATM   16  C   UNL     1      42.524 -10.399  13.862  1.00  0.00     0.171 C 
HETATM   17  C   UNL     1      42.314  -9.600  15.135  1.00  0.00     0.034 C 
ENDBRANCH  15  16
ENDBRANCH  11  15
BRANCH  13  18
HETATM   18  O   UNL     1      45.773 -11.174   9.806  1.00  0.00    -0.351 OA
BRANCH  18  19
HETATM   19  C   UNL     1      45.951 -12.166   8.795  1.00  0.00     0.171 C 
HETATM   20  C   UNL     1      47.181 -11.791   7.986  1.00  0.00     0.034 C 
ENDBRANCH  18  19
ENDBRANCH  13  18
ENDBRANCH   6   9
ENDBRANCH   3   5
ENDBRANCH   1   3
BRANCH   1  21
HETATM   21  C   UNL     1      40.226 -13.812   4.532  1.00  0.00     0.035 A 
HETATM   22  C   UNL     1      41.032 -14.958   4.613  1.00  0.00     0.046 A 
HETATM   23  C   UNL     1      41.050 -15.923   3.586  1.00  0.00     0.036 A 
HETATM   24  C   UNL     1      40.188 -15.728   2.488  1.00  0.00     0.084 A 
HETATM   25  C   UNL     1      39.359 -14.604   2.397  1.00  0.00    -0.026 A 
HETATM   26  C   UNL     1      38.444 -14.412   1.221  1.00  0.00     0.051 C 
HETATM   27  C   UNL     1      39.391 -13.653   3.425  1.00  0.00     0.039 A 
BRANCH  23  28
HETATM   28  C   UNL     1      41.924 -17.115   3.632  1.00  0.00     0.112 A 
HETATM   29  S   UNL     1      42.794 -17.570   5.044  1.00  0.00    -0.067 SA
HETATM   30  C   UNL     1      43.518 -18.879   4.194  1.00  0.00     0.035 A 
HETATM   31  C   UNL     1      43.043 -18.885   2.883  1.00  0.00     0.075 A 
HETATM   32  C   UNL     1      44.443 -19.833   4.651  1.00  0.00     0.021 A 
HETATM   33  N   UNL     1      42.154 -17.871   2.573  1.00  0.00    -0.239 NA
HETATM   34  C   UNL     1      43.499 -19.883   1.999  1.00  0.00     0.033 A 
HETATM   35  C   UNL     1      44.415 -20.841   2.444  1.00  0.00     0.002 A 
HETATM   36  C   UNL     1      44.883 -20.811   3.754  1.00  0.00     0.002 A 
ENDBRANCH  23  28
BRANCH  24  37
HETATM   37  O   UNL     1      40.110 -16.633   1.455  1.00  0.00    -0.359 OA
HETATM   38  H   UNL     1      39.314 -16.417   0.923  1.00  0.00     0.218 HD
ENDBRANCH  24  37
ENDBRANCH   1  21
TORSDOF 10
ENDMDL
MODEL 4
REMARK VINA RESULT:      -8.8      5.168      9.339
REMARK  10 active torsions:
REMARK  status: ('A' for Active; 'I' for Inactive)
REMARK    1  A    between atoms: C_2  and  O_3 
REMARK    2  A    between atoms: O_3  and  C_4 
REMARK    3  A    between atoms: C_6  and  O_7 
REMARK    4  A    between atoms: O_7  and  C_8 
REMARK    5  A    between atoms: C_11  and  C_12 
REMARK       I    between atoms: C_12  and  N_13 
REMARK    6  A    between atoms: N_13  and  C_14 
REMARK    7  A    between atoms: C_14  and  N_15 
REMARK    8  A    between atoms: N_15  and  C_16 
REMARK    9  A    between atoms: C_18  and  C_19 
REMARK   10  A    between atoms: C_28  and  O_29 
ROOT
HETATM    1  N   UNL     1      40.331 -14.517   4.276  1.00  0.00    -0.333 N 
HETATM    2  H   UNL     1      39.532 -15.153   4.247  1.00  0.00     0.168 HD
ENDROOT
BRANCH   1   3
HETATM    3  C   UNL     1      40.062 -13.283   3.735  1.00  0.00     0.179 C 
HETATM    4  S   UNL     1      39.414 -11.925   4.464  1.00  0.00    -0.040 SA
BRANCH   3   5
HETATM    5  N   UNL     1      40.360 -13.152   2.389  1.00  0.00    -0.299 N 
HETATM    6  C   UNL     1      40.290 -14.104   1.379  1.00  0.00     0.258 C 
HETATM    7  O   UNL     1      39.728 -15.188   1.518  1.00  0.00    -0.267 OA
HETATM    8  H   UNL     1      40.791 -12.261   2.194  1.00  0.00     0.171 HD
BRANCH   6   9
HETATM    9  C   UNL     1      40.943 -13.759   0.080  1.00  0.00     0.037 A 
HETATM   10  C   UNL     1      40.612 -14.532  -1.044  1.00  0.00     0.054 A 
HETATM   11  C   UNL     1      41.227 -14.287  -2.272  1.00  0.00     0.072 A 
HETATM   12  C   UNL     1      42.192 -13.280  -2.375  1.00  0.00     0.073 A 
HETATM   13  C   UNL     1      42.519 -12.497  -1.271  1.00  0.00     0.072 A 
HETATM   14  C   UNL     1      41.879 -12.725  -0.051  1.00  0.00     0.054 A 
BRANCH  11  15
HETATM   15  O   UNL     1      40.994 -14.969  -3.435  1.00  0.00    -0.351 OA
BRANCH  15  16
HETATM   16  C   UNL     1      40.161 -16.125  -3.358  1.00  0.00     0.171 C 
HETATM   17  C   UNL     1      38.941 -15.877  -4.227  1.00  0.00     0.034 C 
ENDBRANCH  15  16
ENDBRANCH  11  15
BRANCH  13  18
HETATM   18  O   UNL     1      43.433 -11.480  -1.248  1.00  0.00    -0.351 OA
BRANCH  18  19
HETATM   19  C   UNL     1      43.016 -10.247  -0.660  1.00  0.00     0.171 C 
HETATM   20  C   UNL     1      43.857  -9.135  -1.261  1.00  0.00     0.034 C 
ENDBRANCH  18  19
ENDBRANCH  13  18
ENDBRANCH   6   9
ENDBRANCH   3   5
ENDBRANCH   1   3
BRANCH   1  21
HETATM   21  C   UNL     1      41.498 -15.040   4.878  1.00  0.00     0.035 A 
HETATM   22  C   UNL     1      41.930 -16.305   4.449  1.00  0.00     0.046 A 
HETATM   23  C   UNL     1      43.099 -16.901   4.963  1.00  0.00     0.036 A 
HETATM   24  C   UNL     1      43.858 -16.160   5.891  1.00  0.00     0.084 A 
HETATM   25  C   UNL     1      43.459 -14.888   6.316  1.00  0.00    -0.026 A 
HETATM   26  C   UNL     1      44.281 -14.111   7.304  1.00  0.00     0.051 C 
HETATM   27  C   UNL     1      42.275 -14.343   5.803  1.00  0.00     0.039 A 
BRANCH  23  28
HETATM   28  C   UNL     1      43.547 -18.250   4.556  1.00  0.00     0.112 A 
HETATM   29  S   UNL     1      43.563 -18.764   2.915  1.00  0.00    -0.067 SA
HETATM   30  C   UNL     1      44.090 -20.330   3.394  1.00  0.00     0.035 A 
HETATM   31  C   UNL     1      44.224 -20.356   4.782  1.00  0.00     0.075 A 
HETATM   32  C   UNL     1      44.364 -21.457   2.602  1.00  0.00     0.021 A 
HETATM   33  N   UNL     1      43.898 -19.177   5.430  1.00  0.00    -0.239 NA
HETATM   34  C   UNL     1      44.657 -21.546   5.401  1.00  0.00     0.033 A 
HETATM   35  C   UNL     1      44.937 -22.673   4.623  1.00  0.00     0.002 A 
HETATM   36  C   UNL     1      44.788 -22.627   3.240  1.00  0.00     0.002 A 
ENDBRANCH  23  28
BRANCH  24  37
HETATM   37  O   UNL     1      45.033 -16.643   6.420  1.00  0.00    -0.359 OA
HETATM   38  H   UNL     1      44.826 -17.463   6.918  1.00  0.00     0.218 HD
ENDBRANCH  24  37
ENDBRANCH   1  21
TORSDOF 10
ENDMDL
MODEL 5
REMARK VINA RESULT:      -8.7      5.166      9.596
REMARK  10 active torsions:
REMARK  status: ('A' for Active; 'I' for Inactive)
REMARK    1  A    between atoms: C_2  and  O_3 
REMARK    2  A    between atoms: O_3  and  C_4 
REMARK    3  A    between atoms: C_6  and  O_7 
REMARK    4  A    between atoms: O_7  and  C_8 
REMARK    5  A    between atoms: C_11  and  C_12 
REMARK       I    between atoms: C_12  and  N_13 
REMARK    6  A    between atoms: N_13  and  C_14 
REMARK    7  A    between atoms: C_14  and  N_15 
REMARK    8  A    between atoms: N_15  and  C_16 
REMARK    9  A    between atoms: C_18  and  C_19 
REMARK   10  A    between atoms: C_28  and  O_29 
ROOT
HETATM    1  N   UNL     1      40.370 -14.467   4.169  1.00  0.00    -0.333 N 
HETATM    2  H   UNL     1      39.571 -15.102   4.119  1.00  0.00     0.168 HD
ENDROOT
BRANCH   1   3
HETATM    3  C   UNL     1      40.115 -13.233   3.620  1.00  0.00     0.179 C 
HETATM    4  S   UNL     1      39.424 -11.882   4.322  1.00  0.00    -0.040 SA
BRANCH   3   5
HETATM    5  N   UNL     1      40.473 -13.095   2.289  1.00  0.00    -0.299 N 
HETATM    6  C   UNL     1      40.225 -13.950   1.222  1.00  0.00     0.258 C 
HETATM    7  O   UNL     1      39.435 -14.889   1.286  1.00  0.00    -0.267 OA
HETATM    8  H   UNL     1      41.094 -12.311   2.156  1.00  0.00     0.171 HD
BRANCH   6   9
HETATM    9  C   UNL     1      40.975 -13.685  -0.043  1.00  0.00     0.037 A 
HETATM   10  C   UNL     1      41.931 -12.657  -0.034  1.00  0.00     0.054 A 
HETATM   11  C   UNL     1      42.626 -12.333  -1.200  1.00  0.00     0.072 A 
HETATM   12  C   UNL     1      42.352 -13.025  -2.385  1.00  0.00     0.073 A 
HETATM   13  C   UNL     1      41.417 -14.056  -2.403  1.00  0.00     0.072 A 
HETATM   14  C   UNL     1      40.745 -14.398  -1.227  1.00  0.00     0.054 A 
BRANCH  11  15
HETATM   15  O   UNL     1      43.575 -11.355  -1.322  1.00  0.00    -0.351 OA
BRANCH  15  16
HETATM   16  C   UNL     1      43.122 -10.049  -1.678  1.00  0.00     0.171 C 
HETATM   17  C   UNL     1      43.269  -9.158  -0.459  1.00  0.00     0.034 C 
ENDBRANCH  15  16
ENDBRANCH  11  15
BRANCH  13  18
HETATM   18  O   UNL     1      41.071 -14.810  -3.491  1.00  0.00    -0.351 OA
BRANCH  18  19
HETATM   19  C   UNL     1      40.291 -15.981  -3.244  1.00  0.00     0.171 C 
HETATM   20  C   UNL     1      39.104 -15.958  -4.191  1.00  0.00     0.034 C 
ENDBRANCH  18  19
ENDBRANCH  13  18
ENDBRANCH   6   9
ENDBRANCH   3   5
ENDBRANCH   1   3
BRANCH   1  21
HETATM   21  C   UNL     1      41.519 -14.990   4.802  1.00  0.00     0.035 A 
HETATM   22  C   UNL     1      41.955 -16.261   4.394  1.00  0.00     0.046 A 
HETATM   23  C   UNL     1      43.109 -16.857   4.940  1.00  0.00     0.036 A 
HETATM   24  C   UNL     1      43.850 -16.112   5.879  1.00  0.00     0.084 A 
HETATM   25  C   UNL     1      43.448 -14.834   6.284  1.00  0.00    -0.026 A 
HETATM   26  C   UNL     1      44.250 -14.052   7.284  1.00  0.00     0.051 C 
HETATM   27  C   UNL     1      42.279 -14.288   5.739  1.00  0.00     0.039 A 
BRANCH  23  28
HETATM   28  C   UNL     1      43.560 -18.212   4.555  1.00  0.00     0.112 A 
HETATM   29  S   UNL     1      43.637 -18.731   2.918  1.00  0.00    -0.067 SA
HETATM   30  C   UNL     1      44.129 -20.301   3.422  1.00  0.00     0.035 A 
HETATM   31  C   UNL     1      44.206 -20.324   4.814  1.00  0.00     0.075 A 
HETATM   32  C   UNL     1      44.423 -21.433   2.644  1.00  0.00     0.021 A 
HETATM   33  N   UNL     1      43.866 -19.140   5.445  1.00  0.00    -0.239 NA
HETATM   34  C   UNL     1      44.602 -21.516   5.454  1.00  0.00     0.033 A 
HETATM   35  C   UNL     1      44.902 -22.648   4.690  1.00  0.00     0.002 A 
HETATM   36  C   UNL     1      44.809 -22.605   3.303  1.00  0.00     0.002 A 
ENDBRANCH  23  28
BRANCH  24  37
HETATM   37  O   UNL     1      45.010 -16.596   6.439  1.00  0.00    -0.359 OA
HETATM   38  H   UNL     1      44.778 -17.373   6.991  1.00  0.00     0.218 HD
ENDBRANCH  24  37
ENDBRANCH   1  21
TORSDOF 10
ENDMDL
MODEL 6
REMARK VINA RESULT:      -8.7      2.540      3.785
REMARK  10 active torsions:
REMARK  status: ('A' for Active; 'I' for Inactive)
REMARK    1  A    between atoms: C_2  and  O_3 
REMARK    2  A    between atoms: O_3  and  C_4 
REMARK    3  A    between atoms: C_6  and  O_7 
REMARK    4  A    between atoms: O_7  and  C_8 
REMARK    5  A    between atoms: C_11  and  C_12 
REMARK       I    between atoms: C_12  and  N_13 
REMARK    6  A    between atoms: N_13  and  C_14 
REMARK    7  A    between atoms: C_14  and  N_15 
REMARK    8  A    between atoms: N_15  and  C_16 
REMARK    9  A    between atoms: C_18  and  C_19 
REMARK   10  A    between atoms: C_28  and  O_29 
ROOT
HETATM    1  N   UNL     1      39.922 -13.133   5.964  1.00  0.00    -0.333 N 
HETATM    2  H   UNL     1      39.554 -13.610   6.790  1.00  0.00     0.168 HD
ENDROOT
BRANCH   1   3
HETATM    3  C   UNL     1      40.250 -11.819   6.199  1.00  0.00     0.179 C 
HETATM    4  S   UNL     1      39.868 -10.456   5.308  1.00  0.00    -0.040 SA
BRANCH   3   5
HETATM    5  N   UNL     1      41.017 -11.596   7.329  1.00  0.00    -0.299 N 
HETATM    6  C   UNL     1      40.660 -10.983   8.524  1.00  0.00     0.258 C 
HETATM    7  O   UNL     1      39.495 -10.731   8.825  1.00  0.00    -0.267 OA
HETATM    8  H   UNL     1      41.986 -11.824   7.165  1.00  0.00     0.171 HD
BRANCH   6   9
HETATM    9  C   UNL     1      41.770 -10.627   9.459  1.00  0.00     0.037 A 
HETATM   10  C   UNL     1      43.085 -10.893   9.045  1.00  0.00     0.054 A 
HETATM   11  C   UNL     1      44.157 -10.627   9.895  1.00  0.00     0.072 A 
HETATM   12  C   UNL     1      43.917 -10.109  11.173  1.00  0.00     0.073 A 
HETATM   13  C   UNL     1      42.619  -9.826  11.589  1.00  0.00     0.072 A 
HETATM   14  C   UNL     1      41.550 -10.066  10.723  1.00  0.00     0.054 A 
BRANCH  11  15
HETATM   15  O   UNL     1      45.479 -10.844   9.612  1.00  0.00    -0.351 OA
BRANCH  15  16
HETATM   16  C   UNL     1      45.797 -11.998   8.835  1.00  0.00     0.171 C 
HETATM   17  C   UNL     1      47.056 -11.693   8.045  1.00  0.00     0.034 C 
ENDBRANCH  15  16
ENDBRANCH  11  15
BRANCH  13  18
HETATM   18  O   UNL     1      42.258  -9.311  12.804  1.00  0.00    -0.351 OA
BRANCH  18  19
HETATM   19  C   UNL     1      42.768  -9.970  13.963  1.00  0.00     0.171 C 
HETATM   20  C   UNL     1      41.707  -9.897  15.047  1.00  0.00     0.034 C 
ENDBRANCH  18  19
ENDBRANCH  13  18
ENDBRANCH   6   9
ENDBRANCH   3   5
ENDBRANCH   1   3
BRANCH   1  21
HETATM   21  C   UNL     1      40.028 -13.931   4.803  1.00  0.00     0.035 A 
HETATM   22  C   UNL     1      40.847 -15.069   4.878  1.00  0.00     0.046 A 
HETATM   23  C   UNL     1      40.994 -15.948   3.787  1.00  0.00     0.036 A 
HETATM   24  C   UNL     1      40.247 -15.677   2.622  1.00  0.00     0.084 A 
HETATM   25  C   UNL     1      39.408 -14.561   2.532  1.00  0.00    -0.026 A 
HETATM   26  C   UNL     1      38.616 -14.288   1.285  1.00  0.00     0.051 C 
HETATM   27  C   UNL     1      39.311 -13.696   3.630  1.00  0.00     0.039 A 
BRANCH  23  28
HETATM   28  C   UNL     1      41.884 -17.127   3.832  1.00  0.00     0.112 A 
HETATM   29  S   UNL     1      42.562 -17.720   5.297  1.00  0.00    -0.067 SA
HETATM   30  C   UNL     1      43.432 -18.922   4.427  1.00  0.00     0.035 A 
HETATM   31  C   UNL     1      43.143 -18.794   3.069  1.00  0.00     0.075 A 
HETATM   32  C   UNL     1      44.309 -19.908   4.909  1.00  0.00     0.021 A 
HETATM   33  N   UNL     1      42.279 -17.763   2.743  1.00  0.00    -0.239 NA
HETATM   34  C   UNL     1      43.743 -19.688   2.159  1.00  0.00     0.033 A 
HETATM   35  C   UNL     1      44.615 -20.676   2.627  1.00  0.00     0.002 A 
HETATM   36  C   UNL     1      44.895 -20.780   3.986  1.00  0.00     0.002 A 
ENDBRANCH  23  28
BRANCH  24  37
HETATM   37  O   UNL     1      40.298 -16.498   1.519  1.00  0.00    -0.359 OA
HETATM   38  H   UNL     1      40.067 -15.960   0.731  1.00  0.00     0.218 HD
ENDBRANCH  24  37
ENDBRANCH   1  21
TORSDOF 10
ENDMDL
MODEL 7
REMARK VINA RESULT:      -8.5      3.306     10.107
REMARK  10 active torsions:
REMARK  status: ('A' for Active; 'I' for Inactive)
REMARK    1  A    between atoms: C_2  and  O_3 
REMARK    2  A    between atoms: O_3  and  C_4 
REMARK    3  A    between atoms: C_6  and  O_7 
REMARK    4  A    between atoms: O_7  and  C_8 
REMARK    5  A    between atoms: C_11  and  C_12 
REMARK       I    between atoms: C_12  and  N_13 
REMARK    6  A    between atoms: N_13  and  C_14 
REMARK    7  A    between atoms: C_14  and  N_15 
REMARK    8  A    between atoms: N_15  and  C_16 
REMARK    9  A    between atoms: C_18  and  C_19 
REMARK   10  A    between atoms: C_28  and  O_29 
ROOT
HETATM    1  N   UNL     1      39.589 -13.607   4.425  1.00  0.00    -0.333 N 
HETATM    2  H   UNL     1      38.748 -13.895   4.928  1.00  0.00     0.168 HD
ENDROOT
BRANCH   1   3
HETATM    3  C   UNL     1      39.989 -14.514   3.473  1.00  0.00     0.179 C 
HETATM    4  S   UNL     1      39.475 -14.687   1.891  1.00  0.00    -0.040 SA
BRANCH   3   5
HETATM    5  N   UNL     1      40.947 -15.421   3.891  1.00  0.00    -0.299 N 
HETATM    6  C   UNL     1      42.331 -15.297   3.891  1.00  0.00     0.258 C 
HETATM    7  O   UNL     1      42.908 -14.228   3.703  1.00  0.00    -0.267 OA
HETATM    8  H   UNL     1      40.536 -16.317   4.104  1.00  0.00     0.171 HD
BRANCH   6   9
HETATM    9  C   UNL     1      43.122 -16.542   4.131  1.00  0.00     0.037 A 
HETATM   10  C   UNL     1      43.285 -17.431   3.057  1.00  0.00     0.054 A 
HETATM   11  C   UNL     1      43.971 -18.632   3.237  1.00  0.00     0.072 A 
HETATM   12  C   UNL     1      44.481 -18.958   4.498  1.00  0.00     0.073 A 
HETATM   13  C   UNL     1      44.339 -18.078   5.568  1.00  0.00     0.072 A 
HETATM   14  C   UNL     1      43.677 -16.863   5.377  1.00  0.00     0.054 A 
BRANCH  11  15
HETATM   15  O   UNL     1      44.193 -19.580   2.274  1.00  0.00    -0.351 OA
BRANCH  15  16
HETATM   16  C   UNL     1      44.504 -20.900   2.720  1.00  0.00     0.171 C 
HETATM   17  C   UNL     1      43.927 -21.877   1.713  1.00  0.00     0.034 C 
ENDBRANCH  15  16
ENDBRANCH  11  15
BRANCH  13  18
HETATM   18  O   UNL     1      44.799 -18.277   6.840  1.00  0.00    -0.351 OA
BRANCH  18  19
HETATM   19  C   UNL     1      43.832 -18.624   7.831  1.00  0.00     0.171 C 
HETATM   20  C   UNL     1      43.480 -17.363   8.602  1.00  0.00     0.034 C 
ENDBRANCH  18  19
ENDBRANCH  13  18
ENDBRANCH   6   9
ENDBRANCH   3   5
ENDBRANCH   1   3
BRANCH   1  21
HETATM   21  C   UNL     1      40.118 -12.352   4.802  1.00  0.00     0.035 A 
HETATM   22  C   UNL     1      40.615 -12.232   6.110  1.00  0.00     0.046 A 
HETATM   23  C   UNL     1      41.192 -11.034   6.574  1.00  0.00     0.036 A 
HETATM   24  C   UNL     1      41.307  -9.965   5.663  1.00  0.00     0.084 A 
HETATM   25  C   UNL     1      40.839 -10.069   4.348  1.00  0.00    -0.026 A 
HETATM   26  C   UNL     1      40.971  -8.922   3.388  1.00  0.00     0.051 C 
HETATM   27  C   UNL     1      40.245 -11.268   3.933  1.00  0.00     0.039 A 
BRANCH  23  28
HETATM   28  C   UNL     1      41.682 -10.874   7.961  1.00  0.00     0.112 A 
HETATM   29  S   UNL     1      40.629 -10.566   9.284  1.00  0.00    -0.067 SA
HETATM   30  C   UNL     1      41.974 -10.455  10.350  1.00  0.00     0.035 A 
HETATM   31  C   UNL     1      43.145 -10.665   9.622  1.00  0.00     0.075 A 
HETATM   32  C   UNL     1      41.996 -10.198  11.731  1.00  0.00     0.021 A 
HETATM   33  N   UNL     1      42.967 -10.885   8.267  1.00  0.00    -0.239 NA
HETATM   34  C   UNL     1      44.382 -10.628  10.298  1.00  0.00     0.033 A 
HETATM   35  C   UNL     1      44.416 -10.377  11.673  1.00  0.00     0.002 A 
HETATM   36  C   UNL     1      43.236 -10.162  12.378  1.00  0.00     0.002 A 
ENDBRANCH  23  28
BRANCH  24  37
HETATM   37  O   UNL     1      41.890  -8.769   6.014  1.00  0.00    -0.359 OA
HETATM   38  H   UNL     1      41.320  -8.045   5.677  1.00  0.00     0.218 HD
ENDBRANCH  24  37
ENDBRANCH   1  21
TORSDOF 10
ENDMDL
MODEL 8
REMARK VINA RESULT:      -8.4      3.097      4.747
REMARK  10 active torsions:
REMARK  status: ('A' for Active; 'I' for Inactive)
REMARK    1  A    between atoms: C_2  and  O_3 
REMARK    2  A    between atoms: O_3  and  C_4 
REMARK    3  A    between atoms: C_6  and  O_7 
REMARK    4  A    between atoms: O_7  and  C_8 
REMARK    5  A    between atoms: C_11  and  C_12 
REMARK       I    between atoms: C_12  and  N_13 
REMARK    6  A    between atoms: N_13  and  C_14 
REMARK    7  A    between atoms: C_14  and  N_15 
REMARK    8  A    between atoms: N_15  and  C_16 
REMARK    9  A    between atoms: C_18  and  C_19 
REMARK   10  A    between atoms: C_28  and  O_29 
ROOT
HETATM    1  N   UNL     1      41.200 -11.262   2.874  1.00  0.00    -0.333 N 
HETATM    2  H   UNL     1      42.030 -10.979   2.348  1.00  0.00     0.168 HD
ENDROOT
BRANCH   1   3
HETATM    3  C   UNL     1      40.768 -10.305   3.761  1.00  0.00     0.179 C 
HETATM    4  S   UNL     1      39.916  -8.896   3.468  1.00  0.00    -0.040 SA
BRANCH   3   5
HETATM    5  N   UNL     1      41.098 -10.538   5.085  1.00  0.00    -0.299 N 
HETATM    6  C   UNL     1      40.289 -10.982   6.124  1.00  0.00     0.258 C 
HETATM    7  O   UNL     1      39.165 -11.447   5.947  1.00  0.00    -0.267 OA
HETATM    8  H   UNL     1      42.031 -10.216   5.293  1.00  0.00     0.171 HD
BRANCH   6   9
HETATM    9  C   UNL     1      40.844 -10.869   7.507  1.00  0.00     0.037 A 
HETATM   10  C   UNL     1      39.934 -10.766   8.571  1.00  0.00     0.054 A 
HETATM   11  C   UNL     1      40.395 -10.609   9.878  1.00  0.00     0.072 A 
HETATM   12  C   UNL     1      41.770 -10.535  10.124  1.00  0.00     0.073 A 
HETATM   13  C   UNL     1      42.683 -10.651   9.079  1.00  0.00     0.072 A 
HETATM   14  C   UNL     1      42.219 -10.838   7.775  1.00  0.00     0.054 A 
BRANCH  11  15
HETATM   15  O   UNL     1      39.613 -10.495  10.996  1.00  0.00    -0.351 OA
BRANCH  15  16
HETATM   16  C   UNL     1      40.275 -10.534  12.260  1.00  0.00     0.171 C 
HETATM   17  C   UNL     1      40.144 -11.943  12.808  1.00  0.00     0.034 C 
ENDBRANCH  15  16
ENDBRANCH  11  15
BRANCH  13  18
HETATM   18  O   UNL     1      44.046 -10.605   9.192  1.00  0.00    -0.351 OA
BRANCH  18  19
HETATM   19  C   UNL     1      44.683 -11.731   9.796  1.00  0.00     0.171 C 
HETATM   20  C   UNL     1      45.693 -12.282   8.804  1.00  0.00     0.034 C 
ENDBRANCH  18  19
ENDBRANCH  13  18
ENDBRANCH   6   9
ENDBRANCH   3   5
ENDBRANCH   1   3
BRANCH   1  21
HETATM   21  C   UNL     1      40.687 -12.539   2.551  1.00  0.00     0.035 A 
HETATM   22  C   UNL     1      41.443 -13.653   2.949  1.00  0.00     0.046 A 
HETATM   23  C   UNL     1      41.003 -14.969   2.705  1.00  0.00     0.036 A 
HETATM   24  C   UNL     1      39.746 -15.137   2.090  1.00  0.00     0.084 A 
HETATM   25  C   UNL     1      38.965 -14.041   1.705  1.00  0.00    -0.026 A 
HETATM   26  C   UNL     1      37.627 -14.237   1.054  1.00  0.00     0.051 C 
HETATM   27  C   UNL     1      39.451 -12.748   1.940  1.00  0.00     0.039 A 
BRANCH  23  28
HETATM   28  C   UNL     1      41.804 -16.155   3.077  1.00  0.00     0.112 A 
HETATM   29  S   UNL     1      42.491 -16.354   4.641  1.00  0.00    -0.067 SA
HETATM   30  C   UNL     1      43.234 -17.824   4.145  1.00  0.00     0.035 A 
HETATM   31  C   UNL     1      42.905 -18.070   2.812  1.00  0.00     0.075 A 
HETATM   32  C   UNL     1      44.054 -18.698   4.878  1.00  0.00     0.021 A 
HETATM   33  N   UNL     1      42.108 -17.109   2.214  1.00  0.00    -0.239 NA
HETATM   34  C   UNL     1      43.401 -19.234   2.192  1.00  0.00     0.033 A 
HETATM   35  C   UNL     1      44.213 -20.114   2.913  1.00  0.00     0.002 A 
HETATM   36  C   UNL     1      44.537 -19.845   4.239  1.00  0.00     0.002 A 
ENDBRANCH  23  28
BRANCH  24  37
HETATM   37  O   UNL     1      39.217 -16.383   1.844  1.00  0.00    -0.359 OA
HETATM   38  H   UNL     1      39.917 -16.933   1.430  1.00  0.00     0.218 HD
ENDBRANCH  24  37
ENDBRANCH   1  21
TORSDOF 10
ENDMDL
MODEL 9
REMARK VINA RESULT:      -8.3      3.466     10.649
REMARK  10 active torsions:
REMARK  status: ('A' for Active; 'I' for Inactive)
REMARK    1  A    between atoms: C_2  and  O_3 
REMARK    2  A    between atoms: O_3  and  C_4 
REMARK    3  A    between atoms: C_6  and  O_7 
REMARK    4  A    between atoms: O_7  and  C_8 
REMARK    5  A    between atoms: C_11  and  C_12 
REMARK       I    between atoms: C_12  and  N_13 
REMARK    6  A    between atoms: N_13  and  C_14 
REMARK    7  A    between atoms: C_14  and  N_15 
REMARK    8  A    between atoms: N_15  and  C_16 
REMARK    9  A    between atoms: C_18  and  C_19 
REMARK   10  A    between atoms: C_28  and  O_29 
ROOT
HETATM    1  N   UNL     1      40.160 -12.715   3.841  1.00  0.00    -0.333 N 
HETATM    2  H   UNL     1      39.383 -13.209   4.284  1.00  0.00     0.168 HD
ENDROOT
BRANCH   1   3
HETATM    3  C   UNL     1      40.605 -13.324   2.692  1.00  0.00     0.179 C 
HETATM    4  S   UNL     1      40.437 -12.838   1.101  1.00  0.00    -0.040 SA
BRANCH   3   5
HETATM    5  N   UNL     1      41.279 -14.518   2.881  1.00  0.00    -0.299 N 
HETATM    6  C   UNL     1      40.822 -15.820   2.710  1.00  0.00     0.258 C 
HETATM    7  O   UNL     1      39.768 -16.090   2.139  1.00  0.00    -0.267 OA
HETATM    8  H   UNL     1      42.179 -14.367   3.312  1.00  0.00     0.171 HD
BRANCH   6   9
HETATM    9  C   UNL     1      41.678 -16.914   3.261  1.00  0.00     0.037 A 
HETATM   10  C   UNL     1      41.749 -17.048   4.656  1.00  0.00     0.054 A 
HETATM   11  C   UNL     1      42.570 -18.020   5.228  1.00  0.00     0.072 A 
HETATM   12  C   UNL     1      43.338 -18.850   4.405  1.00  0.00     0.073 A 
HETATM   13  C   UNL     1      43.265 -18.737   3.019  1.00  0.00     0.072 A 
HETATM   14  C   UNL     1      42.419 -17.783   2.450  1.00  0.00     0.054 A 
BRANCH  11  15
HETATM   15  O   UNL     1      42.729 -18.248   6.568  1.00  0.00    -0.351 OA
BRANCH  15  16
HETATM   16  C   UNL     1      43.925 -17.759   7.175  1.00  0.00     0.171 C 
HETATM   17  C   UNL     1      43.717 -16.289   7.491  1.00  0.00     0.034 C 
ENDBRANCH  15  16
ENDBRANCH  11  15
BRANCH  13  18
HETATM   18  O   UNL     1      43.954 -19.493   2.112  1.00  0.00    -0.351 OA
BRANCH  18  19
HETATM   19  C   UNL     1      44.501 -20.727   2.580  1.00  0.00     0.171 C 
HETATM   20  C   UNL     1      44.020 -21.831   1.655  1.00  0.00     0.034 C 
ENDBRANCH  18  19
ENDBRANCH  13  18
ENDBRANCH   6   9
ENDBRANCH   3   5
ENDBRANCH   1   3
BRANCH   1  21
HETATM   21  C   UNL     1      40.571 -11.529   4.490  1.00  0.00     0.035 A 
HETATM   22  C   UNL     1      40.892 -11.621   5.853  1.00  0.00     0.046 A 
HETATM   23  C   UNL     1      41.343 -10.505   6.584  1.00  0.00     0.036 A 
HETATM   24  C   UNL     1      41.514  -9.291   5.888  1.00  0.00     0.084 A 
HETATM   25  C   UNL     1      41.221  -9.181   4.524  1.00  0.00    -0.026 A 
HETATM   26  C   UNL     1      41.411  -7.881   3.795  1.00  0.00     0.051 C 
HETATM   27  C   UNL     1      40.748 -10.308   3.839  1.00  0.00     0.039 A 
BRANCH  23  28
HETATM   28  C   UNL     1      41.646 -10.572   8.030  1.00  0.00     0.112 A 
HETATM   29  S   UNL     1      40.424 -10.768   9.223  1.00  0.00    -0.067 SA
HETATM   30  C   UNL     1      41.602 -10.652  10.472  1.00  0.00     0.035 A 
HETATM   31  C   UNL     1      42.857 -10.474   9.892  1.00  0.00     0.075 A 
HETATM   32  C   UNL     1      41.430 -10.710  11.865  1.00  0.00     0.021 A 
HETATM   33  N   UNL     1      42.868 -10.414   8.509  1.00  0.00    -0.239 NA
HETATM   34  C   UNL     1      43.984 -10.362  10.732  1.00  0.00     0.033 A 
HETATM   35  C   UNL     1      43.826 -10.423  12.120  1.00  0.00     0.002 A 
HETATM   36  C   UNL     1      42.563 -10.592  12.677  1.00  0.00     0.002 A 
ENDBRANCH  23  28
BRANCH  24  37
HETATM   37  O   UNL     1      41.984  -8.157   6.508  1.00  0.00    -0.359 OA
HETATM   38  H   UNL     1      42.965  -8.172   6.464  1.00  0.00     0.218 HD
ENDBRANCH  24  37
ENDBRANCH   1  21
TORSDOF 10
ENDMDL
MODEL 10
REMARK VINA RESULT:      -8.3      3.602      5.724
REMARK  10 active torsions:
REMARK  status: ('A' for Active; 'I' for Inactive)
REMARK    1  A    between atoms: C_2  and  O_3 
REMARK    2  A    between atoms: O_3  and  C_4 
REMARK    3  A    between atoms: C_6  and  O_7 
REMARK    4  A    between atoms: O_7  and  C_8 
REMARK    5  A    between atoms: C_11  and  C_12 
REMARK       I    between atoms: C_12  and  N_13 
REMARK    6  A    between atoms: N_13  and  C_14 
REMARK    7  A    between atoms: C_14  and  N_15 
REMARK    8  A    between atoms: N_15  and  C_16 
REMARK    9  A    between atoms: C_18  and  C_19 
REMARK   10  A    between atoms: C_28  and  O_29 
ROOT
HETATM    1  N   UNL     1      39.213 -13.890   3.193  1.00  0.00    -0.333 N 
HETATM    2  H   UNL     1      38.287 -14.298   3.340  1.00  0.00     0.168 HD
ENDROOT
BRANCH   1   3
HETATM    3  C   UNL     1      39.446 -12.780   3.968  1.00  0.00     0.179 C 
HETATM    4  S   UNL     1      38.645 -11.312   3.984  1.00  0.00    -0.040 SA
BRANCH   3   5
HETATM    5  N   UNL     1      40.503 -12.891   4.855  1.00  0.00    -0.299 N 
HETATM    6  C   UNL     1      41.868 -12.883   4.596  1.00  0.00     0.258 C 
HETATM    7  O   UNL     1      42.343 -12.551   3.511  1.00  0.00    -0.267 OA
HETATM    8  H   UNL     1      40.181 -13.124   5.782  1.00  0.00     0.171 HD
BRANCH   6   9
HETATM    9  C   UNL     1      42.770 -13.307   5.710  1.00  0.00     0.037 A 
HETATM   10  C   UNL     1      43.110 -14.665   5.795  1.00  0.00     0.054 A 
HETATM   11  C   UNL     1      43.908 -15.126   6.842  1.00  0.00     0.072 A 
HETATM   12  C   UNL     1      44.354 -14.231   7.820  1.00  0.00     0.073 A 
HETATM   13  C   UNL     1      44.036 -12.878   7.738  1.00  0.00     0.072 A 
HETATM   14  C   UNL     1      43.261 -12.415   6.672  1.00  0.00     0.054 A 
BRANCH  11  15
HETATM   15  O   UNL     1      44.305 -16.421   7.038  1.00  0.00    -0.351 OA
BRANCH  15  16
HETATM   16  C   UNL     1      43.595 -17.179   8.017  1.00  0.00     0.171 C 
HETATM   17  C   UNL     1      43.554 -18.622   7.548  1.00  0.00     0.034 C 
ENDBRANCH  15  16
ENDBRANCH  11  15
BRANCH  13  18
HETATM   18  O   UNL     1      44.418 -11.906   8.622  1.00  0.00    -0.351 OA
BRANCH  18  19
HETATM   19  C   UNL     1      44.967 -12.342   9.866  1.00  0.00     0.171 C 
HETATM   20  C   UNL     1      45.337 -11.109  10.671  1.00  0.00     0.034 C 
ENDBRANCH  18  19
ENDBRANCH  13  18
ENDBRANCH   6   9
ENDBRANCH   3   5
ENDBRANCH   1   3
BRANCH   1  21
HETATM   21  C   UNL     1      40.030 -14.569   2.261  1.00  0.00     0.035 A 
HETATM   22  C   UNL     1      40.710 -15.711   2.714  1.00  0.00     0.046 A 
HETATM   23  C   UNL     1      41.523 -16.476   1.856  1.00  0.00     0.036 A 
HETATM   24  C   UNL     1      41.595 -16.089   0.503  1.00  0.00     0.084 A 
HETATM   25  C   UNL     1      40.909 -14.967   0.023  1.00  0.00    -0.026 A 
HETATM   26  C   UNL     1      40.994 -14.569  -1.422  1.00  0.00     0.051 C 
HETATM   27  C   UNL     1      40.133 -14.216   0.915  1.00  0.00     0.039 A 
BRANCH  23  28
HETATM   28  C   UNL     1      42.280 -17.657   2.324  1.00  0.00     0.112 A 
HETATM   29  S   UNL     1      43.129 -17.679   3.820  1.00  0.00    -0.067 SA
HETATM   30  C   UNL     1      43.710 -19.263   3.485  1.00  0.00     0.035 A 
HETATM   31  C   UNL     1      43.212 -19.675   2.250  1.00  0.00     0.075 A 
HETATM   32  C   UNL     1      44.548 -20.085   4.258  1.00  0.00     0.021 A 
HETATM   33  N   UNL     1      42.417 -18.750   1.594  1.00  0.00    -0.239 NA
HETATM   34  C   UNL     1      43.554 -20.956   1.771  1.00  0.00     0.033 A 
HETATM   35  C   UNL     1      44.383 -21.784   2.533  1.00  0.00     0.002 A 
HETATM   36  C   UNL     1      44.876 -21.350   3.760  1.00  0.00     0.002 A 
ENDBRANCH  23  28
BRANCH  24  37
HETATM   37  O   UNL     1      42.335 -16.796  -0.418  1.00  0.00    -0.359 OA
HETATM   38  H   UNL     1      41.762 -17.501  -0.788  1.00  0.00     0.218 HD
ENDBRANCH  24  37
ENDBRANCH   1  21
TORSDOF 10
ENDMDL
