MODEL 1
REMARK VINA RESULT:      -9.5      0.000      0.000
REMARK  6 active torsions:
REMARK  status: ('A' for Active; 'I' for Inactive)
REMARK    1  A    between atoms: C_8  and  C_9 
REMARK    2  A    between atoms: N_10  and  N_11 
REMARK       I    between atoms: N_11  and  C_12 
REMARK    3  A    between atoms: C_12  and  C_13 
REMARK    4  A    between atoms: C_16  and  N_17 
REMARK    5  A    between atoms: N_17  and  C_18 
REMARK    6  A    between atoms: C_18  and  C_19 
ROOT
HETATM    1  C   UNL     1      43.586 -14.082   6.186  1.00  0.00     0.033 A 
HETATM    2  C   UNL     1      43.538 -13.726   4.836  1.00  0.00     0.019 A 
HETATM    3  C   UNL     1      43.284 -14.697   3.858  1.00  0.00     0.030 A 
HETATM    4  C   UNL     1      43.109 -16.045   4.196  1.00  0.00     0.028 A 
HETATM    5  C   UNL     1      43.162 -16.384   5.556  1.00  0.00     0.030 A 
HETATM    6  C   UNL     1      43.414 -15.423   6.540  1.00  0.00     0.019 A 
ENDROOT
BRANCH   1   7
HETATM    7  C   UNL     1      43.806 -13.087   7.274  1.00  0.00     0.271 C 
HETATM    8  N   UNL     1      42.823 -12.113   7.391  1.00  0.00    -0.243 N 
HETATM    9  H   UNL     1      42.071 -12.072   6.714  1.00  0.00     0.192 HD
HETATM   10  O   UNL     1      44.797 -13.206   7.987  1.00  0.00    -0.266 OA
BRANCH   8  11
HETATM   11  N   UNL     1      42.796 -11.063   8.274  1.00  0.00    -0.183 NA
HETATM   12  C   UNL     1      41.665 -10.670   8.765  1.00  0.00     0.152 C 
BRANCH  12  13
HETATM   13  C   UNL     1      41.656  -9.571   9.713  1.00  0.00     0.011 A 
HETATM   14  C   UNL     1      42.272  -9.537  11.005  1.00  0.00     0.004 A 
HETATM   15  C   UNL     1      43.038 -10.455  11.756  1.00  0.00     0.014 A 
HETATM   16  C   UNL     1      41.995  -8.291  11.570  1.00  0.00     0.043 A 
HETATM   17  C   UNL     1      43.490 -10.099  13.032  1.00  0.00     0.001 A 
HETATM   18  C   UNL     1      43.193  -8.848  13.565  1.00  0.00     0.002 A 
HETATM   19  C   UNL     1      42.441  -7.917  12.843  1.00  0.00     0.030 A 
HETATM   20  N   UNL     1      41.247  -7.589  10.654  1.00  0.00    -0.364 N 
HETATM   21  H   UNL     1      40.904  -6.648  10.793  1.00  0.00     0.165 HD
HETATM   22  C   UNL     1      41.033  -8.348   9.537  1.00  0.00     0.102 A 
ENDBRANCH  12  13
ENDBRANCH   8  11
ENDBRANCH   1   7
BRANCH   4  23
HETATM   23  N   UNL     1      42.743 -17.032   3.284  1.00  0.00    -0.386 N 
HETATM   24  H   UNL     1      42.157 -17.754   3.697  1.00  0.00     0.160 HD
BRANCH  23  25
HETATM   25  C   UNL     1      43.705 -17.571   2.333  1.00  0.00     0.158 C 
BRANCH  25  26
HETATM   26  C   UNL     1      43.931 -19.038   2.627  1.00  0.00    -0.038 A 
HETATM   27  C   UNL     1      44.412 -19.451   3.881  1.00  0.00     0.048 A 
HETATM   28  C   UNL     1      44.620 -20.800   4.083  1.00  0.00     0.105 A 
HETATM   29  C   UNL     1      44.368 -21.731   3.102  1.00  0.00     0.105 A 
HETATM   30  O   UNL     1      45.086 -21.366   5.228  1.00  0.00    -0.323 OA
HETATM   31  O   UNL     1      44.643 -22.999   3.508  1.00  0.00    -0.323 OA
HETATM   32  C   UNL     1      43.892 -21.368   1.863  1.00  0.00     0.040 A 
HETATM   33  C   UNL     1      45.105 -22.760   4.854  1.00  0.00     0.352 A 
HETATM   34  C   UNL     1      43.674 -20.006   1.627  1.00  0.00     0.012 A 
ENDBRANCH  25  26
ENDBRANCH  23  25
ENDBRANCH   4  23
TORSDOF 6
ENDMDL
MODEL 2
REMARK VINA RESULT:      -9.4      6.921     10.823
REMARK  6 active torsions:
REMARK  status: ('A' for Active; 'I' for Inactive)
REMARK    1  A    between atoms: C_8  and  C_9 
REMARK    2  A    between atoms: N_10  and  N_11 
REMARK       I    between atoms: N_11  and  C_12 
REMARK    3  A    between atoms: C_12  and  C_13 
REMARK    4  A    between atoms: C_16  and  N_17 
REMARK    5  A    between atoms: N_17  and  C_18 
REMARK    6  A    between atoms: C_18  and  C_19 
ROOT
HETATM    1  C   UNL     1      39.387 -14.299   2.295  1.00  0.00     0.033 A 
HETATM    2  C   UNL     1      38.331 -14.825   1.546  1.00  0.00     0.019 A 
HETATM    3  C   UNL     1      37.558 -13.986   0.731  1.00  0.00     0.030 A 
HETATM    4  C   UNL     1      37.793 -12.607   0.671  1.00  0.00     0.028 A 
HETATM    5  C   UNL     1      38.856 -12.097   1.431  1.00  0.00     0.030 A 
HETATM    6  C   UNL     1      39.635 -12.925   2.247  1.00  0.00     0.019 A 
ENDROOT
BRANCH   1   7
HETATM    7  C   UNL     1      40.273 -15.147   3.143  1.00  0.00     0.271 C 
HETATM    8  N   UNL     1      40.661 -16.352   2.571  1.00  0.00    -0.243 N 
HETATM    9  H   UNL     1      40.281 -16.630   1.674  1.00  0.00     0.192 HD
HETATM   10  O   UNL     1      40.610 -14.726   4.245  1.00  0.00    -0.266 OA
BRANCH   8  11
HETATM   11  N   UNL     1      41.435 -17.329   3.142  1.00  0.00    -0.183 NA
HETATM   12  C   UNL     1      42.725 -17.263   3.042  1.00  0.00     0.152 C 
BRANCH  12  13
HETATM   13  C   UNL     1      43.531 -18.295   3.669  1.00  0.00     0.011 A 
HETATM   14  C   UNL     1      43.772 -19.619   3.182  1.00  0.00     0.004 A 
HETATM   15  C   UNL     1      43.367 -20.337   2.035  1.00  0.00     0.014 A 
HETATM   16  C   UNL     1      44.588 -20.266   4.111  1.00  0.00     0.043 A 
HETATM   17  C   UNL     1      43.785 -21.662   1.865  1.00  0.00     0.001 A 
HETATM   18  C   UNL     1      44.597 -22.277   2.814  1.00  0.00     0.002 A 
HETATM   19  C   UNL     1      45.017 -21.590   3.956  1.00  0.00     0.030 A 
HETATM   20  N   UNL     1      44.842 -19.368   5.122  1.00  0.00    -0.364 N 
HETATM   21  H   UNL     1      45.412 -19.563   5.934  1.00  0.00     0.165 HD
HETATM   22  C   UNL     1      44.209 -18.182   4.869  1.00  0.00     0.102 A 
ENDBRANCH  12  13
ENDBRANCH   8  11
ENDBRANCH   1   7
BRANCH   4  23
HETATM   23  N   UNL     1      37.134 -11.745  -0.203  1.00  0.00    -0.386 N 
HETATM   24  H   UNL     1      36.164 -12.006  -0.358  1.00  0.00     0.160 HD
BRANCH  23  25
HETATM   25  C   UNL     1      37.783 -11.263  -1.415  1.00  0.00     0.158 C 
BRANCH  25  26
HETATM   26  C   UNL     1      38.430 -12.428  -2.132  1.00  0.00    -0.038 A 
HETATM   27  C   UNL     1      37.648 -13.364  -2.828  1.00  0.00     0.048 A 
HETATM   28  C   UNL     1      38.292 -14.418  -3.443  1.00  0.00     0.105 A 
HETATM   29  C   UNL     1      39.659 -14.566  -3.391  1.00  0.00     0.105 A 
HETATM   30  O   UNL     1      37.690 -15.412  -4.149  1.00  0.00    -0.323 OA
HETATM   31  O   UNL     1      40.087 -15.670  -4.058  1.00  0.00    -0.323 OA
HETATM   32  C   UNL     1      40.461 -13.668  -2.723  1.00  0.00     0.040 A 
HETATM   33  C   UNL     1      38.833 -16.206  -4.530  1.00  0.00     0.352 A 
HETATM   34  C   UNL     1      39.836 -12.591  -2.087  1.00  0.00     0.012 A 
ENDBRANCH  25  26
ENDBRANCH  23  25
ENDBRANCH   4  23
TORSDOF 6
ENDMDL
MODEL 3
REMARK VINA RESULT:      -9.2      1.334      1.377
REMARK  6 active torsions:
REMARK  status: ('A' for Active; 'I' for Inactive)
REMARK    1  A    between atoms: C_8  and  C_9 
REMARK    2  A    between atoms: N_10  and  N_11 
REMARK       I    between atoms: N_11  and  C_12 
REMARK    3  A    between atoms: C_12  and  C_13 
REMARK    4  A    between atoms: C_16  and  N_17 
REMARK    5  A    between atoms: N_17  and  C_18 
REMARK    6  A    between atoms: C_18  and  C_19 
ROOT
HETATM    1  C   UNL     1      41.912 -13.216   5.474  1.00  0.00     0.033 A 
HETATM    2  C   UNL     1      43.102 -13.638   4.876  1.00  0.00     0.019 A 
HETATM    3  C   UNL     1      43.168 -14.883   4.235  1.00  0.00     0.030 A 
HETATM    4  C   UNL     1      42.066 -15.748   4.207  1.00  0.00     0.028 A 
HETATM    5  C   UNL     1      40.881 -15.308   4.813  1.00  0.00     0.030 A 
HETATM    6  C   UNL     1      40.804 -14.068   5.454  1.00  0.00     0.019 A 
ENDROOT
BRANCH   1   7
HETATM    7  C   UNL     1      41.768 -11.885   6.129  1.00  0.00     0.271 C 
HETATM    8  N   UNL     1      42.408 -11.757   7.354  1.00  0.00    -0.243 N 
HETATM    9  H   UNL     1      42.860 -12.561   7.773  1.00  0.00     0.192 HD
HETATM   10  O   UNL     1      41.134 -11.009   5.547  1.00  0.00    -0.266 OA
BRANCH   8  11
HETATM   11  N   UNL     1      42.406 -10.662   8.181  1.00  0.00    -0.183 NA
HETATM   12  C   UNL     1      41.524 -10.577   9.126  1.00  0.00     0.152 C 
BRANCH  12  13
HETATM   13  C   UNL     1      41.548  -9.422  10.005  1.00  0.00     0.011 A 
HETATM   14  C   UNL     1      42.141  -9.336  11.305  1.00  0.00     0.004 A 
HETATM   15  C   UNL     1      42.850 -10.239  12.126  1.00  0.00     0.014 A 
HETATM   16  C   UNL     1      41.911  -8.046  11.786  1.00  0.00     0.043 A 
HETATM   17  C   UNL     1      43.295  -9.824  13.387  1.00  0.00     0.001 A 
HETATM   18  C   UNL     1      43.045  -8.531  13.837  1.00  0.00     0.002 A 
HETATM   19  C   UNL     1      42.349  -7.614  13.044  1.00  0.00     0.030 A 
HETATM   20  N   UNL     1      41.212  -7.369  10.813  1.00  0.00    -0.364 N 
HETATM   21  H   UNL     1      40.910  -6.408  10.888  1.00  0.00     0.165 HD
HETATM   22  C   UNL     1      40.985  -8.187   9.741  1.00  0.00     0.102 A 
ENDBRANCH  12  13
ENDBRANCH   8  11
ENDBRANCH   1   7
BRANCH   4  23
HETATM   23  N   UNL     1      42.037 -16.943   3.491  1.00  0.00    -0.386 N 
HETATM   24  H   UNL     1      41.718 -17.730   4.050  1.00  0.00     0.160 HD
BRANCH  23  25
HETATM   25  C   UNL     1      43.119 -17.303   2.585  1.00  0.00     0.158 C 
BRANCH  25  26
HETATM   26  C   UNL     1      43.543 -18.730   2.857  1.00  0.00    -0.038 A 
HETATM   27  C   UNL     1      43.984 -19.116   4.133  1.00  0.00     0.048 A 
HETATM   28  C   UNL     1      44.380 -20.425   4.314  1.00  0.00     0.105 A 
HETATM   29  C   UNL     1      44.349 -21.344   3.291  1.00  0.00     0.105 A 
HETATM   30  O   UNL     1      44.838 -20.961   5.477  1.00  0.00    -0.323 OA
HETATM   31  O   UNL     1      44.783 -22.571   3.682  1.00  0.00    -0.323 OA
HETATM   32  C   UNL     1      43.919 -21.007   2.027  1.00  0.00     0.040 A 
HETATM   33  C   UNL     1      45.099 -22.320   5.067  1.00  0.00     0.352 A 
HETATM   34  C   UNL     1      43.514 -19.686   1.812  1.00  0.00     0.012 A 
ENDBRANCH  25  26
ENDBRANCH  23  25
ENDBRANCH   4  23
TORSDOF 6
ENDMDL
MODEL 4
REMARK VINA RESULT:      -9.1      2.999     11.844
REMARK  6 active torsions:
REMARK  status: ('A' for Active; 'I' for Inactive)
REMARK    1  A    between atoms: C_8  and  C_9 
REMARK    2  A    between atoms: N_10  and  N_11 
REMARK       I    between atoms: N_11  and  C_12 
REMARK    3  A    between atoms: C_12  and  C_13 
REMARK    4  A    between atoms: C_16  and  N_17 
REMARK    5  A    between atoms: N_17  and  C_18 
REMARK    6  A    between atoms: C_18  and  C_19 
ROOT
HETATM    1  C   UNL     1      44.609 -12.460   8.566  1.00  0.00     0.033 A 
HETATM    2  C   UNL     1      45.490 -12.529   9.648  1.00  0.00     0.019 A 
HETATM    3  C   UNL     1      45.278 -11.734  10.783  1.00  0.00     0.030 A 
HETATM    4  C   UNL     1      44.211 -10.829  10.851  1.00  0.00     0.028 A 
HETATM    5  C   UNL     1      43.339 -10.772   9.755  1.00  0.00     0.030 A 
HETATM    6  C   UNL     1      43.540 -11.562   8.618  1.00  0.00     0.019 A 
ENDROOT
BRANCH   1   7
HETATM    7  C   UNL     1      44.756 -13.313   7.352  1.00  0.00     0.271 C 
HETATM    8  N   UNL     1      43.565 -13.753   6.791  1.00  0.00    -0.243 N 
HETATM    9  H   UNL     1      42.686 -13.552   7.254  1.00  0.00     0.192 HD
HETATM   10  O   UNL     1      45.885 -13.541   6.928  1.00  0.00    -0.266 OA
BRANCH   8  11
HETATM   11  N   UNL     1      43.414 -14.575   5.704  1.00  0.00    -0.183 NA
HETATM   12  C   UNL     1      43.391 -15.859   5.872  1.00  0.00     0.152 C 
BRANCH  12  13
HETATM   13  C   UNL     1      43.211 -16.714   4.712  1.00  0.00     0.011 A 
HETATM   14  C   UNL     1      43.783 -18.008   4.494  1.00  0.00     0.004 A 
HETATM   15  C   UNL     1      44.639 -18.846   5.242  1.00  0.00     0.014 A 
HETATM   16  C   UNL     1      43.352 -18.453   3.244  1.00  0.00     0.043 A 
HETATM   17  C   UNL     1      45.029 -20.083   4.716  1.00  0.00     0.001 A 
HETATM   18  C   UNL     1      44.582 -20.494   3.464  1.00  0.00     0.002 A 
HETATM   19  C   UNL     1      43.731 -19.687   2.702  1.00  0.00     0.030 A 
HETATM   20  N   UNL     1      42.540 -17.471   2.723  1.00  0.00    -0.364 N 
HETATM   21  H   UNL     1      42.081 -17.524   1.824  1.00  0.00     0.165 HD
HETATM   22  C   UNL     1      42.451 -16.421   3.595  1.00  0.00     0.102 A 
ENDBRANCH  12  13
ENDBRANCH   8  11
ENDBRANCH   1   7
BRANCH   4  23
HETATM   23  N   UNL     1      43.886 -10.099  11.993  1.00  0.00    -0.386 N 
HETATM   24  H   UNL     1      44.684  -9.608  12.388  1.00  0.00     0.160 HD
BRANCH  23  25
HETATM   25  C   UNL     1      43.009 -10.653  13.015  1.00  0.00     0.158 C 
BRANCH  25  26
HETATM   26  C   UNL     1      41.682  -9.928  12.980  1.00  0.00    -0.038 A 
HETATM   27  C   UNL     1      40.742 -10.201  11.972  1.00  0.00     0.048 A 
HETATM   28  C   UNL     1      39.559  -9.492  11.980  1.00  0.00     0.105 A 
HETATM   29  C   UNL     1      39.284  -8.543  12.937  1.00  0.00     0.105 A 
HETATM   30  O   UNL     1      38.550  -9.626  11.078  1.00  0.00    -0.323 OA
HETATM   31  O   UNL     1      38.068  -7.962  12.758  1.00  0.00    -0.323 OA
HETATM   32  C   UNL     1      40.176  -8.249  13.944  1.00  0.00     0.040 A 
HETATM   33  C   UNL     1      37.611  -8.648  11.574  1.00  0.00     0.352 A 
HETATM   34  C   UNL     1      41.386  -8.950  13.961  1.00  0.00     0.012 A 
ENDBRANCH  25  26
ENDBRANCH  23  25
ENDBRANCH   4  23
TORSDOF 6
ENDMDL
MODEL 5
REMARK VINA RESULT:      -9.1      2.016      2.519
REMARK  6 active torsions:
REMARK  status: ('A' for Active; 'I' for Inactive)
REMARK    1  A    between atoms: C_8  and  C_9 
REMARK    2  A    between atoms: N_10  and  N_11 
REMARK       I    between atoms: N_11  and  C_12 
REMARK    3  A    between atoms: C_12  and  C_13 
REMARK    4  A    between atoms: C_16  and  N_17 
REMARK    5  A    between atoms: N_17  and  C_18 
REMARK    6  A    between atoms: C_18  and  C_19 
ROOT
HETATM    1  C   UNL     1      40.277 -13.514   5.380  1.00  0.00     0.033 A 
HETATM    2  C   UNL     1      40.544 -14.809   5.834  1.00  0.00     0.019 A 
HETATM    3  C   UNL     1      40.966 -15.799   4.935  1.00  0.00     0.030 A 
HETATM    4  C   UNL     1      41.097 -15.534   3.566  1.00  0.00     0.028 A 
HETATM    5  C   UNL     1      40.824 -14.229   3.130  1.00  0.00     0.030 A 
HETATM    6  C   UNL     1      40.402 -13.234   4.017  1.00  0.00     0.019 A 
ENDROOT
BRANCH   1   7
HETATM    7  C   UNL     1      39.870 -12.410   6.294  1.00  0.00     0.271 C 
HETATM    8  N   UNL     1      40.859 -11.966   7.162  1.00  0.00    -0.243 N 
HETATM    9  H   UNL     1      41.752 -12.442   7.194  1.00  0.00     0.192 HD
HETATM   10  O   UNL     1      38.731 -11.962   6.204  1.00  0.00    -0.266 OA
BRANCH   8  11
HETATM   11  N   UNL     1      40.743 -10.996   8.126  1.00  0.00    -0.183 NA
HETATM   12  C   UNL     1      41.811 -10.494   8.658  1.00  0.00     0.152 C 
BRANCH  12  13
HETATM   13  C   UNL     1      41.672  -9.455   9.663  1.00  0.00     0.011 A 
HETATM   14  C   UNL     1      42.256  -9.431  10.970  1.00  0.00     0.004 A 
HETATM   15  C   UNL     1      43.095 -10.308  11.690  1.00  0.00     0.014 A 
HETATM   16  C   UNL     1      41.843  -8.252  11.592  1.00  0.00     0.043 A 
HETATM   17  C   UNL     1      43.483  -9.979  12.994  1.00  0.00     0.001 A 
HETATM   18  C   UNL     1      43.050  -8.795  13.585  1.00  0.00     0.002 A 
HETATM   19  C   UNL     1      42.222  -7.906  12.895  1.00  0.00     0.030 A 
HETATM   20  N   UNL     1      41.046  -7.578  10.695  1.00  0.00    -0.364 N 
HETATM   21  H   UNL     1      40.607  -6.686  10.875  1.00  0.00     0.165 HD
HETATM   22  C   UNL     1      40.933  -8.293   9.535  1.00  0.00     0.102 A 
ENDBRANCH  12  13
ENDBRANCH   8  11
ENDBRANCH   1   7
BRANCH   4  23
HETATM   23  N   UNL     1      41.619 -16.441   2.647  1.00  0.00    -0.386 N 
HETATM   24  H   UNL     1      41.168 -17.352   2.691  1.00  0.00     0.160 HD
BRANCH  23  25
HETATM   25  C   UNL     1      43.054 -16.541   2.422  1.00  0.00     0.158 C 
BRANCH  25  26
HETATM   26  C   UNL     1      43.540 -17.896   2.885  1.00  0.00    -0.038 A 
HETATM   27  C   UNL     1      43.518 -19.001   2.017  1.00  0.00     0.048 A 
HETATM   28  C   UNL     1      43.952 -20.216   2.503  1.00  0.00     0.105 A 
HETATM   29  C   UNL     1      44.400 -20.366   3.795  1.00  0.00     0.105 A 
HETATM   30  O   UNL     1      43.989 -21.382   1.803  1.00  0.00    -0.323 OA
HETATM   31  O   UNL     1      44.777 -21.644   4.068  1.00  0.00    -0.323 OA
HETATM   32  C   UNL     1      44.442 -19.309   4.675  1.00  0.00     0.040 A 
HETATM   33  C   UNL     1      44.507 -22.284   2.804  1.00  0.00     0.352 A 
HETATM   34  C   UNL     1      44.006 -18.063   4.212  1.00  0.00     0.012 A 
ENDBRANCH  25  26
ENDBRANCH  23  25
ENDBRANCH   4  23
TORSDOF 6
ENDMDL
MODEL 6
REMARK VINA RESULT:      -8.7      2.948     11.228
REMARK  6 active torsions:
REMARK  status: ('A' for Active; 'I' for Inactive)
REMARK    1  A    between atoms: C_8  and  C_9 
REMARK    2  A    between atoms: N_10  and  N_11 
REMARK       I    between atoms: N_11  and  C_12 
REMARK    3  A    between atoms: C_12  and  C_13 
REMARK    4  A    between atoms: C_16  and  N_17 
REMARK    5  A    between atoms: N_17  and  C_18 
REMARK    6  A    between atoms: C_18  and  C_19 
ROOT
HETATM    1  C   UNL     1      41.069 -14.154   5.132  1.00  0.00     0.033 A 
HETATM    2  C   UNL     1      39.867 -13.911   5.803  1.00  0.00     0.019 A 
HETATM    3  C   UNL     1      39.566 -12.624   6.270  1.00  0.00     0.030 A 
HETATM    4  C   UNL     1      40.465 -11.562   6.111  1.00  0.00     0.028 A 
HETATM    5  C   UNL     1      41.666 -11.825   5.437  1.00  0.00     0.030 A 
HETATM    6  C   UNL     1      41.977 -13.105   4.967  1.00  0.00     0.019 A 
ENDROOT
BRANCH   1   7
HETATM    7  C   UNL     1      41.423 -15.490   4.574  1.00  0.00     0.271 C 
HETATM    8  N   UNL     1      41.868 -16.420   5.504  1.00  0.00    -0.243 N 
HETATM    9  H   UNL     1      42.004 -16.142   6.469  1.00  0.00     0.192 HD
HETATM   10  O   UNL     1      41.278 -15.681   3.370  1.00  0.00    -0.266 OA
BRANCH   8  11
HETATM   11  N   UNL     1      42.292 -17.701   5.259  1.00  0.00    -0.183 NA
HETATM   12  C   UNL     1      43.555 -17.980   5.328  1.00  0.00     0.152 C 
BRANCH  12  13
HETATM   13  C   UNL     1      43.985 -19.345   5.085  1.00  0.00     0.011 A 
HETATM   14  C   UNL     1      44.034 -20.026   3.826  1.00  0.00     0.004 A 
HETATM   15  C   UNL     1      43.720 -19.664   2.498  1.00  0.00     0.014 A 
HETATM   16  C   UNL     1      44.495 -21.321   4.067  1.00  0.00     0.043 A 
HETATM   17  C   UNL     1      43.875 -20.603   1.471  1.00  0.00     0.001 A 
HETATM   18  C   UNL     1      44.335 -21.887   1.747  1.00  0.00     0.002 A 
HETATM   19  C   UNL     1      44.657 -22.272   3.052  1.00  0.00     0.030 A 
HETATM   20  N   UNL     1      44.728 -21.423   5.419  1.00  0.00    -0.364 N 
HETATM   21  H   UNL     1      45.072 -22.254   5.881  1.00  0.00     0.165 HD
HETATM   22  C   UNL     1      44.422 -20.244   6.041  1.00  0.00     0.102 A 
ENDBRANCH  12  13
ENDBRANCH   8  11
ENDBRANCH   1   7
BRANCH   4  23
HETATM   23  N   UNL     1      40.174 -10.242   6.451  1.00  0.00    -0.386 N 
HETATM   24  H   UNL     1      39.707  -9.736   5.702  1.00  0.00     0.160 HD
BRANCH  23  25
HETATM   25  C   UNL     1      41.141  -9.418   7.162  1.00  0.00     0.158 C 
BRANCH  25  26
HETATM   26  C   UNL     1      41.291  -9.933   8.577  1.00  0.00    -0.038 A 
HETATM   27  C   UNL     1      42.518 -10.449   9.025  1.00  0.00     0.048 A 
HETATM   28  C   UNL     1      42.588 -10.925  10.318  1.00  0.00     0.105 A 
HETATM   29  C   UNL     1      41.502 -10.903  11.162  1.00  0.00     0.105 A 
HETATM   30  O   UNL     1      43.690 -11.462  10.906  1.00  0.00    -0.323 OA
HETATM   31  O   UNL     1      41.785 -11.421  12.386  1.00  0.00    -0.323 OA
HETATM   32  C   UNL     1      40.283 -10.401  10.763  1.00  0.00     0.040 A 
HETATM   33  C   UNL     1      43.172 -11.781  12.215  1.00  0.00     0.352 A 
HETATM   34  C   UNL     1      40.181  -9.914   9.456  1.00  0.00     0.012 A 
ENDBRANCH  25  26
ENDBRANCH  23  25
ENDBRANCH   4  23
TORSDOF 6
ENDMDL
MODEL 7
REMARK VINA RESULT:      -8.7      3.715     10.711
REMARK  6 active torsions:
REMARK  status: ('A' for Active; 'I' for Inactive)
REMARK    1  A    between atoms: C_8  and  C_9 
REMARK    2  A    between atoms: N_10  and  N_11 
REMARK       I    between atoms: N_11  and  C_12 
REMARK    3  A    between atoms: C_12  and  C_13 
REMARK    4  A    between atoms: C_16  and  N_17 
REMARK    5  A    between atoms: N_17  and  C_18 
REMARK    6  A    between atoms: C_18  and  C_19 
ROOT
HETATM    1  C   UNL     1      39.551 -11.702   6.235  1.00  0.00     0.033 A 
HETATM    2  C   UNL     1      39.621 -10.307   6.279  1.00  0.00     0.019 A 
HETATM    3  C   UNL     1      39.505  -9.633   7.503  1.00  0.00     0.030 A 
HETATM    4  C   UNL     1      39.282 -10.326   8.699  1.00  0.00     0.028 A 
HETATM    5  C   UNL     1      39.214 -11.725   8.635  1.00  0.00     0.030 A 
HETATM    6  C   UNL     1      39.329 -12.408   7.420  1.00  0.00     0.019 A 
ENDROOT
BRANCH   1   7
HETATM    7  C   UNL     1      39.713 -12.476   4.971  1.00  0.00     0.271 C 
HETATM    8  N   UNL     1      40.322 -13.716   5.112  1.00  0.00    -0.243 N 
HETATM    9  H   UNL     1      40.687 -13.999   6.014  1.00  0.00     0.192 HD
HETATM   10  O   UNL     1      39.288 -11.992   3.927  1.00  0.00    -0.266 OA
BRANCH   8  11
HETATM   11  N   UNL     1      40.626 -14.609   4.116  1.00  0.00    -0.183 NA
HETATM   12  C   UNL     1      41.144 -15.755   4.422  1.00  0.00     0.152 C 
BRANCH  12  13
HETATM   13  C   UNL     1      41.442 -16.697   3.357  1.00  0.00     0.011 A 
HETATM   14  C   UNL     1      42.430 -17.733   3.370  1.00  0.00     0.004 A 
HETATM   15  C   UNL     1      43.377 -18.180   4.317  1.00  0.00     0.014 A 
HETATM   16  C   UNL     1      42.376 -18.379   2.134  1.00  0.00     0.043 A 
HETATM   17  C   UNL     1      44.227 -19.245   3.995  1.00  0.00     0.001 A 
HETATM   18  C   UNL     1      44.147 -19.865   2.752  1.00  0.00     0.002 A 
HETATM   19  C   UNL     1      43.217 -19.446   1.795  1.00  0.00     0.030 A 
HETATM   20  N   UNL     1      41.386 -17.767   1.400  1.00  0.00    -0.364 N 
HETATM   21  H   UNL     1      41.122 -18.031   0.461  1.00  0.00     0.165 HD
HETATM   22  C   UNL     1      40.821 -16.753   2.123  1.00  0.00     0.102 A 
ENDBRANCH  12  13
ENDBRANCH   8  11
ENDBRANCH   1   7
BRANCH   4  23
HETATM   23  N   UNL     1      39.273  -9.722   9.955  1.00  0.00    -0.386 N 
HETATM   24  H   UNL     1      38.390  -9.263  10.165  1.00  0.00     0.160 HD
BRANCH  23  25
HETATM   25  C   UNL     1      40.422  -8.967  10.435  1.00  0.00     0.158 C 
BRANCH  25  26
HETATM   26  C   UNL     1      41.594  -9.906  10.618  1.00  0.00    -0.038 A 
HETATM   27  C   UNL     1      42.576 -10.030   9.621  1.00  0.00     0.048 A 
HETATM   28  C   UNL     1      43.609 -10.919   9.834  1.00  0.00     0.105 A 
HETATM   29  C   UNL     1      43.697 -11.670  10.983  1.00  0.00     0.105 A 
HETATM   30  O   UNL     1      44.632 -11.166   8.974  1.00  0.00    -0.323 OA
HETATM   31  O   UNL     1      44.787 -12.482  10.989  1.00  0.00    -0.323 OA
HETATM   32  C   UNL     1      42.759 -11.575  11.986  1.00  0.00     0.040 A 
HETATM   33  C   UNL     1      45.372 -12.163   9.710  1.00  0.00     0.352 A 
HETATM   34  C   UNL     1      41.698 -10.684  11.797  1.00  0.00     0.012 A 
ENDBRANCH  25  26
ENDBRANCH  23  25
ENDBRANCH   4  23
TORSDOF 6
ENDMDL
MODEL 8
REMARK VINA RESULT:      -8.7      5.770      9.055
REMARK  6 active torsions:
REMARK  status: ('A' for Active; 'I' for Inactive)
REMARK    1  A    between atoms: C_8  and  C_9 
REMARK    2  A    between atoms: N_10  and  N_11 
REMARK       I    between atoms: N_11  and  C_12 
REMARK    3  A    between atoms: C_12  and  C_13 
REMARK    4  A    between atoms: C_16  and  N_17 
REMARK    5  A    between atoms: N_17  and  C_18 
REMARK    6  A    between atoms: C_18  and  C_19 
ROOT
HETATM    1  C   UNL     1      42.320 -15.246   3.484  1.00  0.00     0.033 A 
HETATM    2  C   UNL     1      43.169 -14.938   4.550  1.00  0.00     0.019 A 
HETATM    3  C   UNL     1      43.363 -15.860   5.588  1.00  0.00     0.030 A 
HETATM    4  C   UNL     1      42.691 -17.089   5.607  1.00  0.00     0.028 A 
HETATM    5  C   UNL     1      41.842 -17.380   4.529  1.00  0.00     0.030 A 
HETATM    6  C   UNL     1      41.642 -16.468   3.488  1.00  0.00     0.019 A 
ENDROOT
BRANCH   1   7
HETATM    7  C   UNL     1      42.111 -14.326   2.330  1.00  0.00     0.271 C 
HETATM    8  N   UNL     1      41.077 -14.679   1.472  1.00  0.00    -0.243 N 
HETATM    9  H   UNL     1      40.582 -15.551   1.614  1.00  0.00     0.192 HD
HETATM   10  O   UNL     1      42.826 -13.334   2.232  1.00  0.00    -0.266 OA
BRANCH   8  11
HETATM   11  N   UNL     1      40.697 -14.036   0.322  1.00  0.00    -0.183 NA
HETATM   12  C   UNL     1      41.306 -14.301  -0.789  1.00  0.00     0.152 C 
BRANCH  12  13
HETATM   13  C   UNL     1      40.878 -13.625  -2.001  1.00  0.00     0.011 A 
HETATM   14  C   UNL     1      41.435 -12.436  -2.571  1.00  0.00     0.004 A 
HETATM   15  C   UNL     1      42.492 -11.572  -2.212  1.00  0.00     0.014 A 
HETATM   16  C   UNL     1      40.703 -12.140  -3.723  1.00  0.00     0.043 A 
HETATM   17  C   UNL     1      42.774 -10.455  -3.007  1.00  0.00     0.001 A 
HETATM   18  C   UNL     1      42.023 -10.190  -4.148  1.00  0.00     0.002 A 
HETATM   19  C   UNL     1      40.972 -11.029  -4.531  1.00  0.00     0.030 A 
HETATM   20  N   UNL     1      39.744 -13.117  -3.855  1.00  0.00    -0.364 N 
HETATM   21  H   UNL     1      39.068 -13.160  -4.605  1.00  0.00     0.165 HD
HETATM   22  C   UNL     1      39.837 -14.012  -2.825  1.00  0.00     0.102 A 
ENDBRANCH  12  13
ENDBRANCH   8  11
ENDBRANCH   1   7
BRANCH   4  23
HETATM   23  N   UNL     1      42.929 -18.088   6.548  1.00  0.00    -0.386 N 
HETATM   24  H   UNL     1      42.504 -17.890   7.450  1.00  0.00     0.160 HD
BRANCH  23  25
HETATM   25  C   UNL     1      44.242 -18.705   6.674  1.00  0.00     0.158 C 
BRANCH  25  26
HETATM   26  C   UNL     1      44.356 -19.843   5.684  1.00  0.00    -0.038 A 
HETATM   27  C   UNL     1      44.400 -19.590   4.303  1.00  0.00     0.048 A 
HETATM   28  C   UNL     1      44.481 -20.670   3.448  1.00  0.00     0.105 A 
HETATM   29  C   UNL     1      44.522 -21.964   3.911  1.00  0.00     0.105 A 
HETATM   30  O   UNL     1      44.525 -20.603   2.090  1.00  0.00    -0.323 OA
HETATM   31  O   UNL     1      44.597 -22.873   2.903  1.00  0.00    -0.323 OA
HETATM   32  C   UNL     1      44.485 -22.255   5.256  1.00  0.00     0.040 A 
HETATM   33  C   UNL     1      44.592 -22.005   1.751  1.00  0.00     0.352 A 
HETATM   34  C   UNL     1      44.401 -21.181   6.148  1.00  0.00     0.012 A 
ENDBRANCH  25  26
ENDBRANCH  23  25
ENDBRANCH   4  23
TORSDOF 6
ENDMDL
MODEL 9
REMARK VINA RESULT:      -8.5      3.276     11.305
REMARK  6 active torsions:
REMARK  status: ('A' for Active; 'I' for Inactive)
REMARK    1  A    between atoms: C_8  and  C_9 
REMARK    2  A    between atoms: N_10  and  N_11 
REMARK       I    between atoms: N_11  and  C_12 
REMARK    3  A    between atoms: C_12  and  C_13 
REMARK    4  A    between atoms: C_16  and  N_17 
REMARK    5  A    between atoms: N_17  and  C_18 
REMARK    6  A    between atoms: C_18  and  C_19 
ROOT
HETATM    1  C   UNL     1      40.661 -13.692   4.693  1.00  0.00     0.033 A 
HETATM    2  C   UNL     1      39.837 -13.574   5.815  1.00  0.00     0.019 A 
HETATM    3  C   UNL     1      39.769 -12.362   6.517  1.00  0.00     0.030 A 
HETATM    4  C   UNL     1      40.545 -11.258   6.143  1.00  0.00     0.028 A 
HETATM    5  C   UNL     1      41.368 -11.396   5.016  1.00  0.00     0.030 A 
HETATM    6  C   UNL     1      41.442 -12.600   4.307  1.00  0.00     0.019 A 
ENDROOT
BRANCH   1   7
HETATM    7  C   UNL     1      40.740 -14.939   3.880  1.00  0.00     0.271 C 
HETATM    8  N   UNL     1      41.815 -15.768   4.171  1.00  0.00    -0.243 N 
HETATM    9  H   UNL     1      42.515 -15.469   4.839  1.00  0.00     0.192 HD
HETATM   10  O   UNL     1      39.861 -15.155   3.050  1.00  0.00    -0.266 OA
BRANCH   8  11
HETATM   11  N   UNL     1      42.144 -16.948   3.553  1.00  0.00    -0.183 NA
HETATM   12  C   UNL     1      43.184 -17.608   3.951  1.00  0.00     0.152 C 
BRANCH  12  13
HETATM   13  C   UNL     1      43.507 -18.865   3.299  1.00  0.00     0.011 A 
HETATM   14  C   UNL     1      43.978 -20.066   3.921  1.00  0.00     0.004 A 
HETATM   15  C   UNL     1      44.268 -20.439   5.251  1.00  0.00     0.014 A 
HETATM   16  C   UNL     1      44.171 -21.012   2.913  1.00  0.00     0.043 A 
HETATM   17  C   UNL     1      44.737 -21.729   5.522  1.00  0.00     0.001 A 
HETATM   18  C   UNL     1      44.920 -22.647   4.491  1.00  0.00     0.002 A 
HETATM   19  C   UNL     1      44.638 -22.307   3.165  1.00  0.00     0.030 A 
HETATM   20  N   UNL     1      43.822 -20.414   1.724  1.00  0.00    -0.364 N 
HETATM   21  H   UNL     1      43.859 -20.867   0.821  1.00  0.00     0.165 HD
HETATM   22  C   UNL     1      43.426 -19.124   1.943  1.00  0.00     0.102 A 
ENDBRANCH  12  13
ENDBRANCH   8  11
ENDBRANCH   1   7
BRANCH   4  23
HETATM   23  N   UNL     1      40.436  -9.999   6.730  1.00  0.00    -0.386 N 
HETATM   24  H   UNL     1      39.922  -9.338   6.153  1.00  0.00     0.160 HD
BRANCH  23  25
HETATM   25  C   UNL     1      41.569  -9.385   7.408  1.00  0.00     0.158 C 
BRANCH  25  26
HETATM   26  C   UNL     1      41.735 -10.015   8.773  1.00  0.00    -0.038 A 
HETATM   27  C   UNL     1      40.682 -10.000   9.703  1.00  0.00     0.048 A 
HETATM   28  C   UNL     1      40.901 -10.570  10.940  1.00  0.00     0.105 A 
HETATM   29  C   UNL     1      42.105 -11.145  11.274  1.00  0.00     0.105 A 
HETATM   30  O   UNL     1      39.997 -10.634  11.954  1.00  0.00    -0.323 OA
HETATM   31  O   UNL     1      42.108 -11.643  12.539  1.00  0.00    -0.323 OA
HETATM   32  C   UNL     1      43.160 -11.185  10.391  1.00  0.00     0.040 A 
HETATM   33  C   UNL     1      40.772 -11.309  12.967  1.00  0.00     0.352 A 
HETATM   34  C   UNL     1      42.970 -10.612   9.129  1.00  0.00     0.012 A 
ENDBRANCH  25  26
ENDBRANCH  23  25
ENDBRANCH   4  23
TORSDOF 6
ENDMDL
MODEL 10
REMARK VINA RESULT:      -8.3      9.233     13.206
REMARK  6 active torsions:
REMARK  status: ('A' for Active; 'I' for Inactive)
REMARK    1  A    between atoms: C_8  and  C_9 
REMARK    2  A    between atoms: N_10  and  N_11 
REMARK       I    between atoms: N_11  and  C_12 
REMARK    3  A    between atoms: C_12  and  C_13 
REMARK    4  A    between atoms: C_16  and  N_17 
REMARK    5  A    between atoms: N_17  and  C_18 
REMARK    6  A    between atoms: C_18  and  C_19 
ROOT
HETATM    1  C   UNL     1      40.441 -14.679  -1.205  1.00  0.00     0.033 A 
HETATM    2  C   UNL     1      40.724 -14.984  -2.538  1.00  0.00     0.019 A 
HETATM    3  C   UNL     1      39.843 -14.591  -3.555  1.00  0.00     0.030 A 
HETATM    4  C   UNL     1      38.648 -13.920  -3.266  1.00  0.00     0.028 A 
HETATM    5  C   UNL     1      38.380 -13.624  -1.922  1.00  0.00     0.030 A 
HETATM    6  C   UNL     1      39.252 -14.011  -0.899  1.00  0.00     0.019 A 
ENDROOT
BRANCH   1   7
HETATM    7  C   UNL     1      41.362 -15.030  -0.086  1.00  0.00     0.271 C 
HETATM    8  N   UNL     1      41.835 -16.335  -0.097  1.00  0.00    -0.243 N 
HETATM    9  H   UNL     1      41.490 -16.990  -0.789  1.00  0.00     0.192 HD
HETATM   10  O   UNL     1      41.650 -14.161   0.731  1.00  0.00    -0.266 OA
BRANCH   8  11
HETATM   11  N   UNL     1      42.658 -16.927   0.826  1.00  0.00    -0.183 NA
HETATM   12  C   UNL     1      42.140 -17.560   1.830  1.00  0.00     0.152 C 
BRANCH  12  13
HETATM   13  C   UNL     1      43.025 -18.198   2.788  1.00  0.00     0.011 A 
HETATM   14  C   UNL     1      43.515 -19.543   2.752  1.00  0.00     0.004 A 
HETATM   15  C   UNL     1      43.343 -20.631   1.869  1.00  0.00     0.014 A 
HETATM   16  C   UNL     1      44.319 -19.727   3.878  1.00  0.00     0.043 A 
HETATM   17  C   UNL     1      43.973 -21.850   2.142  1.00  0.00     0.001 A 
HETATM   18  C   UNL     1      44.767 -21.999   3.276  1.00  0.00     0.002 A 
HETATM   19  C   UNL     1      44.958 -20.939   4.167  1.00  0.00     0.030 A 
HETATM   20  N   UNL     1      44.327 -18.537   4.569  1.00  0.00    -0.364 N 
HETATM   21  H   UNL     1      44.833 -18.377   5.429  1.00  0.00     0.165 HD
HETATM   22  C   UNL     1      43.551 -17.613   3.926  1.00  0.00     0.102 A 
ENDBRANCH  12  13
ENDBRANCH   8  11
ENDBRANCH   1   7
BRANCH   4  23
HETATM   23  N   UNL     1      37.792 -13.407  -4.238  1.00  0.00    -0.386 N 
HETATM   24  H   UNL     1      38.288 -13.049  -5.051  1.00  0.00     0.160 HD
BRANCH  23  25
HETATM   25  C   UNL     1      36.649 -12.581  -3.874  1.00  0.00     0.158 C 
BRANCH  25  26
HETATM   26  C   UNL     1      35.808 -12.322  -5.104  1.00  0.00    -0.038 A 
HETATM   27  C   UNL     1      35.414 -13.380  -5.940  1.00  0.00     0.048 A 
HETATM   28  C   UNL     1      34.667 -13.079  -7.059  1.00  0.00     0.105 A 
HETATM   29  C   UNL     1      34.305 -11.788  -7.367  1.00  0.00     0.105 A 
HETATM   30  O   UNL     1      34.212 -13.977  -7.973  1.00  0.00    -0.323 OA
HETATM   31  O   UNL     1      33.575 -11.714  -8.512  1.00  0.00    -0.323 OA
HETATM   32  C   UNL     1      34.666 -10.724  -6.573  1.00  0.00     0.040 A 
HETATM   33  C   UNL     1      33.527 -13.104  -8.895  1.00  0.00     0.352 A 
HETATM   34  C   UNL     1      35.426 -10.997  -5.431  1.00  0.00     0.012 A 
ENDBRANCH  25  26
ENDBRANCH  23  25
ENDBRANCH   4  23
TORSDOF 6
ENDMDL
