MODEL 1
REMARK VINA RESULT:     -10.1      0.000      0.000
REMARK  6 active torsions:
REMARK  status: ('A' for Active; 'I' for Inactive)
REMARK    1  A    between atoms: C_9  and  C_10 
REMARK       I    between atoms: C_10  and  N_11 
REMARK    2  A    between atoms: N_11  and  N_12 
REMARK       I    between atoms: N_12  and  C_13 
REMARK       I    between atoms: C_13  and  N_14 
REMARK    3  A    between atoms: N_14  and  C_15 
REMARK    4  A    between atoms: C_15  and  C_16 
REMARK    5  A    between atoms: C_16  and  C_17 
REMARK    6  A    between atoms: C_16  and  C_27 
ROOT
HETATM    1  N   UNL     1      41.285 -16.206  -0.929  1.00  0.00    -0.249 N 
HETATM    2  C   UNL     1      41.910 -15.838   0.240  1.00  0.00     0.334 C 
HETATM    3  N   UNL     1      42.905 -16.718   0.589  1.00  0.00    -0.341 N 
HETATM    4  O   UNL     1      41.589 -14.854   0.896  1.00  0.00    -0.246 OA
HETATM    5  H   UNL     1      41.752 -16.805  -1.604  1.00  0.00     0.192 HD
HETATM    6  H   UNL     1      42.748 -17.664   0.266  1.00  0.00     0.164 HD
ENDROOT
BRANCH   1   7
HETATM    7  N   UNL     1      40.259 -15.386  -1.421  1.00  0.00    -0.261 N 
HETATM    8  C   UNL     1      40.305 -15.034  -2.757  1.00  0.00     0.291 C 
HETATM    9  O   UNL     1      41.287 -15.153  -3.476  1.00  0.00    -0.264 OA
HETATM   10  H   UNL     1      39.337 -15.513  -0.991  1.00  0.00     0.190 HD
BRANCH   8  11
HETATM   11  C   UNL     1      38.967 -14.508  -3.286  1.00  0.00     0.157 A 
HETATM   12  C   UNL     1      38.461 -13.164  -2.920  1.00  0.00     0.016 A 
HETATM   13  C   UNL     1      39.097 -12.301  -2.021  1.00  0.00     0.015 A 
HETATM   14  C   UNL     1      37.267 -12.756  -3.519  1.00  0.00     0.046 A 
HETATM   15  C   UNL     1      38.556 -11.038  -1.754  1.00  0.00     0.001 A 
HETATM   16  C   UNL     1      37.377 -10.631  -2.373  1.00  0.00     0.001 A 
HETATM   17  C   UNL     1      36.726 -11.492  -3.253  1.00  0.00     0.018 A 
HETATM   18  C   UNL     1      36.562 -13.676  -4.427  1.00  0.00     0.272 A 
HETATM   19  O   UNL     1      35.512 -13.359  -4.975  1.00  0.00    -0.266 OA
HETATM   20  N   UNL     1      37.143 -14.908  -4.611  1.00  0.00    -0.242 N 
HETATM   21  N   UNL     1      38.324 -15.322  -4.078  1.00  0.00    -0.166 NA
HETATM   22  H   UNL     1      36.670 -15.553  -5.238  1.00  0.00     0.192 HD
ENDBRANCH   8  11
ENDBRANCH   1   7
BRANCH   3  23
HETATM   23  C   UNL     1      43.556 -16.584   1.888  1.00  0.00     0.139 C 
BRANCH  23  24
HETATM   24  C   UNL     1      42.770 -17.246   3.044  1.00  0.00     0.079 C 
BRANCH  24  25
HETATM   25  C   UNL     1      43.566 -18.354   3.701  1.00  0.00    -0.020 A 
HETATM   26  C   UNL     1      43.779 -19.675   3.179  1.00  0.00    -0.001 A 
HETATM   27  C   UNL     1      44.569 -20.369   4.096  1.00  0.00     0.042 A 
HETATM   28  C   UNL     1      43.372 -20.349   2.007  1.00  0.00     0.014 A 
HETATM   29  C   UNL     1      44.975 -21.695   3.903  1.00  0.00     0.030 A 
HETATM   30  N   UNL     1      44.825 -19.512   5.140  1.00  0.00    -0.365 N 
HETATM   31  C   UNL     1      44.560 -22.335   2.732  1.00  0.00     0.002 A 
HETATM   32  C   UNL     1      43.770 -21.674   1.796  1.00  0.00     0.001 A 
HETATM   33  H   UNL     1      45.373 -19.751   5.954  1.00  0.00     0.165 HD
HETATM   34  C   UNL     1      44.234 -18.300   4.913  1.00  0.00     0.097 A 
ENDBRANCH  24  25
BRANCH  24  35
HETATM   35  C   UNL     1      42.306 -16.223   4.072  1.00  0.00    -0.007 A 
HETATM   36  S   UNL     1      43.123 -14.717   4.202  1.00  0.00    -0.106 SA
HETATM   37  C   UNL     1      42.099 -14.191   5.463  1.00  0.00     0.050 A 
HETATM   38  C   UNL     1      41.154 -15.136   5.790  1.00  0.00     0.008 A 
HETATM   39  C   UNL     1      41.271 -16.306   4.987  1.00  0.00     0.016 A 
ENDBRANCH  24  35
ENDBRANCH  23  24
ENDBRANCH   3  23
TORSDOF 6
ENDMDL
MODEL 2
REMARK VINA RESULT:      -9.8      3.133      9.432
REMARK  6 active torsions:
REMARK  status: ('A' for Active; 'I' for Inactive)
REMARK    1  A    between atoms: C_9  and  C_10 
REMARK       I    between atoms: C_10  and  N_11 
REMARK    2  A    between atoms: N_11  and  N_12 
REMARK       I    between atoms: N_12  and  C_13 
REMARK       I    between atoms: C_13  and  N_14 
REMARK    3  A    between atoms: N_14  and  C_15 
REMARK    4  A    between atoms: C_15  and  C_16 
REMARK    5  A    between atoms: C_16  and  C_17 
REMARK    6  A    between atoms: C_16  and  C_27 
ROOT
HETATM    1  N   UNL     1      39.347 -16.405   1.726  1.00  0.00    -0.249 N 
HETATM    2  C   UNL     1      39.220 -15.056   1.970  1.00  0.00     0.334 C 
HETATM    3  N   UNL     1      38.294 -14.470   1.142  1.00  0.00    -0.341 N 
HETATM    4  O   UNL     1      39.879 -14.457   2.811  1.00  0.00    -0.246 OA
HETATM    5  H   UNL     1      38.599 -16.926   1.281  1.00  0.00     0.192 HD
HETATM    6  H   UNL     1      38.199 -14.928   0.244  1.00  0.00     0.164 HD
ENDROOT
BRANCH   1   7
HETATM    7  N   UNL     1      40.244 -17.140   2.514  1.00  0.00    -0.261 N 
HETATM    8  C   UNL     1      41.515 -17.349   2.013  1.00  0.00     0.291 C 
HETATM    9  O   UNL     1      41.841 -17.179   0.847  1.00  0.00    -0.264 OA
HETATM   10  H   UNL     1      40.141 -17.036   3.529  1.00  0.00     0.190 HD
BRANCH   8  11
HETATM   11  C   UNL     1      42.521 -17.780   3.085  1.00  0.00     0.157 A 
HETATM   12  C   UNL     1      43.255 -19.063   2.990  1.00  0.00     0.016 A 
HETATM   13  C   UNL     1      43.052 -20.014   1.985  1.00  0.00     0.015 A 
HETATM   14  C   UNL     1      44.203 -19.321   3.983  1.00  0.00     0.046 A 
HETATM   15  C   UNL     1      43.811 -21.190   1.962  1.00  0.00     0.001 A 
HETATM   16  C   UNL     1      44.770 -21.429   2.944  1.00  0.00     0.001 A 
HETATM   17  C   UNL     1      44.964 -20.497   3.961  1.00  0.00     0.018 A 
HETATM   18  C   UNL     1      44.390 -18.351   5.075  1.00  0.00     0.272 A 
HETATM   19  O   UNL     1      45.211 -18.537   5.966  1.00  0.00    -0.266 OA
HETATM   20  N   UNL     1      43.584 -17.239   5.040  1.00  0.00    -0.242 N 
HETATM   21  N   UNL     1      42.682 -16.936   4.068  1.00  0.00    -0.166 NA
HETATM   22  H   UNL     1      43.703 -16.558   5.785  1.00  0.00     0.192 HD
ENDBRANCH   8  11
ENDBRANCH   1   7
BRANCH   3  23
HETATM   23  C   UNL     1      38.156 -13.018   1.137  1.00  0.00     0.139 C 
BRANCH  23  24
HETATM   24  C   UNL     1      38.937 -12.325  -0.004  1.00  0.00     0.079 C 
BRANCH  24  25
HETATM   25  C   UNL     1      39.746 -13.316  -0.812  1.00  0.00    -0.020 A 
HETATM   26  C   UNL     1      39.261 -14.141  -1.884  1.00  0.00    -0.001 A 
HETATM   27  C   UNL     1      40.336 -14.899  -2.351  1.00  0.00     0.042 A 
HETATM   28  C   UNL     1      38.005 -14.314  -2.503  1.00  0.00     0.014 A 
HETATM   29  C   UNL     1      40.220 -15.815  -3.404  1.00  0.00     0.030 A 
HETATM   30  N   UNL     1      41.431 -14.560  -1.595  1.00  0.00    -0.365 N 
HETATM   31  C   UNL     1      38.966 -15.963  -4.000  1.00  0.00     0.002 A 
HETATM   32  C   UNL     1      37.872 -15.224  -3.558  1.00  0.00     0.001 A 
HETATM   33  H   UNL     1      42.352 -14.959  -1.710  1.00  0.00     0.165 HD
HETATM   34  C   UNL     1      41.093 -13.608  -0.672  1.00  0.00     0.097 A 
ENDBRANCH  24  25
BRANCH  24  35
HETATM   35  C   UNL     1      38.018 -11.508  -0.903  1.00  0.00    -0.007 A 
HETATM   36  S   UNL     1      38.694 -10.487  -2.108  1.00  0.00    -0.106 SA
HETATM   37  C   UNL     1      37.153  -9.966  -2.629  1.00  0.00     0.050 A 
HETATM   38  C   UNL     1      36.138 -10.547  -1.904  1.00  0.00     0.008 A 
HETATM   39  C   UNL     1      36.636 -11.438  -0.912  1.00  0.00     0.016 A 
ENDBRANCH  24  35
ENDBRANCH  23  24
ENDBRANCH   3  23
TORSDOF 6
ENDMDL
MODEL 3
REMARK VINA RESULT:      -9.6      5.874      9.679
REMARK  6 active torsions:
REMARK  status: ('A' for Active; 'I' for Inactive)
REMARK    1  A    between atoms: C_9  and  C_10 
REMARK       I    between atoms: C_10  and  N_11 
REMARK    2  A    between atoms: N_11  and  N_12 
REMARK       I    between atoms: N_12  and  C_13 
REMARK       I    between atoms: C_13  and  N_14 
REMARK    3  A    between atoms: N_14  and  C_15 
REMARK    4  A    between atoms: C_15  and  C_16 
REMARK    5  A    between atoms: C_16  and  C_17 
REMARK    6  A    between atoms: C_16  and  C_27 
ROOT
HETATM    1  N   UNL     1      41.409 -12.309   5.829  1.00  0.00    -0.249 N 
HETATM    2  C   UNL     1      42.564 -12.924   5.405  1.00  0.00     0.334 C 
HETATM    3  N   UNL     1      42.579 -13.103   4.043  1.00  0.00    -0.341 N 
HETATM    4  O   UNL     1      43.454 -13.287   6.164  1.00  0.00    -0.246 OA
HETATM    5  H   UNL     1      40.856 -11.743   5.194  1.00  0.00     0.192 HD
HETATM    6  H   UNL     1      41.660 -13.207   3.633  1.00  0.00     0.164 HD
ENDROOT
BRANCH   1   7
HETATM    7  N   UNL     1      41.264 -12.042   7.198  1.00  0.00    -0.261 N 
HETATM    8  C   UNL     1      41.413 -10.732   7.614  1.00  0.00     0.291 C 
HETATM    9  O   UNL     1      41.914  -9.841   6.945  1.00  0.00    -0.264 OA
HETATM   10  H   UNL     1      40.593 -12.631   7.703  1.00  0.00     0.190 HD
BRANCH   8  11
HETATM   11  C   UNL     1      40.838 -10.476   9.011  1.00  0.00     0.157 A 
HETATM   12  C   UNL     1      41.715 -10.313  10.194  1.00  0.00     0.016 A 
HETATM   13  C   UNL     1      43.107 -10.450  10.167  1.00  0.00     0.015 A 
HETATM   14  C   UNL     1      41.089 -10.008  11.405  1.00  0.00     0.046 A 
HETATM   15  C   UNL     1      43.858 -10.254  11.333  1.00  0.00     0.001 A 
HETATM   16  C   UNL     1      43.226  -9.929  12.531  1.00  0.00     0.001 A 
HETATM   17  C   UNL     1      41.840  -9.811  12.571  1.00  0.00     0.018 A 
HETATM   18  C   UNL     1      39.621  -9.911  11.456  1.00  0.00     0.272 A 
HETATM   19  O   UNL     1      39.031  -9.646  12.497  1.00  0.00    -0.266 OA
HETATM   20  N   UNL     1      38.958 -10.149  10.276  1.00  0.00    -0.242 N 
HETATM   21  N   UNL     1      39.536 -10.406   9.072  1.00  0.00    -0.166 NA
HETATM   22  H   UNL     1      37.944 -10.082  10.294  1.00  0.00     0.192 HD
ENDBRANCH   8  11
ENDBRANCH   1   7
BRANCH   3  23
HETATM   23  C   UNL     1      43.644 -13.896   3.437  1.00  0.00     0.139 C 
BRANCH  23  24
HETATM   24  C   UNL     1      43.139 -15.180   2.738  1.00  0.00     0.079 C 
BRANCH  24  25
HETATM   25  C   UNL     1      43.379 -16.410   3.585  1.00  0.00    -0.020 A 
HETATM   26  C   UNL     1      43.627 -17.741   3.103  1.00  0.00    -0.001 A 
HETATM   27  C   UNL     1      43.798 -18.567   4.215  1.00  0.00     0.042 A 
HETATM   28  C   UNL     1      43.722 -18.324   1.821  1.00  0.00     0.014 A 
HETATM   29  C   UNL     1      44.062 -19.938   4.113  1.00  0.00     0.030 A 
HETATM   30  N   UNL     1      43.655 -17.778   5.332  1.00  0.00    -0.365 N 
HETATM   31  C   UNL     1      44.154 -20.486   2.831  1.00  0.00     0.002 A 
HETATM   32  C   UNL     1      43.987 -19.693   1.699  1.00  0.00     0.001 A 
HETATM   33  H   UNL     1      43.725 -18.114   6.282  1.00  0.00     0.165 HD
HETATM   34  C   UNL     1      43.410 -16.483   4.968  1.00  0.00     0.097 A 
ENDBRANCH  24  25
BRANCH  24  35
HETATM   35  C   UNL     1      41.674 -15.067   2.339  1.00  0.00    -0.007 A 
HETATM   36  S   UNL     1      41.247 -14.272   0.876  1.00  0.00    -0.106 SA
HETATM   37  C   UNL     1      39.581 -14.540   1.135  1.00  0.00     0.050 A 
HETATM   38  C   UNL     1      39.342 -15.215   2.310  1.00  0.00     0.008 A 
HETATM   39  C   UNL     1      40.547 -15.521   3.003  1.00  0.00     0.016 A 
ENDBRANCH  24  35
ENDBRANCH  23  24
ENDBRANCH   3  23
TORSDOF 6
ENDMDL
MODEL 4
REMARK VINA RESULT:      -9.6      3.389      9.705
REMARK  6 active torsions:
REMARK  status: ('A' for Active; 'I' for Inactive)
REMARK    1  A    between atoms: C_9  and  C_10 
REMARK       I    between atoms: C_10  and  N_11 
REMARK    2  A    between atoms: N_11  and  N_12 
REMARK       I    between atoms: N_12  and  C_13 
REMARK       I    between atoms: C_13  and  N_14 
REMARK    3  A    between atoms: N_14  and  C_15 
REMARK    4  A    between atoms: C_15  and  C_16 
REMARK    5  A    between atoms: C_16  and  C_17 
REMARK    6  A    between atoms: C_16  and  C_27 
ROOT
HETATM    1  N   UNL     1      39.385 -16.359   1.670  1.00  0.00    -0.249 N 
HETATM    2  C   UNL     1      39.362 -14.989   1.788  1.00  0.00     0.334 C 
HETATM    3  N   UNL     1      38.447 -14.416   0.938  1.00  0.00    -0.341 N 
HETATM    4  O   UNL     1      40.093 -14.364   2.546  1.00  0.00    -0.246 OA
HETATM    5  H   UNL     1      38.585 -16.864   1.301  1.00  0.00     0.192 HD
HETATM    6  H   UNL     1      38.285 -14.947   0.092  1.00  0.00     0.164 HD
ENDROOT
BRANCH   1   7
HETATM    7  N   UNL     1      40.258 -17.082   2.495  1.00  0.00    -0.261 N 
HETATM    8  C   UNL     1      41.506 -17.394   1.990  1.00  0.00     0.291 C 
HETATM    9  O   UNL     1      41.817 -17.327   0.809  1.00  0.00    -0.264 OA
HETATM   10  H   UNL     1      40.181 -16.899   3.501  1.00  0.00     0.190 HD
BRANCH   8  11
HETATM   11  C   UNL     1      42.510 -17.798   3.074  1.00  0.00     0.157 A 
HETATM   12  C   UNL     1      43.263 -19.072   2.999  1.00  0.00     0.016 A 
HETATM   13  C   UNL     1      43.080 -20.038   2.004  1.00  0.00     0.015 A 
HETATM   14  C   UNL     1      44.207 -19.305   4.002  1.00  0.00     0.046 A 
HETATM   15  C   UNL     1      43.856 -21.203   2.000  1.00  0.00     0.001 A 
HETATM   16  C   UNL     1      44.811 -21.417   2.992  1.00  0.00     0.001 A 
HETATM   17  C   UNL     1      44.984 -20.471   3.999  1.00  0.00     0.018 A 
HETATM   18  C   UNL     1      44.372 -18.320   5.084  1.00  0.00     0.272 A 
HETATM   19  O   UNL     1      45.189 -18.484   5.983  1.00  0.00    -0.266 OA
HETATM   20  N   UNL     1      43.551 -17.220   5.030  1.00  0.00    -0.242 N 
HETATM   21  N   UNL     1      42.652 -16.940   4.048  1.00  0.00    -0.166 NA
HETATM   22  H   UNL     1      43.656 -16.528   5.767  1.00  0.00     0.192 HD
ENDBRANCH   8  11
ENDBRANCH   1   7
BRANCH   3  23
HETATM   23  C   UNL     1      38.410 -12.964   0.799  1.00  0.00     0.139 C 
BRANCH  23  24
HETATM   24  C   UNL     1      39.171 -12.441  -0.442  1.00  0.00     0.079 C 
BRANCH  24  25
HETATM   25  C   UNL     1      40.449 -11.729  -0.058  1.00  0.00    -0.020 A 
HETATM   26  C   UNL     1      41.317 -10.999  -0.941  1.00  0.00    -0.001 A 
HETATM   27  C   UNL     1      42.373 -10.501  -0.176  1.00  0.00     0.042 A 
HETATM   28  C   UNL     1      41.304 -10.715  -2.323  1.00  0.00     0.014 A 
HETATM   29  C   UNL     1      43.411  -9.733  -0.720  1.00  0.00     0.030 A 
HETATM   30  N   UNL     1      42.167 -10.913   1.118  1.00  0.00    -0.365 N 
HETATM   31  C   UNL     1      43.369  -9.464  -2.090  1.00  0.00     0.002 A 
HETATM   32  C   UNL     1      42.331  -9.947  -2.883  1.00  0.00     0.001 A 
HETATM   33  H   UNL     1      42.781 -10.700   1.891  1.00  0.00     0.165 HD
HETATM   34  C   UNL     1      41.014 -11.644   1.204  1.00  0.00     0.097 A 
ENDBRANCH  24  25
BRANCH  24  35
HETATM   35  C   UNL     1      39.444 -13.552  -1.447  1.00  0.00    -0.007 A 
HETATM   36  S   UNL     1      38.270 -13.923  -2.646  1.00  0.00    -0.106 SA
HETATM   37  C   UNL     1      39.238 -15.165  -3.308  1.00  0.00     0.050 A 
HETATM   38  C   UNL     1      40.429 -15.307  -2.635  1.00  0.00     0.008 A 
HETATM   39  C   UNL     1      40.550 -14.376  -1.565  1.00  0.00     0.016 A 
ENDBRANCH  24  35
ENDBRANCH  23  24
ENDBRANCH   3  23
TORSDOF 6
ENDMDL
MODEL 5
REMARK VINA RESULT:      -9.4      3.140     10.342
REMARK  6 active torsions:
REMARK  status: ('A' for Active; 'I' for Inactive)
REMARK    1  A    between atoms: C_9  and  C_10 
REMARK       I    between atoms: C_10  and  N_11 
REMARK    2  A    between atoms: N_11  and  N_12 
REMARK       I    between atoms: N_12  and  C_13 
REMARK       I    between atoms: C_13  and  N_14 
REMARK    3  A    between atoms: N_14  and  C_15 
REMARK    4  A    between atoms: C_15  and  C_16 
REMARK    5  A    between atoms: C_16  and  C_17 
REMARK    6  A    between atoms: C_16  and  C_27 
ROOT
HETATM    1  N   UNL     1      40.361 -16.586   0.856  1.00  0.00    -0.249 N 
HETATM    2  C   UNL     1      40.393 -15.214   0.951  1.00  0.00     0.334 C 
HETATM    3  N   UNL     1      39.667 -14.614  -0.048  1.00  0.00    -0.341 N 
HETATM    4  O   UNL     1      41.020 -14.612   1.815  1.00  0.00    -0.246 OA
HETATM    5  H   UNL     1      39.609 -17.057   0.363  1.00  0.00     0.192 HD
HETATM    6  H   UNL     1      39.621 -15.153  -0.903  1.00  0.00     0.164 HD
ENDROOT
BRANCH   1   7
HETATM    7  N   UNL     1      41.043 -17.336   1.825  1.00  0.00    -0.261 N 
HETATM    8  C   UNL     1      42.392 -17.566   1.626  1.00  0.00     0.291 C 
HETATM    9  O   UNL     1      42.977 -17.403   0.565  1.00  0.00    -0.264 OA
HETATM   10  H   UNL     1      40.714 -17.229   2.790  1.00  0.00     0.190 HD
BRANCH   8  11
HETATM   11  C   UNL     1      43.120 -18.011   2.898  1.00  0.00     0.157 A 
HETATM   12  C   UNL     1      43.658 -19.384   3.044  1.00  0.00     0.016 A 
HETATM   13  C   UNL     1      43.491 -20.400   2.097  1.00  0.00     0.015 A 
HETATM   14  C   UNL     1      44.370 -19.660   4.213  1.00  0.00     0.046 A 
HETATM   15  C   UNL     1      44.058 -21.663   2.310  1.00  0.00     0.001 A 
HETATM   16  C   UNL     1      44.784 -21.922   3.470  1.00  0.00     0.001 A 
HETATM   17  C   UNL     1      44.937 -20.923   4.427  1.00  0.00     0.018 A 
HETATM   18  C   UNL     1      44.508 -18.614   5.240  1.00  0.00     0.272 A 
HETATM   19  O   UNL     1      45.125 -18.813   6.281  1.00  0.00    -0.266 OA
HETATM   20  N   UNL     1      43.897 -17.414   4.967  1.00  0.00    -0.242 N 
HETATM   21  N   UNL     1      43.233 -17.097   3.823  1.00  0.00    -0.166 NA
HETATM   22  H   UNL     1      43.987 -16.680   5.664  1.00  0.00     0.192 HD
ENDBRANCH   8  11
ENDBRANCH   1   7
BRANCH   3  23
HETATM   23  C   UNL     1      39.733 -13.165  -0.209  1.00  0.00     0.139 C 
BRANCH  23  24
HETATM   24  C   UNL     1      39.512 -12.693  -1.665  1.00  0.00     0.079 C 
BRANCH  24  25
HETATM   25  C   UNL     1      40.755 -12.047  -2.239  1.00  0.00    -0.020 A 
HETATM   26  C   UNL     1      40.847 -11.333  -3.483  1.00  0.00    -0.001 A 
HETATM   27  C   UNL     1      42.167 -10.902  -3.624  1.00  0.00     0.042 A 
HETATM   28  C   UNL     1      39.929 -11.011  -4.505  1.00  0.00     0.014 A 
HETATM   29  C   UNL     1      42.614 -10.166  -4.728  1.00  0.00     0.030 A 
HETATM   30  N   UNL     1      42.857 -11.338  -2.518  1.00  0.00    -0.365 N 
HETATM   31  C   UNL     1      41.682  -9.860  -5.723  1.00  0.00     0.002 A 
HETATM   32  C   UNL     1      40.358 -10.275  -5.615  1.00  0.00     0.001 A 
HETATM   33  H   UNL     1      43.840 -11.173  -2.355  1.00  0.00     0.165 HD
HETATM   34  C   UNL     1      42.021 -12.021  -1.678  1.00  0.00     0.097 A 
ENDBRANCH  24  25
BRANCH  24  35
HETATM   35  C   UNL     1      39.020 -13.824  -2.557  1.00  0.00    -0.007 A 
HETATM   36  S   UNL     1      40.157 -14.828  -3.365  1.00  0.00    -0.106 SA
HETATM   37  C   UNL     1      38.924 -15.755  -4.097  1.00  0.00     0.050 A 
HETATM   38  C   UNL     1      37.668 -15.315  -3.745  1.00  0.00     0.008 A 
HETATM   39  C   UNL     1      37.723 -14.204  -2.856  1.00  0.00     0.016 A 
ENDBRANCH  24  35
ENDBRANCH  23  24
ENDBRANCH   3  23
TORSDOF 6
ENDMDL
MODEL 6
REMARK VINA RESULT:      -9.4      2.834     10.328
REMARK  6 active torsions:
REMARK  status: ('A' for Active; 'I' for Inactive)
REMARK    1  A    between atoms: C_9  and  C_10 
REMARK       I    between atoms: C_10  and  N_11 
REMARK    2  A    between atoms: N_11  and  N_12 
REMARK       I    between atoms: N_12  and  C_13 
REMARK       I    between atoms: C_13  and  N_14 
REMARK    3  A    between atoms: N_14  and  C_15 
REMARK    4  A    between atoms: C_15  and  C_16 
REMARK    5  A    between atoms: C_16  and  C_17 
REMARK    6  A    between atoms: C_16  and  C_27 
ROOT
HETATM    1  N   UNL     1      41.183 -16.902   0.309  1.00  0.00    -0.249 N 
HETATM    2  C   UNL     1      40.881 -15.581   0.543  1.00  0.00     0.334 C 
HETATM    3  N   UNL     1      40.384 -14.962  -0.578  1.00  0.00    -0.341 N 
HETATM    4  O   UNL     1      41.062 -15.028   1.621  1.00  0.00    -0.246 OA
HETATM    5  H   UNL     1      40.742 -17.411  -0.451  1.00  0.00     0.192 HD
HETATM    6  H   UNL     1      40.723 -15.353  -1.447  1.00  0.00     0.164 HD
ENDROOT
BRANCH   1   7
HETATM    7  N   UNL     1      41.681 -17.668   1.372  1.00  0.00    -0.261 N 
HETATM    8  C   UNL     1      43.052 -17.812   1.472  1.00  0.00     0.291 C 
HETATM    9  O   UNL     1      43.846 -17.556   0.578  1.00  0.00    -0.264 OA
HETATM   10  H   UNL     1      41.139 -17.636   2.242  1.00  0.00     0.190 HD
BRANCH   8  11
HETATM   11  C   UNL     1      43.507 -18.291   2.854  1.00  0.00     0.157 A 
HETATM   12  C   UNL     1      43.904 -19.698   3.097  1.00  0.00     0.016 A 
HETATM   13  C   UNL     1      43.829 -20.714   2.138  1.00  0.00     0.015 A 
HETATM   14  C   UNL     1      44.374 -20.008   4.375  1.00  0.00     0.046 A 
HETATM   15  C   UNL     1      44.249 -22.012   2.452  1.00  0.00     0.001 A 
HETATM   16  C   UNL     1      44.737 -22.307   3.722  1.00  0.00     0.001 A 
HETATM   17  C   UNL     1      44.796 -21.306   4.689  1.00  0.00     0.018 A 
HETATM   18  C   UNL     1      44.410 -18.958   5.407  1.00  0.00     0.272 A 
HETATM   19  O   UNL     1      44.816 -19.186   6.541  1.00  0.00    -0.266 OA
HETATM   20  N   UNL     1      43.951 -17.720   5.026  1.00  0.00    -0.242 N 
HETATM   21  N   UNL     1      43.526 -17.373   3.782  1.00  0.00    -0.166 NA
HETATM   22  H   UNL     1      43.973 -16.984   5.727  1.00  0.00     0.192 HD
ENDBRANCH   8  11
ENDBRANCH   1   7
BRANCH   3  23
HETATM   23  C   UNL     1      40.175 -13.518  -0.565  1.00  0.00     0.139 C 
BRANCH  23  24
HETATM   24  C   UNL     1      40.556 -12.825  -1.894  1.00  0.00     0.079 C 
BRANCH  24  25
HETATM   25  C   UNL     1      39.341 -12.271  -2.607  1.00  0.00    -0.020 A 
HETATM   26  C   UNL     1      38.323 -13.034  -3.274  1.00  0.00    -0.001 A 
HETATM   27  C   UNL     1      37.390 -12.133  -3.787  1.00  0.00     0.042 A 
HETATM   28  C   UNL     1      38.105 -14.412  -3.489  1.00  0.00     0.014 A 
HETATM   29  C   UNL     1      36.253 -12.536  -4.500  1.00  0.00     0.030 A 
HETATM   30  N   UNL     1      37.820 -10.870  -3.457  1.00  0.00    -0.365 N 
HETATM   31  C   UNL     1      36.063 -13.906  -4.695  1.00  0.00     0.002 A 
HETATM   32  C   UNL     1      36.974 -14.833  -4.198  1.00  0.00     0.001 A 
HETATM   33  H   UNL     1      37.339 -10.018  -3.706  1.00  0.00     0.165 HD
HETATM   34  C   UNL     1      38.985 -10.940  -2.744  1.00  0.00     0.097 A 
ENDBRANCH  24  25
BRANCH  24  35
HETATM   35  C   UNL     1      41.609 -11.745  -1.687  1.00  0.00    -0.007 A 
HETATM   36  S   UNL     1      41.927 -11.157  -0.104  1.00  0.00    -0.106 SA
HETATM   37  C   UNL     1      43.114 -10.068  -0.671  1.00  0.00     0.050 A 
HETATM   38  C   UNL     1      43.270 -10.138  -2.037  1.00  0.00     0.008 A 
HETATM   39  C   UNL     1      42.405 -11.106  -2.622  1.00  0.00     0.016 A 
ENDBRANCH  24  35
ENDBRANCH  23  24
ENDBRANCH   3  23
TORSDOF 6
ENDMDL
MODEL 7
REMARK VINA RESULT:      -9.4      1.526      2.145
REMARK  6 active torsions:
REMARK  status: ('A' for Active; 'I' for Inactive)
REMARK    1  A    between atoms: C_9  and  C_10 
REMARK       I    between atoms: C_10  and  N_11 
REMARK    2  A    between atoms: N_11  and  N_12 
REMARK       I    between atoms: N_12  and  C_13 
REMARK       I    between atoms: C_13  and  N_14 
REMARK    3  A    between atoms: N_14  and  C_15 
REMARK    4  A    between atoms: C_15  and  C_16 
REMARK    5  A    between atoms: C_16  and  C_17 
REMARK    6  A    between atoms: C_16  and  C_27 
ROOT
HETATM    1  N   UNL     1      40.937 -15.592  -0.513  1.00  0.00    -0.249 N 
HETATM    2  C   UNL     1      41.891 -15.467   0.470  1.00  0.00     0.334 C 
HETATM    3  N   UNL     1      42.609 -16.626   0.638  1.00  0.00    -0.341 N 
HETATM    4  O   UNL     1      42.053 -14.446   1.128  1.00  0.00    -0.246 OA
HETATM    5  H   UNL     1      41.027 -16.294  -1.241  1.00  0.00     0.192 HD
HETATM    6  H   UNL     1      42.093 -17.465   0.408  1.00  0.00     0.164 HD
ENDROOT
BRANCH   1   7
HETATM    7  N   UNL     1      40.139 -14.478  -0.810  1.00  0.00    -0.261 N 
HETATM    8  C   UNL     1      40.523 -13.680  -1.873  1.00  0.00     0.291 C 
HETATM    9  O   UNL     1      41.623 -13.708  -2.403  1.00  0.00    -0.264 OA
HETATM   10  H   UNL     1      39.136 -14.581  -0.627  1.00  0.00     0.190 HD
BRANCH   8  11
HETATM   11  C   UNL     1      39.401 -12.764  -2.372  1.00  0.00     0.157 A 
HETATM   12  C   UNL     1      38.266 -13.288  -3.167  1.00  0.00     0.016 A 
HETATM   13  C   UNL     1      38.151 -14.615  -3.595  1.00  0.00     0.015 A 
HETATM   14  C   UNL     1      37.261 -12.380  -3.505  1.00  0.00     0.046 A 
HETATM   15  C   UNL     1      37.029 -15.027  -4.324  1.00  0.00     0.001 A 
HETATM   16  C   UNL     1      36.021 -14.118  -4.638  1.00  0.00     0.001 A 
HETATM   17  C   UNL     1      36.137 -12.790  -4.234  1.00  0.00     0.018 A 
HETATM   18  C   UNL     1      37.396 -10.969  -3.104  1.00  0.00     0.272 A 
HETATM   19  O   UNL     1      36.537 -10.139  -3.380  1.00  0.00    -0.266 OA
HETATM   20  N   UNL     1      38.541 -10.643  -2.419  1.00  0.00    -0.242 N 
HETATM   21  N   UNL     1      39.518 -11.508  -2.037  1.00  0.00    -0.166 NA
HETATM   22  H   UNL     1      38.647  -9.673  -2.132  1.00  0.00     0.192 HD
ENDBRANCH   8  11
ENDBRANCH   1   7
BRANCH   3  23
HETATM   23  C   UNL     1      43.542 -16.734   1.755  1.00  0.00     0.139 C 
BRANCH  23  24
HETATM   24  C   UNL     1      42.870 -17.149   3.085  1.00  0.00     0.079 C 
BRANCH  24  25
HETATM   25  C   UNL     1      43.610 -18.287   3.755  1.00  0.00    -0.020 A 
HETATM   26  C   UNL     1      43.795 -19.611   3.228  1.00  0.00    -0.001 A 
HETATM   27  C   UNL     1      44.534 -20.336   4.163  1.00  0.00     0.042 A 
HETATM   28  C   UNL     1      43.401 -20.263   2.040  1.00  0.00     0.014 A 
HETATM   29  C   UNL     1      44.902 -21.674   3.971  1.00  0.00     0.030 A 
HETATM   30  N   UNL     1      44.787 -19.497   5.221  1.00  0.00    -0.365 N 
HETATM   31  C   UNL     1      44.502 -22.292   2.784  1.00  0.00     0.002 A 
HETATM   32  C   UNL     1      43.762 -21.599   1.830  1.00  0.00     0.001 A 
HETATM   33  H   UNL     1      45.303 -19.759   6.049  1.00  0.00     0.165 HD
HETATM   34  C   UNL     1      44.243 -18.264   4.986  1.00  0.00     0.097 A 
ENDBRANCH  24  25
BRANCH  24  35
HETATM   35  C   UNL     1      42.711 -15.967   4.031  1.00  0.00    -0.007 A 
HETATM   36  S   UNL     1      41.341 -15.883   5.065  1.00  0.00    -0.106 SA
HETATM   37  C   UNL     1      41.854 -14.399   5.737  1.00  0.00     0.050 A 
HETATM   38  C   UNL     1      43.039 -13.964   5.189  1.00  0.00     0.008 A 
HETATM   39  C   UNL     1      43.534 -14.869   4.208  1.00  0.00     0.016 A 
ENDBRANCH  24  35
ENDBRANCH  23  24
ENDBRANCH   3  23
TORSDOF 6
ENDMDL
MODEL 8
REMARK VINA RESULT:      -9.3      3.800      9.584
REMARK  6 active torsions:
REMARK  status: ('A' for Active; 'I' for Inactive)
REMARK    1  A    between atoms: C_9  and  C_10 
REMARK       I    between atoms: C_10  and  N_11 
REMARK    2  A    between atoms: N_11  and  N_12 
REMARK       I    between atoms: N_12  and  C_13 
REMARK       I    between atoms: C_13  and  N_14 
REMARK    3  A    between atoms: N_14  and  C_15 
REMARK    4  A    between atoms: C_15  and  C_16 
REMARK    5  A    between atoms: C_16  and  C_17 
REMARK    6  A    between atoms: C_16  and  C_27 
ROOT
HETATM    1  N   UNL     1      39.788 -16.512   1.983  1.00  0.00    -0.249 N 
HETATM    2  C   UNL     1      39.463 -15.175   1.962  1.00  0.00     0.334 C 
HETATM    3  N   UNL     1      38.779 -14.831   0.822  1.00  0.00    -0.341 N 
HETATM    4  O   UNL     1      39.775 -14.391   2.850  1.00  0.00    -0.246 OA
HETATM    5  H   UNL     1      39.265 -17.185   1.431  1.00  0.00     0.192 HD
HETATM    6  H   UNL     1      39.005 -15.405   0.019  1.00  0.00     0.164 HD
ENDROOT
BRANCH   1   7
HETATM    7  N   UNL     1      40.472 -17.012   3.100  1.00  0.00    -0.261 N 
HETATM    8  C   UNL     1      41.799 -17.364   2.936  1.00  0.00     0.291 C 
HETATM    9  O   UNL     1      42.348 -17.524   1.856  1.00  0.00    -0.264 OA
HETATM   10  H   UNL     1      40.187 -16.632   4.009  1.00  0.00     0.190 HD
BRANCH   8  11
HETATM   11  C   UNL     1      42.555 -17.494   4.262  1.00  0.00     0.157 A 
HETATM   12  C   UNL     1      43.163 -16.318   4.928  1.00  0.00     0.016 A 
HETATM   13  C   UNL     1      43.175 -15.027   4.389  1.00  0.00     0.015 A 
HETATM   14  C   UNL     1      43.762 -16.538   6.170  1.00  0.00     0.046 A 
HETATM   15  C   UNL     1      43.753 -13.971   5.103  1.00  0.00     0.001 A 
HETATM   16  C   UNL     1      44.329 -14.196   6.351  1.00  0.00     0.001 A 
HETATM   17  C   UNL     1      44.340 -15.482   6.885  1.00  0.00     0.018 A 
HETATM   18  C   UNL     1      43.800 -17.902   6.724  1.00  0.00     0.272 A 
HETATM   19  O   UNL     1      44.316 -18.140   7.810  1.00  0.00    -0.266 OA
HETATM   20  N   UNL     1      43.239 -18.886   5.946  1.00  0.00    -0.242 N 
HETATM   21  N   UNL     1      42.610 -18.702   4.754  1.00  0.00    -0.166 NA
HETATM   22  H   UNL     1      43.254 -19.832   6.316  1.00  0.00     0.192 HD
ENDBRANCH   8  11
ENDBRANCH   1   7
BRANCH   3  23
HETATM   23  C   UNL     1      38.508 -13.424   0.547  1.00  0.00     0.139 C 
BRANCH  23  24
HETATM   24  C   UNL     1      39.295 -12.867  -0.662  1.00  0.00     0.079 C 
BRANCH  24  25
HETATM   25  C   UNL     1      40.495 -12.055  -0.224  1.00  0.00    -0.020 A 
HETATM   26  C   UNL     1      41.355 -11.277  -1.073  1.00  0.00    -0.001 A 
HETATM   27  C   UNL     1      42.327 -10.690  -0.263  1.00  0.00     0.042 A 
HETATM   28  C   UNL     1      41.397 -11.017  -2.459  1.00  0.00     0.014 A 
HETATM   29  C   UNL     1      43.334  -9.856  -0.765  1.00  0.00     0.030 A 
HETATM   30  N   UNL     1      42.080 -11.094   1.027  1.00  0.00    -0.365 N 
HETATM   31  C   UNL     1      43.349  -9.613  -2.141  1.00  0.00     0.002 A 
HETATM   32  C   UNL     1      42.395 -10.184  -2.979  1.00  0.00     0.001 A 
HETATM   33  H   UNL     1      42.634 -10.824   1.827  1.00  0.00     0.165 HD
HETATM   34  C   UNL     1      40.982 -11.908   1.065  1.00  0.00     0.097 A 
ENDBRANCH  24  25
BRANCH  24  35
HETATM   35  C   UNL     1      39.704 -13.970  -1.628  1.00  0.00    -0.007 A 
HETATM   36  S   UNL     1      38.671 -14.382  -2.938  1.00  0.00    -0.106 SA
HETATM   37  C   UNL     1      39.740 -15.593  -3.491  1.00  0.00     0.050 A 
HETATM   38  C   UNL     1      40.861 -15.695  -2.700  1.00  0.00     0.008 A 
HETATM   39  C   UNL     1      40.842 -14.758  -1.628  1.00  0.00     0.016 A 
ENDBRANCH  24  35
ENDBRANCH  23  24
ENDBRANCH   3  23
TORSDOF 6
ENDMDL
MODEL 9
REMARK VINA RESULT:      -9.3      1.655      4.069
REMARK  6 active torsions:
REMARK  status: ('A' for Active; 'I' for Inactive)
REMARK    1  A    between atoms: C_9  and  C_10 
REMARK       I    between atoms: C_10  and  N_11 
REMARK    2  A    between atoms: N_11  and  N_12 
REMARK       I    between atoms: N_12  and  C_13 
REMARK       I    between atoms: C_13  and  N_14 
REMARK    3  A    between atoms: N_14  and  C_15 
REMARK    4  A    between atoms: C_15  and  C_16 
REMARK    5  A    between atoms: C_16  and  C_17 
REMARK    6  A    between atoms: C_16  and  C_27 
ROOT
HETATM    1  N   UNL     1      42.010 -15.708  -0.267  1.00  0.00    -0.249 N 
HETATM    2  C   UNL     1      42.042 -16.818   0.545  1.00  0.00     0.334 C 
HETATM    3  N   UNL     1      43.302 -17.060   1.034  1.00  0.00    -0.341 N 
HETATM    4  O   UNL     1      41.060 -17.513   0.776  1.00  0.00    -0.246 OA
HETATM    5  H   UNL     1      42.719 -14.985  -0.190  1.00  0.00     0.192 HD
HETATM    6  H   UNL     1      44.046 -16.742   0.426  1.00  0.00     0.164 HD
ENDROOT
BRANCH   1   7
HETATM    7  N   UNL     1      40.780 -15.325  -0.821  1.00  0.00    -0.261 N 
HETATM    8  C   UNL     1      40.806 -14.494  -1.926  1.00  0.00     0.291 C 
HETATM    9  O   UNL     1      41.782 -13.858  -2.297  1.00  0.00    -0.264 OA
HETATM   10  H   UNL     1      40.025 -16.016  -0.760  1.00  0.00     0.190 HD
BRANCH   8  11
HETATM   11  C   UNL     1      39.480 -14.474  -2.693  1.00  0.00     0.157 A 
HETATM   12  C   UNL     1      38.594 -13.287  -2.681  1.00  0.00     0.016 A 
HETATM   13  C   UNL     1      38.834 -12.133  -1.928  1.00  0.00     0.015 A 
HETATM   14  C   UNL     1      37.447 -13.349  -3.476  1.00  0.00     0.046 A 
HETATM   15  C   UNL     1      37.950 -11.049  -1.998  1.00  0.00     0.001 A 
HETATM   16  C   UNL     1      36.821 -11.112  -2.810  1.00  0.00     0.001 A 
HETATM   17  C   UNL     1      36.563 -12.264  -3.547  1.00  0.00     0.018 A 
HETATM   18  C   UNL     1      37.158 -14.578  -4.234  1.00  0.00     0.272 A 
HETATM   19  O   UNL     1      36.163 -14.675  -4.944  1.00  0.00    -0.266 OA
HETATM   20  N   UNL     1      38.058 -15.605  -4.086  1.00  0.00    -0.242 N 
HETATM   21  N   UNL     1      39.204 -15.565  -3.355  1.00  0.00    -0.166 NA
HETATM   22  H   UNL     1      37.874 -16.459  -4.606  1.00  0.00     0.192 HD
ENDBRANCH   8  11
ENDBRANCH   1   7
BRANCH   3  23
HETATM   23  C   UNL     1      43.560 -18.295   1.768  1.00  0.00     0.139 C 
BRANCH  23  24
HETATM   24  C   UNL     1      43.841 -18.072   3.273  1.00  0.00     0.079 C 
BRANCH  24  25
HETATM   25  C   UNL     1      42.687 -17.376   3.962  1.00  0.00    -0.020 A 
HETATM   26  C   UNL     1      42.668 -16.017   4.429  1.00  0.00    -0.001 A 
HETATM   27  C   UNL     1      41.414 -15.784   4.995  1.00  0.00     0.042 A 
HETATM   28  C   UNL     1      43.603 -14.960   4.424  1.00  0.00     0.014 A 
HETATM   29  C   UNL     1      41.046 -14.552   5.551  1.00  0.00     0.030 A 
HETATM   30  N   UNL     1      40.696 -16.951   4.886  1.00  0.00    -0.365 N 
HETATM   31  C   UNL     1      41.991 -13.523   5.528  1.00  0.00     0.002 A 
HETATM   32  C   UNL     1      43.252 -13.721   4.973  1.00  0.00     0.001 A 
HETATM   33  H   UNL     1      39.751 -17.074   5.218  1.00  0.00     0.165 HD
HETATM   34  C   UNL     1      41.446 -17.911   4.263  1.00  0.00     0.097 A 
ENDBRANCH  24  25
BRANCH  24  35
HETATM   35  C   UNL     1      44.196 -19.373   3.980  1.00  0.00    -0.007 A 
HETATM   36  S   UNL     1      44.121 -19.458   5.695  1.00  0.00    -0.106 SA
HETATM   37  C   UNL     1      44.625 -21.090   5.705  1.00  0.00     0.050 A 
HETATM   38  C   UNL     1      44.853 -21.569   4.436  1.00  0.00     0.008 A 
HETATM   39  C   UNL     1      44.603 -20.581   3.441  1.00  0.00     0.016 A 
ENDBRANCH  24  35
ENDBRANCH  23  24
ENDBRANCH   3  23
TORSDOF 6
ENDMDL
MODEL 10
REMARK VINA RESULT:      -9.2      2.377     10.364
REMARK  6 active torsions:
REMARK  status: ('A' for Active; 'I' for Inactive)
REMARK    1  A    between atoms: C_9  and  C_10 
REMARK       I    between atoms: C_10  and  N_11 
REMARK    2  A    between atoms: N_11  and  N_12 
REMARK       I    between atoms: N_12  and  C_13 
REMARK       I    between atoms: C_13  and  N_14 
REMARK    3  A    between atoms: N_14  and  C_15 
REMARK    4  A    between atoms: C_15  and  C_16 
REMARK    5  A    between atoms: C_16  and  C_17 
REMARK    6  A    between atoms: C_16  and  C_27 
ROOT
HETATM    1  N   UNL     1      41.211 -16.367  -0.093  1.00  0.00    -0.249 N 
HETATM    2  C   UNL     1      41.201 -15.146  -0.726  1.00  0.00     0.334 C 
HETATM    3  N   UNL     1      40.320 -15.122  -1.780  1.00  0.00    -0.341 N 
HETATM    4  O   UNL     1      41.915 -14.207  -0.395  1.00  0.00    -0.246 OA
HETATM    5  H   UNL     1      40.418 -16.997  -0.162  1.00  0.00     0.192 HD
HETATM    6  H   UNL     1      40.178 -16.023  -2.217  1.00  0.00     0.164 HD
ENDROOT
BRANCH   1   7
HETATM    7  N   UNL     1      42.050 -16.532   1.019  1.00  0.00    -0.261 N 
HETATM    8  C   UNL     1      41.475 -16.974   2.195  1.00  0.00     0.291 C 
HETATM    9  O   UNL     1      40.274 -16.982   2.424  1.00  0.00    -0.264 OA
HETATM   10  H   UNL     1      43.012 -16.823   0.817  1.00  0.00     0.190 HD
BRANCH   8  11
HETATM   11  C   UNL     1      42.499 -17.513   3.199  1.00  0.00     0.157 A 
HETATM   12  C   UNL     1      43.171 -18.818   2.999  1.00  0.00     0.016 A 
HETATM   13  C   UNL     1      42.888 -19.696   1.948  1.00  0.00     0.015 A 
HETATM   14  C   UNL     1      44.143 -19.176   3.936  1.00  0.00     0.046 A 
HETATM   15  C   UNL     1      43.593 -20.900   1.825  1.00  0.00     0.001 A 
HETATM   16  C   UNL     1      44.575 -21.238   2.752  1.00  0.00     0.001 A 
HETATM   17  C   UNL     1      44.849 -20.380   3.814  1.00  0.00     0.018 A 
HETATM   18  C   UNL     1      44.414 -18.283   5.075  1.00  0.00     0.272 A 
HETATM   19  O   UNL     1      45.258 -18.558   5.920  1.00  0.00    -0.266 OA
HETATM   20  N   UNL     1      43.657 -17.138   5.138  1.00  0.00    -0.242 N 
HETATM   21  N   UNL     1      42.735 -16.738   4.223  1.00  0.00    -0.166 NA
HETATM   22  H   UNL     1      43.835 -16.509   5.917  1.00  0.00     0.192 HD
ENDBRANCH   8  11
ENDBRANCH   1   7
BRANCH   3  23
HETATM   23  C   UNL     1      40.305 -13.968  -2.674  1.00  0.00     0.139 C 
BRANCH  23  24
HETATM   24  C   UNL     1      39.078 -13.047  -2.474  1.00  0.00     0.079 C 
BRANCH  24  25
HETATM   25  C   UNL     1      37.928 -13.442  -3.374  1.00  0.00    -0.020 A 
HETATM   26  C   UNL     1      36.789 -12.632  -3.708  1.00  0.00    -0.001 A 
HETATM   27  C   UNL     1      35.978 -13.377  -4.565  1.00  0.00     0.042 A 
HETATM   28  C   UNL     1      36.370 -11.330  -3.360  1.00  0.00     0.014 A 
HETATM   29  C   UNL     1      34.777 -12.888  -5.093  1.00  0.00     0.030 A 
HETATM   30  N   UNL     1      36.589 -14.594  -4.745  1.00  0.00    -0.365 N 
HETATM   31  C   UNL     1      34.389 -11.595  -4.734  1.00  0.00     0.002 A 
HETATM   32  C   UNL     1      35.173 -10.824  -3.880  1.00  0.00     0.001 A 
HETATM   33  H   UNL     1      36.221 -15.340  -5.318  1.00  0.00     0.165 HD
HETATM   34  C   UNL     1      37.761 -14.644  -4.042  1.00  0.00     0.097 A 
ENDBRANCH  24  25
BRANCH  24  35
HETATM   35  C   UNL     1      38.640 -12.996  -1.017  1.00  0.00    -0.007 A 
HETATM   36  S   UNL     1      39.332 -11.831   0.041  1.00  0.00    -0.106 SA
HETATM   37  C   UNL     1      38.408 -12.383   1.366  1.00  0.00     0.050 A 
HETATM   38  C   UNL     1      37.589 -13.435   1.024  1.00  0.00     0.008 A 
HETATM   39  C   UNL     1      37.721 -13.787  -0.349  1.00  0.00     0.016 A 
ENDBRANCH  24  35
ENDBRANCH  23  24
ENDBRANCH   3  23
TORSDOF 6
ENDMDL
