MODEL 1
REMARK VINA RESULT:      -8.3      0.000      0.000
REMARK  7 active torsions:
REMARK  status: ('A' for Active; 'I' for Inactive)
REMARK    1  A    between atoms: C_2  and  C_3 
REMARK    2  A    between atoms: C_3  and  N_4 
REMARK    3  A    between atoms: C_7  and  C_8 
REMARK    4  A    between atoms: C_8  and  N_9 
REMARK       I    between atoms: N_9  and  C_10 
REMARK       I    between atoms: C_10  and  N_11 
REMARK    5  A    between atoms: N_11  and  C_12 
REMARK    6  A    between atoms: C_16  and  N_17 
REMARK       I    between atoms: N_17  and  C_18 
REMARK    7  A    between atoms: C_18  and  C_19 
ROOT
HETATM    1  C   UNL     1      40.447 -14.987   5.544  1.00  0.00     0.036 A 
HETATM    2  C   UNL     1      40.623 -15.088   4.165  1.00  0.00     0.038 A 
HETATM    3  C   UNL     1      41.167 -16.253   3.584  1.00  0.00    -0.033 A 
HETATM    4  C   UNL     1      41.308 -16.306   2.085  1.00  0.00     0.050 C 
HETATM    5  C   UNL     1      41.582 -17.314   4.415  1.00  0.00     0.041 A 
HETATM    6  C   UNL     1      41.364 -17.214   5.793  1.00  0.00     0.032 A 
HETATM    7  C   UNL     1      40.785 -16.072   6.349  1.00  0.00     0.032 A 
ENDROOT
BRANCH   1   8
HETATM    8  N   UNL     1      39.927 -13.844   6.181  1.00  0.00    -0.309 N 
HETATM    9  C   UNL     1      40.568 -12.639   6.337  1.00  0.00     0.320 C 
HETATM   10  N   UNL     1      39.770 -11.748   7.028  1.00  0.00    -0.342 N 
HETATM   11  O   UNL     1      41.723 -12.367   6.032  1.00  0.00    -0.247 OA
HETATM   12  H   UNL     1      38.791 -11.810   6.770  1.00  0.00     0.164 HD
HETATM   13  H   UNL     1      39.130 -13.995   6.781  1.00  0.00     0.170 HD
BRANCH  10  14
HETATM   14  C   UNL     1      40.259 -10.423   7.354  1.00  0.00     0.130 C 
BRANCH  14  15
HETATM   15  C   UNL     1      40.678 -10.248   8.815  1.00  0.00     0.031 C 
HETATM   16  C   UNL     1      42.114 -10.626   9.144  1.00  0.00     0.241 C 
HETATM   17  N   UNL     1      42.121 -10.714  10.673  1.00  0.00    -0.071 N 
HETATM   18  H   UNL     1      42.643 -11.572  10.899  1.00  0.00     0.279 HD
HETATM   19  C   UNL     1      40.677 -10.902  11.105  1.00  0.00     0.235 C 
HETATM   20  C   UNL     1      39.898 -11.093   9.815  1.00  0.00     0.035 C 
BRANCH  17  21
HETATM   21  C   UNL     1      42.831  -9.557  11.327  1.00  0.00     0.234 C 
BRANCH  21  22
HETATM   22  C   UNL     1      43.652  -9.999  12.537  1.00  0.00     0.023 C 
HETATM   23  C   UNL     1      43.259  -9.300  13.830  1.00  0.00     0.007 C 
ENDBRANCH  21  22
ENDBRANCH  17  21
ENDBRANCH  14  15
ENDBRANCH  10  14
ENDBRANCH   1   8
BRANCH   5  24
HETATM   24  N   UNL     1      42.200 -18.441   3.834  1.00  0.00    -0.321 N 
HETATM   25  C   UNL     1      43.530 -18.823   3.905  1.00  0.00     0.279 C 
HETATM   26  O   UNL     1      44.413 -18.213   4.499  1.00  0.00    -0.265 OA
HETATM   27  H   UNL     1      41.640 -19.021   3.219  1.00  0.00     0.169 HD
BRANCH  25  28
HETATM   28  C   UNL     1      43.805 -20.030   3.149  1.00  0.00     0.142 A 
HETATM   29  O   UNL     1      44.515 -21.048   3.735  1.00  0.00    -0.317 OA
HETATM   30  C   UNL     1      44.630 -22.038   2.812  1.00  0.00     0.143 A 
HETATM   31  C   UNL     1      43.994 -21.687   1.644  1.00  0.00     0.027 A 
HETATM   32  C   UNL     1      43.463 -20.393   1.859  1.00  0.00     0.045 A 
ENDBRANCH  25  28
ENDBRANCH   5  24
TORSDOF 7
ENDMDL
MODEL 2
REMARK VINA RESULT:      -8.2      2.326      3.082
REMARK  7 active torsions:
REMARK  status: ('A' for Active; 'I' for Inactive)
REMARK    1  A    between atoms: C_2  and  C_3 
REMARK    2  A    between atoms: C_3  and  N_4 
REMARK    3  A    between atoms: C_7  and  C_8 
REMARK    4  A    between atoms: C_8  and  N_9 
REMARK       I    between atoms: N_9  and  C_10 
REMARK       I    between atoms: C_10  and  N_11 
REMARK    5  A    between atoms: N_11  and  C_12 
REMARK    6  A    between atoms: C_16  and  N_17 
REMARK       I    between atoms: N_17  and  C_18 
REMARK    7  A    between atoms: C_18  and  C_19 
ROOT
HETATM    1  C   UNL     1      43.493 -14.631   6.378  1.00  0.00     0.036 A 
HETATM    2  C   UNL     1      44.193 -15.727   6.880  1.00  0.00     0.038 A 
HETATM    3  C   UNL     1      44.319 -16.916   6.131  1.00  0.00    -0.033 A 
HETATM    4  C   UNL     1      45.108 -18.053   6.722  1.00  0.00     0.050 C 
HETATM    5  C   UNL     1      43.689 -17.013   4.873  1.00  0.00     0.041 A 
HETATM    6  C   UNL     1      43.023 -15.893   4.365  1.00  0.00     0.032 A 
HETATM    7  C   UNL     1      42.942 -14.708   5.101  1.00  0.00     0.032 A 
ENDROOT
BRANCH   1   8
HETATM    8  N   UNL     1      43.318 -13.427   7.087  1.00  0.00    -0.309 N 
HETATM    9  C   UNL     1      44.181 -12.901   8.018  1.00  0.00     0.320 C 
HETATM   10  N   UNL     1      43.684 -11.717   8.530  1.00  0.00    -0.342 N 
HETATM   11  O   UNL     1      45.201 -13.414   8.459  1.00  0.00    -0.247 OA
HETATM   12  H   UNL     1      43.228 -11.143   7.828  1.00  0.00     0.164 HD
HETATM   13  H   UNL     1      42.382 -13.050   7.098  1.00  0.00     0.170 HD
BRANCH  10  14
HETATM   14  C   UNL     1      44.402 -11.004   9.566  1.00  0.00     0.130 C 
BRANCH  14  15
HETATM   15  C   UNL     1      43.532 -10.556  10.742  1.00  0.00     0.031 C 
HETATM   16  C   UNL     1      43.670 -11.369  12.020  1.00  0.00     0.241 C 
HETATM   17  N   UNL     1      42.451 -10.949  12.846  1.00  0.00    -0.071 N 
HETATM   18  H   UNL     1      42.063 -11.821  13.231  1.00  0.00     0.279 HD
HETATM   19  C   UNL     1      41.443 -10.364  11.870  1.00  0.00     0.235 C 
HETATM   20  C   UNL     1      42.030 -10.621  10.493  1.00  0.00     0.035 C 
BRANCH  17  21
HETATM   21  C   UNL     1      42.804 -10.052  14.004  1.00  0.00     0.234 C 
BRANCH  21  22
HETATM   22  C   UNL     1      41.670  -9.957  15.022  1.00  0.00     0.023 C 
HETATM   23  C   UNL     1      41.905  -8.912  16.104  1.00  0.00     0.007 C 
ENDBRANCH  21  22
ENDBRANCH  17  21
ENDBRANCH  14  15
ENDBRANCH  10  14
ENDBRANCH   1   8
BRANCH   5  24
HETATM   24  N   UNL     1      43.751 -18.232   4.166  1.00  0.00    -0.321 N 
HETATM   25  C   UNL     1      44.036 -18.431   2.824  1.00  0.00     0.279 C 
HETATM   26  O   UNL     1      44.280 -17.547   2.011  1.00  0.00    -0.265 OA
HETATM   27  H   UNL     1      43.484 -19.077   4.657  1.00  0.00     0.169 HD
BRANCH  25  28
HETATM   28  C   UNL     1      43.976 -19.830   2.444  1.00  0.00     0.142 A 
HETATM   29  O   UNL     1      44.957 -20.690   2.872  1.00  0.00    -0.317 OA
HETATM   30  C   UNL     1      44.658 -21.917   2.370  1.00  0.00     0.143 A 
HETATM   31  C   UNL     1      43.494 -21.871   1.639  1.00  0.00     0.027 A 
HETATM   32  C   UNL     1      43.054 -20.527   1.684  1.00  0.00     0.045 A 
ENDBRANCH  25  28
ENDBRANCH   5  24
TORSDOF 7
ENDMDL
MODEL 3
REMARK VINA RESULT:      -8.0      2.193      2.715
REMARK  7 active torsions:
REMARK  status: ('A' for Active; 'I' for Inactive)
REMARK    1  A    between atoms: C_2  and  C_3 
REMARK    2  A    between atoms: C_3  and  N_4 
REMARK    3  A    between atoms: C_7  and  C_8 
REMARK    4  A    between atoms: C_8  and  N_9 
REMARK       I    between atoms: N_9  and  C_10 
REMARK       I    between atoms: C_10  and  N_11 
REMARK    5  A    between atoms: N_11  and  C_12 
REMARK    6  A    between atoms: C_16  and  N_17 
REMARK       I    between atoms: N_17  and  C_18 
REMARK    7  A    between atoms: C_18  and  C_19 
ROOT
HETATM    1  C   UNL     1      43.156 -14.617   6.084  1.00  0.00     0.036 A 
HETATM    2  C   UNL     1      43.226 -14.649   4.692  1.00  0.00     0.038 A 
HETATM    3  C   UNL     1      43.299 -15.873   3.994  1.00  0.00    -0.033 A 
HETATM    4  C   UNL     1      43.348 -15.836   2.490  1.00  0.00     0.050 C 
HETATM    5  C   UNL     1      43.349 -17.082   4.718  1.00  0.00     0.041 A 
HETATM    6  C   UNL     1      43.239 -17.037   6.111  1.00  0.00     0.032 A 
HETATM    7  C   UNL     1      43.125 -15.820   6.786  1.00  0.00     0.032 A 
ENDROOT
BRANCH   1   8
HETATM    8  N   UNL     1      43.101 -13.427   6.834  1.00  0.00    -0.309 N 
HETATM    9  C   UNL     1      43.945 -13.073   7.858  1.00  0.00     0.320 C 
HETATM   10  N   UNL     1      43.587 -11.847   8.385  1.00  0.00    -0.342 N 
HETATM   11  O   UNL     1      44.833 -13.753   8.358  1.00  0.00    -0.247 OA
HETATM   12  H   UNL     1      43.288 -11.185   7.677  1.00  0.00     0.164 HD
HETATM   13  H   UNL     1      42.235 -12.912   6.785  1.00  0.00     0.170 HD
BRANCH  10  14
HETATM   14  C   UNL     1      44.308 -11.290   9.512  1.00  0.00     0.130 C 
BRANCH  14  15
HETATM   15  C   UNL     1      43.412 -10.785  10.645  1.00  0.00     0.031 C 
HETATM   16  C   UNL     1      42.439  -9.676  10.279  1.00  0.00     0.241 C 
HETATM   17  N   UNL     1      41.981  -9.137  11.638  1.00  0.00    -0.071 N 
HETATM   18  H   UNL     1      42.004  -8.112  11.552  1.00  0.00     0.279 HD
HETATM   19  C   UNL     1      43.034  -9.557  12.650  1.00  0.00     0.235 C 
HETATM   20  C   UNL     1      44.153 -10.172  11.826  1.00  0.00     0.035 C 
BRANCH  17  21
HETATM   21  C   UNL     1      40.572  -9.539  11.987  1.00  0.00     0.234 C 
BRANCH  21  22
HETATM   22  C   UNL     1      40.528 -10.502  13.172  1.00  0.00     0.023 C 
HETATM   23  C   UNL     1      40.192 -11.935  12.782  1.00  0.00     0.007 C 
ENDBRANCH  21  22
ENDBRANCH  17  21
ENDBRANCH  14  15
ENDBRANCH  10  14
ENDBRANCH   1   8
BRANCH   5  24
HETATM   24  N   UNL     1      43.503 -18.296   4.017  1.00  0.00    -0.321 N 
HETATM   25  C   UNL     1      44.373 -19.340   4.291  1.00  0.00     0.279 C 
HETATM   26  O   UNL     1      45.180 -19.369   5.214  1.00  0.00    -0.265 OA
HETATM   27  H   UNL     1      42.980 -18.415   3.157  1.00  0.00     0.169 HD
BRANCH  25  28
HETATM   28  C   UNL     1      44.271 -20.418   3.325  1.00  0.00     0.142 A 
HETATM   29  O   UNL     1      44.800 -21.649   3.628  1.00  0.00    -0.317 OA
HETATM   30  C   UNL     1      44.572 -22.454   2.558  1.00  0.00     0.143 A 
HETATM   31  C   UNL     1      43.891 -21.774   1.576  1.00  0.00     0.027 A 
HETATM   32  C   UNL     1      43.698 -20.462   2.068  1.00  0.00     0.045 A 
ENDBRANCH  25  28
ENDBRANCH   5  24
TORSDOF 7
ENDMDL
MODEL 4
REMARK VINA RESULT:      -7.9      0.623      1.408
REMARK  7 active torsions:
REMARK  status: ('A' for Active; 'I' for Inactive)
REMARK    1  A    between atoms: C_2  and  C_3 
REMARK    2  A    between atoms: C_3  and  N_4 
REMARK    3  A    between atoms: C_7  and  C_8 
REMARK    4  A    between atoms: C_8  and  N_9 
REMARK       I    between atoms: N_9  and  C_10 
REMARK       I    between atoms: C_10  and  N_11 
REMARK    5  A    between atoms: N_11  and  C_12 
REMARK    6  A    between atoms: C_16  and  N_17 
REMARK       I    between atoms: N_17  and  C_18 
REMARK    7  A    between atoms: C_18  and  C_19 
ROOT
HETATM    1  C   UNL     1      40.674 -14.924   5.659  1.00  0.00     0.036 A 
HETATM    2  C   UNL     1      41.446 -15.796   6.425  1.00  0.00     0.038 A 
HETATM    3  C   UNL     1      42.060 -16.926   5.845  1.00  0.00    -0.033 A 
HETATM    4  C   UNL     1      42.901 -17.814   6.725  1.00  0.00     0.050 C 
HETATM    5  C   UNL     1      41.853 -17.204   4.478  1.00  0.00     0.041 A 
HETATM    6  C   UNL     1      41.109 -16.300   3.714  1.00  0.00     0.032 A 
HETATM    7  C   UNL     1      40.541 -15.163   4.293  1.00  0.00     0.032 A 
ENDROOT
BRANCH   1   8
HETATM    8  N   UNL     1      40.023 -13.793   6.185  1.00  0.00    -0.309 N 
HETATM    9  C   UNL     1      40.595 -12.569   6.433  1.00  0.00     0.320 C 
HETATM   10  N   UNL     1      39.667 -11.696   6.970  1.00  0.00    -0.342 N 
HETATM   11  O   UNL     1      41.776 -12.266   6.326  1.00  0.00    -0.247 OA
HETATM   12  H   UNL     1      38.748 -11.789   6.551  1.00  0.00     0.164 HD
HETATM   13  H   UNL     1      39.140 -13.963   6.644  1.00  0.00     0.170 HD
BRANCH  10  14
HETATM   14  C   UNL     1      40.056 -10.356   7.359  1.00  0.00     0.130 C 
BRANCH  14  15
HETATM   15  C   UNL     1      40.424 -10.211   8.837  1.00  0.00     0.031 C 
HETATM   16  C   UNL     1      41.883 -10.463   9.187  1.00  0.00     0.241 C 
HETATM   17  N   UNL     1      41.864 -10.622  10.710  1.00  0.00    -0.071 N 
HETATM   18  H   UNL     1      42.461 -11.436  10.912  1.00  0.00     0.279 HD
HETATM   19  C   UNL     1      40.435 -10.968  11.095  1.00  0.00     0.235 C 
HETATM   20  C   UNL     1      39.708 -11.172   9.776  1.00  0.00     0.035 C 
BRANCH  17  21
HETATM   21  C   UNL     1      42.443  -9.435  11.434  1.00  0.00     0.234 C 
BRANCH  21  22
HETATM   22  C   UNL     1      43.533  -9.843  12.423  1.00  0.00     0.023 C 
HETATM   23  C   UNL     1      43.347  -9.254  13.814  1.00  0.00     0.007 C 
ENDBRANCH  21  22
ENDBRANCH  17  21
ENDBRANCH  14  15
ENDBRANCH  10  14
ENDBRANCH   1   8
BRANCH   5  24
HETATM   24  N   UNL     1      42.403 -18.378   3.924  1.00  0.00    -0.321 N 
HETATM   25  C   UNL     1      43.510 -18.501   3.099  1.00  0.00     0.279 C 
HETATM   26  O   UNL     1      44.204 -17.573   2.699  1.00  0.00    -0.265 OA
HETATM   27  H   UNL     1      41.903 -19.248   4.069  1.00  0.00     0.169 HD
BRANCH  25  28
HETATM   28  C   UNL     1      43.757 -19.874   2.698  1.00  0.00     0.142 A 
HETATM   29  O   UNL     1      44.614 -20.650   3.438  1.00  0.00    -0.317 OA
HETATM   30  C   UNL     1      44.663 -21.869   2.841  1.00  0.00     0.143 A 
HETATM   31  C   UNL     1      43.843 -21.903   1.739  1.00  0.00     0.027 A 
HETATM   32  C   UNL     1      43.260 -20.617   1.644  1.00  0.00     0.045 A 
ENDBRANCH  25  28
ENDBRANCH   5  24
TORSDOF 7
ENDMDL
MODEL 5
REMARK VINA RESULT:      -7.6      4.090      5.582
REMARK  7 active torsions:
REMARK  status: ('A' for Active; 'I' for Inactive)
REMARK    1  A    between atoms: C_2  and  C_3 
REMARK    2  A    between atoms: C_3  and  N_4 
REMARK    3  A    between atoms: C_7  and  C_8 
REMARK    4  A    between atoms: C_8  and  N_9 
REMARK       I    between atoms: N_9  and  C_10 
REMARK       I    between atoms: C_10  and  N_11 
REMARK    5  A    between atoms: N_11  and  C_12 
REMARK    6  A    between atoms: C_16  and  N_17 
REMARK       I    between atoms: N_17  and  C_18 
REMARK    7  A    between atoms: C_18  and  C_19 
ROOT
HETATM    1  C   UNL     1      41.514 -14.731   3.978  1.00  0.00     0.036 A 
HETATM    2  C   UNL     1      40.523 -13.864   3.518  1.00  0.00     0.038 A 
HETATM    3  C   UNL     1      39.961 -14.016   2.233  1.00  0.00    -0.033 A 
HETATM    4  C   UNL     1      38.878 -13.059   1.809  1.00  0.00     0.050 C 
HETATM    5  C   UNL     1      40.440 -15.033   1.382  1.00  0.00     0.041 A 
HETATM    6  C   UNL     1      41.406 -15.919   1.870  1.00  0.00     0.032 A 
HETATM    7  C   UNL     1      41.923 -15.782   3.160  1.00  0.00     0.032 A 
ENDROOT
BRANCH   1   8
HETATM    8  N   UNL     1      42.124 -14.617   5.241  1.00  0.00    -0.309 N 
HETATM    9  C   UNL     1      43.352 -14.060   5.502  1.00  0.00     0.320 C 
HETATM   10  N   UNL     1      43.646 -14.136   6.851  1.00  0.00    -0.342 N 
HETATM   11  O   UNL     1      44.167 -13.644   4.689  1.00  0.00    -0.247 OA
HETATM   12  H   UNL     1      42.838 -13.967   7.441  1.00  0.00     0.164 HD
HETATM   13  H   UNL     1      41.748 -15.206   5.970  1.00  0.00     0.170 HD
BRANCH  10  14
HETATM   14  C   UNL     1      44.915 -13.653   7.356  1.00  0.00     0.130 C 
BRANCH  14  15
HETATM   15  C   UNL     1      44.800 -12.742   8.580  1.00  0.00     0.031 C 
HETATM   16  C   UNL     1      43.658 -11.739   8.557  1.00  0.00     0.241 C 
HETATM   17  N   UNL     1      44.020 -10.757   9.675  1.00  0.00    -0.071 N 
HETATM   18  H   UNL     1      43.847  -9.819   9.288  1.00  0.00     0.279 HD
HETATM   19  C   UNL     1      45.512 -10.908   9.921  1.00  0.00     0.235 C 
HETATM   20  C   UNL     1      46.002 -11.840   8.826  1.00  0.00     0.035 C 
BRANCH  17  21
HETATM   21  C   UNL     1      43.158 -10.915  10.901  1.00  0.00     0.234 C 
BRANCH  21  22
HETATM   22  C   UNL     1      43.746 -10.193  12.111  1.00  0.00     0.023 C 
HETATM   23  C   UNL     1      42.876 -10.281  13.357  1.00  0.00     0.007 C 
ENDBRANCH  21  22
ENDBRANCH  17  21
ENDBRANCH  14  15
ENDBRANCH  10  14
ENDBRANCH   1   8
BRANCH   5  24
HETATM   24  N   UNL     1      39.931 -15.128   0.070  1.00  0.00    -0.321 N 
HETATM   25  C   UNL     1      40.459 -14.597  -1.096  1.00  0.00     0.279 C 
HETATM   26  O   UNL     1      41.485 -13.929  -1.171  1.00  0.00    -0.265 OA
HETATM   27  H   UNL     1      39.027 -15.570  -0.054  1.00  0.00     0.169 HD
BRANCH  25  28
HETATM   28  C   UNL     1      39.635 -14.874  -2.258  1.00  0.00     0.142 A 
HETATM   29  O   UNL     1      40.036 -15.830  -3.158  1.00  0.00    -0.317 OA
HETATM   30  C   UNL     1      39.095 -15.876  -4.136  1.00  0.00     0.143 A 
HETATM   31  C   UNL     1      38.084 -14.981  -3.878  1.00  0.00     0.027 A 
HETATM   32  C   UNL     1      38.431 -14.333  -2.669  1.00  0.00     0.045 A 
ENDBRANCH  25  28
ENDBRANCH   5  24
TORSDOF 7
ENDMDL
MODEL 6
REMARK VINA RESULT:      -7.4      4.275      9.971
REMARK  7 active torsions:
REMARK  status: ('A' for Active; 'I' for Inactive)
REMARK    1  A    between atoms: C_2  and  C_3 
REMARK    2  A    between atoms: C_3  and  N_4 
REMARK    3  A    between atoms: C_7  and  C_8 
REMARK    4  A    between atoms: C_8  and  N_9 
REMARK       I    between atoms: N_9  and  C_10 
REMARK       I    between atoms: C_10  and  N_11 
REMARK    5  A    between atoms: N_11  and  C_12 
REMARK    6  A    between atoms: C_16  and  N_17 
REMARK       I    between atoms: N_17  and  C_18 
REMARK    7  A    between atoms: C_18  and  C_19 
ROOT
HETATM    1  C   UNL     1      43.241 -15.251   3.731  1.00  0.00     0.036 A 
HETATM    2  C   UNL     1      43.405 -16.010   4.889  1.00  0.00     0.038 A 
HETATM    3  C   UNL     1      43.553 -15.393   6.149  1.00  0.00    -0.033 A 
HETATM    4  C   UNL     1      43.701 -16.272   7.363  1.00  0.00     0.050 C 
HETATM    5  C   UNL     1      43.581 -13.986   6.234  1.00  0.00     0.041 A 
HETATM    6  C   UNL     1      43.377 -13.237   5.070  1.00  0.00     0.032 A 
HETATM    7  C   UNL     1      43.190 -13.863   3.835  1.00  0.00     0.032 A 
ENDROOT
BRANCH   1   8
HETATM    8  N   UNL     1      43.108 -15.810   2.446  1.00  0.00    -0.309 N 
HETATM    9  C   UNL     1      42.006 -15.718   1.631  1.00  0.00     0.320 C 
HETATM   10  N   UNL     1      42.214 -16.402   0.449  1.00  0.00    -0.342 N 
HETATM   11  O   UNL     1      40.922 -15.215   1.901  1.00  0.00    -0.247 OA
HETATM   12  H   UNL     1      43.159 -16.301   0.095  1.00  0.00     0.164 HD
HETATM   13  H   UNL     1      43.768 -16.535   2.207  1.00  0.00     0.170 HD
BRANCH  10  14
HETATM   14  C   UNL     1      41.166 -16.485  -0.549  1.00  0.00     0.130 C 
BRANCH  14  15
HETATM   15  C   UNL     1      41.121 -15.299  -1.514  1.00  0.00     0.031 C 
HETATM   16  C   UNL     1      40.037 -14.266  -1.248  1.00  0.00     0.241 C 
HETATM   17  N   UNL     1      39.995 -13.448  -2.542  1.00  0.00    -0.071 N 
HETATM   18  H   UNL     1      38.997 -13.329  -2.762  1.00  0.00     0.279 HD
HETATM   19  C   UNL     1      40.626 -14.310  -3.623  1.00  0.00     0.235 C 
HETATM   20  C   UNL     1      40.855 -15.662  -2.969  1.00  0.00     0.035 C 
BRANCH  17  21
HETATM   21  C   UNL     1      40.601 -12.077  -2.393  1.00  0.00     0.234 C 
BRANCH  21  22
HETATM   22  C   UNL     1      42.087 -12.066  -2.743  1.00  0.00     0.023 C 
HETATM   23  C   UNL     1      42.980 -11.592  -1.605  1.00  0.00     0.007 C 
ENDBRANCH  21  22
ENDBRANCH  17  21
ENDBRANCH  14  15
ENDBRANCH  10  14
ENDBRANCH   1   8
BRANCH   5  24
HETATM   24  N   UNL     1      43.811 -13.377   7.485  1.00  0.00    -0.321 N 
HETATM   25  C   UNL     1      45.012 -12.939   8.019  1.00  0.00     0.279 C 
HETATM   26  O   UNL     1      46.106 -13.022   7.470  1.00  0.00    -0.265 OA
HETATM   27  H   UNL     1      43.029 -13.307   8.127  1.00  0.00     0.169 HD
BRANCH  25  28
HETATM   28  C   UNL     1      44.862 -12.391   9.354  1.00  0.00     0.142 A 
HETATM   29  O   UNL     1      44.367 -13.185  10.359  1.00  0.00    -0.317 OA
HETATM   30  C   UNL     1      44.328 -12.425  11.484  1.00  0.00     0.143 A 
HETATM   31  C   UNL     1      44.802 -11.160  11.232  1.00  0.00     0.027 A 
HETATM   32  C   UNL     1      45.146 -11.135   9.859  1.00  0.00     0.045 A 
ENDBRANCH  25  28
ENDBRANCH   5  24
TORSDOF 7
ENDMDL
MODEL 7
REMARK VINA RESULT:      -7.2      6.436     10.052
REMARK  7 active torsions:
REMARK  status: ('A' for Active; 'I' for Inactive)
REMARK    1  A    between atoms: C_2  and  C_3 
REMARK    2  A    between atoms: C_3  and  N_4 
REMARK    3  A    between atoms: C_7  and  C_8 
REMARK    4  A    between atoms: C_8  and  N_9 
REMARK       I    between atoms: N_9  and  C_10 
REMARK       I    between atoms: C_10  and  N_11 
REMARK    5  A    between atoms: N_11  and  C_12 
REMARK    6  A    between atoms: C_16  and  N_17 
REMARK       I    between atoms: N_17  and  C_18 
REMARK    7  A    between atoms: C_18  and  C_19 
ROOT
HETATM    1  C   UNL     1      40.964 -15.047  -0.958  1.00  0.00     0.036 A 
HETATM    2  C   UNL     1      39.936 -14.332  -0.346  1.00  0.00     0.038 A 
HETATM    3  C   UNL     1      38.865 -13.807  -1.099  1.00  0.00    -0.033 A 
HETATM    4  C   UNL     1      37.775 -13.065  -0.372  1.00  0.00     0.050 C 
HETATM    5  C   UNL     1      38.857 -13.968  -2.500  1.00  0.00     0.041 A 
HETATM    6  C   UNL     1      39.874 -14.720  -3.096  1.00  0.00     0.032 A 
HETATM    7  C   UNL     1      40.906 -15.270  -2.332  1.00  0.00     0.032 A 
ENDROOT
BRANCH   1   8
HETATM    8  N   UNL     1      42.066 -15.578  -0.262  1.00  0.00    -0.309 N 
HETATM    9  C   UNL     1      42.076 -16.732   0.483  1.00  0.00     0.320 C 
HETATM   10  N   UNL     1      43.321 -16.940   1.045  1.00  0.00    -0.342 N 
HETATM   11  O   UNL     1      41.123 -17.456   0.746  1.00  0.00    -0.247 OA
HETATM   12  H   UNL     1      44.083 -16.691   0.422  1.00  0.00     0.164 HD
HETATM   13  H   UNL     1      42.831 -14.943  -0.092  1.00  0.00     0.170 HD
BRANCH  10  14
HETATM   14  C   UNL     1      43.557 -18.075   1.915  1.00  0.00     0.130 C 
BRANCH  14  15
HETATM   15  C   UNL     1      43.461 -17.754   3.407  1.00  0.00     0.031 C 
HETATM   16  C   UNL     1      44.289 -18.634   4.331  1.00  0.00     0.241 C 
HETATM   17  N   UNL     1      43.712 -18.341   5.719  1.00  0.00    -0.071 N 
HETATM   18  H   UNL     1      43.613 -19.258   6.177  1.00  0.00     0.279 HD
HETATM   19  C   UNL     1      42.325 -17.761   5.500  1.00  0.00     0.235 C 
HETATM   20  C   UNL     1      42.069 -17.896   4.009  1.00  0.00     0.035 C 
BRANCH  17  21
HETATM   21  C   UNL     1      44.624 -17.497   6.571  1.00  0.00     0.234 C 
BRANCH  21  22
HETATM   22  C   UNL     1      43.892 -16.304   7.183  1.00  0.00     0.023 C 
HETATM   23  C   UNL     1      44.500 -14.959   6.812  1.00  0.00     0.007 C 
ENDBRANCH  21  22
ENDBRANCH  17  21
ENDBRANCH  14  15
ENDBRANCH  10  14
ENDBRANCH   1   8
BRANCH   5  24
HETATM   24  N   UNL     1      37.827 -13.370  -3.255  1.00  0.00    -0.321 N 
HETATM   25  C   UNL     1      36.895 -13.988  -4.075  1.00  0.00     0.279 C 
HETATM   26  O   UNL     1      36.824 -15.193  -4.287  1.00  0.00    -0.265 OA
HETATM   27  H   UNL     1      37.786 -12.358  -3.280  1.00  0.00     0.169 HD
BRANCH  25  28
HETATM   28  C   UNL     1      36.005 -13.040  -4.720  1.00  0.00     0.142 A 
HETATM   29  O   UNL     1      36.499 -11.832  -5.146  1.00  0.00    -0.317 OA
HETATM   30  C   UNL     1      35.462 -11.150  -5.698  1.00  0.00     0.143 A 
HETATM   31  C   UNL     1      34.310 -11.899  -5.652  1.00  0.00     0.027 A 
HETATM   32  C   UNL     1      34.658 -13.117  -5.020  1.00  0.00     0.045 A 
ENDBRANCH  25  28
ENDBRANCH   5  24
TORSDOF 7
ENDMDL
MODEL 8
REMARK VINA RESULT:      -7.1      3.516      4.616
REMARK  7 active torsions:
REMARK  status: ('A' for Active; 'I' for Inactive)
REMARK    1  A    between atoms: C_2  and  C_3 
REMARK    2  A    between atoms: C_3  and  N_4 
REMARK    3  A    between atoms: C_7  and  C_8 
REMARK    4  A    between atoms: C_8  and  N_9 
REMARK       I    between atoms: N_9  and  C_10 
REMARK       I    between atoms: C_10  and  N_11 
REMARK    5  A    between atoms: N_11  and  C_12 
REMARK    6  A    between atoms: C_16  and  N_17 
REMARK       I    between atoms: N_17  and  C_18 
REMARK    7  A    between atoms: C_18  and  C_19 
ROOT
HETATM    1  C   UNL     1      39.692 -13.177   5.944  1.00  0.00     0.036 A 
HETATM    2  C   UNL     1      40.345 -14.360   5.598  1.00  0.00     0.038 A 
HETATM    3  C   UNL     1      40.627 -14.669   4.251  1.00  0.00    -0.033 A 
HETATM    4  C   UNL     1      41.356 -15.951   3.949  1.00  0.00     0.050 C 
HETATM    5  C   UNL     1      40.202 -13.789   3.234  1.00  0.00     0.041 A 
HETATM    6  C   UNL     1      39.584 -12.588   3.598  1.00  0.00     0.032 A 
HETATM    7  C   UNL     1      39.348 -12.277   4.939  1.00  0.00     0.032 A 
ENDROOT
BRANCH   1   8
HETATM    8  N   UNL     1      39.368 -12.825   7.268  1.00  0.00    -0.309 N 
HETATM    9  C   UNL     1      39.556 -11.595   7.850  1.00  0.00     0.320 C 
HETATM   10  N   UNL     1      39.143 -11.611   9.169  1.00  0.00    -0.342 N 
HETATM   11  O   UNL     1      40.110 -10.619   7.362  1.00  0.00    -0.247 OA
HETATM   12  H   UNL     1      38.299 -12.154   9.313  1.00  0.00     0.164 HD
HETATM   13  H   UNL     1      39.218 -13.592   7.907  1.00  0.00     0.170 HD
BRANCH  10  14
HETATM   14  C   UNL     1      39.291 -10.434  10.001  1.00  0.00     0.130 C 
BRANCH  14  15
HETATM   15  C   UNL     1      40.453 -10.507  10.994  1.00  0.00     0.031 C 
HETATM   16  C   UNL     1      41.745 -11.108  10.462  1.00  0.00     0.241 C 
HETATM   17  N   UNL     1      42.557 -11.393  11.728  1.00  0.00    -0.071 N 
HETATM   18  H   UNL     1      42.953 -12.334  11.598  1.00  0.00     0.279 HD
HETATM   19  C   UNL     1      41.565 -11.446  12.879  1.00  0.00     0.235 C 
HETATM   20  C   UNL     1      40.196 -11.364  12.226  1.00  0.00     0.035 C 
BRANCH  17  21
HETATM   21  C   UNL     1      43.702 -10.434  11.924  1.00  0.00     0.234 C 
BRANCH  21  22
HETATM   22  C   UNL     1      44.773 -10.594  10.847  1.00  0.00     0.023 C 
HETATM   23  C   UNL     1      45.295 -12.017  10.712  1.00  0.00     0.007 C 
ENDBRANCH  21  22
ENDBRANCH  17  21
ENDBRANCH  14  15
ENDBRANCH  10  14
ENDBRANCH   1   8
BRANCH   5  24
HETATM   24  N   UNL     1      40.416 -14.143   1.886  1.00  0.00    -0.321 N 
HETATM   25  C   UNL     1      41.451 -13.755   1.050  1.00  0.00     0.279 C 
HETATM   26  O   UNL     1      42.373 -13.008   1.362  1.00  0.00    -0.265 OA
HETATM   27  H   UNL     1      39.698 -14.687   1.421  1.00  0.00     0.169 HD
BRANCH  25  28
HETATM   28  C   UNL     1      41.319 -14.295  -0.290  1.00  0.00     0.142 A 
HETATM   29  O   UNL     1      41.419 -13.455  -1.371  1.00  0.00    -0.317 OA
HETATM   30  C   UNL     1      41.251 -14.215  -2.484  1.00  0.00     0.143 A 
HETATM   31  C   UNL     1      41.060 -15.534  -2.145  1.00  0.00     0.027 A 
HETATM   32  C   UNL     1      41.102 -15.587  -0.732  1.00  0.00     0.045 A 
ENDBRANCH  25  28
ENDBRANCH   5  24
TORSDOF 7
ENDMDL
MODEL 9
REMARK VINA RESULT:      -7.0      5.635      9.974
REMARK  7 active torsions:
REMARK  status: ('A' for Active; 'I' for Inactive)
REMARK    1  A    between atoms: C_2  and  C_3 
REMARK    2  A    between atoms: C_3  and  N_4 
REMARK    3  A    between atoms: C_7  and  C_8 
REMARK    4  A    between atoms: C_8  and  N_9 
REMARK       I    between atoms: N_9  and  C_10 
REMARK       I    between atoms: C_10  and  N_11 
REMARK    5  A    between atoms: N_11  and  C_12 
REMARK    6  A    between atoms: C_16  and  N_17 
REMARK       I    between atoms: N_17  and  C_18 
REMARK    7  A    between atoms: C_18  and  C_19 
ROOT
HETATM    1  C   UNL     1      41.224 -14.546   0.617  1.00  0.00     0.036 A 
HETATM    2  C   UNL     1      41.354 -15.116  -0.649  1.00  0.00     0.038 A 
HETATM    3  C   UNL     1      40.374 -14.912  -1.643  1.00  0.00    -0.033 A 
HETATM    4  C   UNL     1      40.588 -15.535  -2.997  1.00  0.00     0.050 C 
HETATM    5  C   UNL     1      39.222 -14.157  -1.338  1.00  0.00     0.041 A 
HETATM    6  C   UNL     1      39.124 -13.561  -0.077  1.00  0.00     0.032 A 
HETATM    7  C   UNL     1      40.122 -13.737   0.884  1.00  0.00     0.032 A 
ENDROOT
BRANCH   1   8
HETATM    8  N   UNL     1      42.159 -14.730   1.653  1.00  0.00    -0.309 N 
HETATM    9  C   UNL     1      41.955 -15.434   2.814  1.00  0.00     0.320 C 
HETATM   10  N   UNL     1      43.081 -15.390   3.616  1.00  0.00    -0.342 N 
HETATM   11  O   UNL     1      40.913 -15.950   3.197  1.00  0.00    -0.247 OA
HETATM   12  H   UNL     1      43.944 -15.456   3.088  1.00  0.00     0.164 HD
HETATM   13  H   UNL     1      42.945 -14.097   1.659  1.00  0.00     0.170 HD
BRANCH  10  14
HETATM   14  C   UNL     1      43.082 -16.025   4.919  1.00  0.00     0.130 C 
BRANCH  14  15
HETATM   15  C   UNL     1      43.852 -17.346   4.975  1.00  0.00     0.031 C 
HETATM   16  C   UNL     1      43.132 -18.560   4.408  1.00  0.00     0.241 C 
HETATM   17  N   UNL     1      43.951 -19.741   4.935  1.00  0.00    -0.071 N 
HETATM   18  H   UNL     1      43.262 -20.432   5.264  1.00  0.00     0.279 HD
HETATM   19  C   UNL     1      44.730 -19.231   6.136  1.00  0.00     0.235 C 
HETATM   20  C   UNL     1      44.210 -17.823   6.376  1.00  0.00     0.035 C 
BRANCH  17  21
HETATM   21  C   UNL     1      44.790 -20.399   3.871  1.00  0.00     0.234 C 
BRANCH  21  22
HETATM   22  C   UNL     1      44.155 -20.282   2.487  1.00  0.00     0.023 C 
HETATM   23  C   UNL     1      43.808 -21.624   1.857  1.00  0.00     0.007 C 
ENDBRANCH  21  22
ENDBRANCH  17  21
ENDBRANCH  14  15
ENDBRANCH  10  14
ENDBRANCH   1   8
BRANCH   5  24
HETATM   24  N   UNL     1      38.209 -14.026  -2.310  1.00  0.00    -0.321 N 
HETATM   25  C   UNL     1      37.997 -12.978  -3.192  1.00  0.00     0.279 C 
HETATM   26  O   UNL     1      38.678 -11.960  -3.262  1.00  0.00    -0.265 OA
HETATM   27  H   UNL     1      37.486 -14.736  -2.338  1.00  0.00     0.169 HD
BRANCH  25  28
HETATM   28  C   UNL     1      36.828 -13.180  -4.028  1.00  0.00     0.142 A 
HETATM   29  O   UNL     1      36.057 -12.101  -4.383  1.00  0.00    -0.317 OA
HETATM   30  C   UNL     1      35.039 -12.574  -5.149  1.00  0.00     0.143 A 
HETATM   31  C   UNL     1      35.146 -13.935  -5.310  1.00  0.00     0.027 A 
HETATM   32  C   UNL     1      36.298 -14.328  -4.586  1.00  0.00     0.045 A 
ENDBRANCH  25  28
ENDBRANCH   5  24
TORSDOF 7
ENDMDL
MODEL 10
REMARK VINA RESULT:      -7.0      2.159      3.069
REMARK  7 active torsions:
REMARK  status: ('A' for Active; 'I' for Inactive)
REMARK    1  A    between atoms: C_2  and  C_3 
REMARK    2  A    between atoms: C_3  and  N_4 
REMARK    3  A    between atoms: C_7  and  C_8 
REMARK    4  A    between atoms: C_8  and  N_9 
REMARK       I    between atoms: N_9  and  C_10 
REMARK       I    between atoms: C_10  and  N_11 
REMARK    5  A    between atoms: N_11  and  C_12 
REMARK    6  A    between atoms: C_16  and  N_17 
REMARK       I    between atoms: N_17  and  C_18 
REMARK    7  A    between atoms: C_18  and  C_19 
ROOT
HETATM    1  C   UNL     1      40.634 -12.254   6.220  1.00  0.00     0.036 A 
HETATM    2  C   UNL     1      41.992 -12.567   6.182  1.00  0.00     0.038 A 
HETATM    3  C   UNL     1      42.458 -13.701   5.483  1.00  0.00    -0.033 A 
HETATM    4  C   UNL     1      43.940 -13.968   5.462  1.00  0.00     0.050 C 
HETATM    5  C   UNL     1      41.532 -14.556   4.851  1.00  0.00     0.041 A 
HETATM    6  C   UNL     1      40.177 -14.209   4.865  1.00  0.00     0.032 A 
HETATM    7  C   UNL     1      39.735 -13.061   5.526  1.00  0.00     0.032 A 
ENDROOT
BRANCH   1   8
HETATM    8  N   UNL     1      40.109 -11.149   6.916  1.00  0.00    -0.309 N 
HETATM    9  C   UNL     1      39.462 -11.184   8.127  1.00  0.00     0.320 C 
HETATM   10  N   UNL     1      39.061  -9.916   8.504  1.00  0.00    -0.342 N 
HETATM   11  O   UNL     1      39.151 -12.176   8.774  1.00  0.00    -0.247 OA
HETATM   12  H   UNL     1      39.744  -9.202   8.276  1.00  0.00     0.164 HD
HETATM   13  H   UNL     1      39.976 -10.306   6.375  1.00  0.00     0.170 HD
BRANCH  10  14
HETATM   14  C   UNL     1      38.314  -9.714   9.729  1.00  0.00     0.130 C 
BRANCH  14  15
HETATM   15  C   UNL     1      39.123  -9.078  10.862  1.00  0.00     0.031 C 
HETATM   16  C   UNL     1      40.240  -9.932  11.443  1.00  0.00     0.241 C 
HETATM   17  N   UNL     1      40.593  -9.219  12.751  1.00  0.00    -0.071 N 
HETATM   18  H   UNL     1      40.685  -9.963  13.456  1.00  0.00     0.279 HD
HETATM   19  C   UNL     1      39.395  -8.357  13.115  1.00  0.00     0.235 C 
HETATM   20  C   UNL     1      38.320  -8.727  12.108  1.00  0.00     0.035 C 
BRANCH  17  21
HETATM   21  C   UNL     1      41.906  -8.483  12.685  1.00  0.00     0.234 C 
BRANCH  21  22
HETATM   22  C   UNL     1      42.976  -9.142  13.552  1.00  0.00     0.023 C 
HETATM   23  C   UNL     1      42.417 -10.123  14.573  1.00  0.00     0.007 C 
ENDBRANCH  21  22
ENDBRANCH  17  21
ENDBRANCH  14  15
ENDBRANCH  10  14
ENDBRANCH   1   8
BRANCH   5  24
HETATM   24  N   UNL     1      41.998 -15.731   4.224  1.00  0.00    -0.321 N 
HETATM   25  C   UNL     1      41.888 -17.040   4.665  1.00  0.00     0.279 C 
HETATM   26  O   UNL     1      41.357 -17.395   5.712  1.00  0.00    -0.265 OA
HETATM   27  H   UNL     1      42.553 -15.628   3.382  1.00  0.00     0.169 HD
BRANCH  25  28
HETATM   28  C   UNL     1      42.521 -17.986   3.764  1.00  0.00     0.142 A 
HETATM   29  O   UNL     1      42.113 -18.048   2.455  1.00  0.00    -0.317 OA
HETATM   30  C   UNL     1      42.859 -19.010   1.851  1.00  0.00     0.143 A 
HETATM   31  C   UNL     1      43.752 -19.561   2.740  1.00  0.00     0.027 A 
HETATM   32  C   UNL     1      43.534 -18.903   3.974  1.00  0.00     0.045 A 
ENDBRANCH  25  28
ENDBRANCH   5  24
TORSDOF 7
ENDMDL
