MODEL 1
REMARK VINA RESULT:      -8.9      0.000      0.000
REMARK  5 active torsions:
REMARK  status: ('A' for Active; 'I' for Inactive)
REMARK    1  A    between atoms: C_4  and  C_5 
REMARK       I    between atoms: N_6  and  C_7 
REMARK    2  A    between atoms: C_7  and  C_8 
REMARK    3  A    between atoms: C_8  and  C_9 
REMARK    4  A    between atoms: C_11  and  O_12 
REMARK    5  A    between atoms: C_14  and  O_15 
ROOT
HETATM    1  C   UNL     1      42.238 -14.012   1.791  1.00  0.00     0.189 C 
HETATM    2  N   UNL     1      41.625 -15.359   1.692  1.00  0.00    -0.336 N 
HETATM    3  C   UNL     1      42.467 -16.442   1.519  1.00  0.00     0.225 C 
HETATM    4  O   UNL     1      43.642 -16.309   1.168  1.00  0.00    -0.273 OA
HETATM    5  C   UNL     1      40.155 -15.429   1.846  1.00  0.00     0.132 C 
HETATM    6  C   UNL     1      39.696 -14.987   3.244  1.00  0.00     0.061 C 
HETATM    7  C   UNL     1      40.474 -13.797   3.686  1.00  0.00    -0.019 A 
HETATM    8  C   UNL     1      41.615 -13.379   3.021  1.00  0.00     0.046 A 
HETATM    9  N   UNL     1      42.153 -12.345   3.743  1.00  0.00    -0.356 N 
HETATM   10  H   UNL     1      43.019 -11.867   3.540  1.00  0.00     0.166 HD
HETATM   11  C   UNL     1      41.361 -12.065   4.837  1.00  0.00     0.043 A 
HETATM   12  C   UNL     1      40.294 -12.963   4.821  1.00  0.00    -0.001 A 
HETATM   13  C   UNL     1      41.523 -11.104   5.842  1.00  0.00     0.030 A 
HETATM   14  C   UNL     1      40.562 -11.063   6.859  1.00  0.00     0.002 A 
HETATM   15  C   UNL     1      39.485 -11.947   6.867  1.00  0.00     0.001 A 
HETATM   16  C   UNL     1      39.340 -12.903   5.855  1.00  0.00     0.014 A 
ENDROOT
BRANCH   1  17
HETATM   17  C   UNL     1      42.122 -13.160   0.513  1.00  0.00     0.063 A 
HETATM   18  N   UNL     1      42.488 -11.848   0.540  1.00  0.00    -0.256 NA
HETATM   19  C   UNL     1      42.339 -11.112  -0.589  1.00  0.00     0.031 A 
HETATM   20  C   UNL     1      42.698  -9.659  -0.523  1.00  0.00     0.070 C 
HETATM   21  C   UNL     1      41.844 -11.643  -1.775  1.00  0.00     0.027 A 
HETATM   22  C   UNL     1      41.476 -12.978  -1.802  1.00  0.00     0.004 A 
HETATM   23  C   UNL     1      41.604 -13.743  -0.648  1.00  0.00     0.030 A 
ENDBRANCH   1  17
BRANCH   3  24
HETATM   24  C   UNL     1      41.952 -17.815   1.918  1.00  0.00     0.141 C 
BRANCH  24  25
HETATM   25  C   UNL     1      42.847 -18.730   2.721  1.00  0.00    -0.047 A 
HETATM   26  C   UNL     1      43.146 -18.546   4.077  1.00  0.00     0.047 A 
HETATM   27  C   UNL     1      44.036 -19.409   4.737  1.00  0.00     0.102 A 
HETATM   28  C   UNL     1      44.611 -20.493   4.045  1.00  0.00     0.101 A 
HETATM   29  C   UNL     1      44.289 -20.696   2.704  1.00  0.00     0.040 A 
HETATM   30  C   UNL     1      43.423 -19.820   2.049  1.00  0.00     0.010 A 
BRANCH  27  31
HETATM   31  O   UNL     1      44.394 -19.280   6.057  1.00  0.00    -0.353 OA
HETATM   32  C   UNL     1      45.110 -18.105   6.412  1.00  0.00     0.210 C 
ENDBRANCH  27  31
BRANCH  28  33
HETATM   33  O   UNL     1      45.470 -21.289   4.764  1.00  0.00    -0.353 OA
HETATM   34  C   UNL     1      45.053 -22.618   5.038  1.00  0.00     0.210 C 
ENDBRANCH  28  33
ENDBRANCH  24  25
ENDBRANCH   3  24
TORSDOF 5
ENDMDL
MODEL 2
REMARK VINA RESULT:      -8.8      2.003      5.025
REMARK  5 active torsions:
REMARK  status: ('A' for Active; 'I' for Inactive)
REMARK    1  A    between atoms: C_4  and  C_5 
REMARK       I    between atoms: N_6  and  C_7 
REMARK    2  A    between atoms: C_7  and  C_8 
REMARK    3  A    between atoms: C_8  and  C_9 
REMARK    4  A    between atoms: C_11  and  O_12 
REMARK    5  A    between atoms: C_14  and  O_15 
ROOT
HETATM    1  C   UNL     1      39.683 -14.828   1.729  1.00  0.00     0.189 C 
HETATM    2  N   UNL     1      41.014 -15.472   1.612  1.00  0.00    -0.336 N 
HETATM    3  C   UNL     1      41.115 -16.813   1.937  1.00  0.00     0.225 C 
HETATM    4  O   UNL     1      40.235 -17.401   2.572  1.00  0.00    -0.273 OA
HETATM    5  C   UNL     1      42.114 -14.626   1.099  1.00  0.00     0.132 C 
HETATM    6  C   UNL     1      41.869 -14.168  -0.347  1.00  0.00     0.061 C 
HETATM    7  C   UNL     1      40.440 -13.791  -0.529  1.00  0.00    -0.019 A 
HETATM    8  C   UNL     1      39.474 -14.101   0.414  1.00  0.00     0.046 A 
HETATM    9  N   UNL     1      38.262 -13.726  -0.106  1.00  0.00    -0.356 N 
HETATM   10  H   UNL     1      37.361 -13.874   0.325  1.00  0.00     0.166 HD
HETATM   11  C   UNL     1      38.432 -13.149  -1.346  1.00  0.00     0.043 A 
HETATM   12  C   UNL     1      39.798 -13.173  -1.634  1.00  0.00    -0.001 A 
HETATM   13  C   UNL     1      37.484 -12.632  -2.237  1.00  0.00     0.030 A 
HETATM   14  C   UNL     1      37.949 -12.124  -3.455  1.00  0.00     0.002 A 
HETATM   15  C   UNL     1      39.306 -12.133  -3.767  1.00  0.00     0.001 A 
HETATM   16  C   UNL     1      40.241 -12.657  -2.867  1.00  0.00     0.014 A 
ENDROOT
BRANCH   1  17
HETATM   17  C   UNL     1      39.506 -13.943   2.977  1.00  0.00     0.063 A 
HETATM   18  N   UNL     1      38.990 -12.688   2.848  1.00  0.00    -0.256 NA
HETATM   19  C   UNL     1      38.881 -11.918   3.959  1.00  0.00     0.031 A 
HETATM   20  C   UNL     1      38.360 -10.523   3.787  1.00  0.00     0.070 C 
HETATM   21  C   UNL     1      39.260 -12.357   5.222  1.00  0.00     0.027 A 
HETATM   22  C   UNL     1      39.782 -13.635   5.352  1.00  0.00     0.004 A 
HETATM   23  C   UNL     1      39.918 -14.432   4.221  1.00  0.00     0.030 A 
ENDBRANCH   1  17
BRANCH   3  24
HETATM   24  C   UNL     1      42.281 -17.598   1.362  1.00  0.00     0.141 C 
BRANCH  24  25
HETATM   25  C   UNL     1      43.082 -18.497   2.275  1.00  0.00    -0.047 A 
HETATM   26  C   UNL     1      43.510 -18.133   3.558  1.00  0.00     0.047 A 
HETATM   27  C   UNL     1      44.304 -19.006   4.321  1.00  0.00     0.102 A 
HETATM   28  C   UNL     1      44.647 -20.274   3.813  1.00  0.00     0.101 A 
HETATM   29  C   UNL     1      44.194 -20.650   2.549  1.00  0.00     0.040 A 
HETATM   30  C   UNL     1      43.426 -19.767   1.787  1.00  0.00     0.010 A 
BRANCH  27  31
HETATM   31  O   UNL     1      44.779 -18.712   5.576  1.00  0.00    -0.353 OA
HETATM   32  C   UNL     1      43.823 -18.673   6.626  1.00  0.00     0.210 C 
ENDBRANCH  27  31
BRANCH  28  33
HETATM   33  O   UNL     1      45.424 -21.066   4.623  1.00  0.00    -0.353 OA
HETATM   34  C   UNL     1      44.872 -22.302   5.051  1.00  0.00     0.210 C 
ENDBRANCH  28  33
ENDBRANCH  24  25
ENDBRANCH   3  24
TORSDOF 5
ENDMDL
MODEL 3
REMARK VINA RESULT:      -8.7      2.750      7.336
REMARK  5 active torsions:
REMARK  status: ('A' for Active; 'I' for Inactive)
REMARK    1  A    between atoms: C_4  and  C_5 
REMARK       I    between atoms: N_6  and  C_7 
REMARK    2  A    between atoms: C_7  and  C_8 
REMARK    3  A    between atoms: C_8  and  C_9 
REMARK    4  A    between atoms: C_11  and  O_12 
REMARK    5  A    between atoms: C_14  and  O_15 
ROOT
HETATM    1  C   UNL     1      41.697 -16.476   4.003  1.00  0.00     0.189 C 
HETATM    2  N   UNL     1      42.387 -16.231   2.713  1.00  0.00    -0.336 N 
HETATM    3  C   UNL     1      41.947 -16.927   1.602  1.00  0.00     0.225 C 
HETATM    4  O   UNL     1      41.221 -17.920   1.696  1.00  0.00    -0.273 OA
HETATM    5  C   UNL     1      43.458 -15.211   2.721  1.00  0.00     0.132 C 
HETATM    6  C   UNL     1      42.923 -13.809   3.052  1.00  0.00     0.061 C 
HETATM    7  C   UNL     1      41.911 -13.892   4.141  1.00  0.00    -0.019 A 
HETATM    8  C   UNL     1      41.371 -15.099   4.550  1.00  0.00     0.046 A 
HETATM    9  N   UNL     1      40.396 -14.819   5.473  1.00  0.00    -0.356 N 
HETATM   10  H   UNL     1      39.785 -15.491   5.913  1.00  0.00     0.166 HD
HETATM   11  C   UNL     1      40.325 -13.460   5.693  1.00  0.00     0.043 A 
HETATM   12  C   UNL     1      41.273 -12.852   4.869  1.00  0.00    -0.001 A 
HETATM   13  C   UNL     1      39.482 -12.728   6.538  1.00  0.00     0.030 A 
HETATM   14  C   UNL     1      39.617 -11.335   6.539  1.00  0.00     0.002 A 
HETATM   15  C   UNL     1      40.557 -10.703   5.728  1.00  0.00     0.001 A 
HETATM   16  C   UNL     1      41.390 -11.449   4.887  1.00  0.00     0.014 A 
ENDROOT
BRANCH   1  17
HETATM   17  C   UNL     1      42.470 -17.380   4.982  1.00  0.00     0.063 A 
HETATM   18  N   UNL     1      42.604 -17.005   6.285  1.00  0.00    -0.256 NA
HETATM   19  C   UNL     1      43.323 -17.801   7.116  1.00  0.00     0.031 A 
HETATM   20  C   UNL     1      43.502 -17.344   8.532  1.00  0.00     0.070 C 
HETATM   21  C   UNL     1      43.915 -18.987   6.698  1.00  0.00     0.027 A 
HETATM   22  C   UNL     1      43.774 -19.369   5.373  1.00  0.00     0.004 A 
HETATM   23  C   UNL     1      43.057 -18.556   4.503  1.00  0.00     0.030 A 
ENDBRANCH   1  17
BRANCH   3  24
HETATM   24  C   UNL     1      42.261 -16.351   0.231  1.00  0.00     0.141 C 
BRANCH  24  25
HETATM   25  C   UNL     1      41.186 -15.588  -0.508  1.00  0.00    -0.047 A 
HETATM   26  C   UNL     1      40.930 -15.721  -1.879  1.00  0.00     0.047 A 
HETATM   27  C   UNL     1      39.951 -14.930  -2.502  1.00  0.00     0.102 A 
HETATM   28  C   UNL     1      39.192 -14.018  -1.743  1.00  0.00     0.101 A 
HETATM   29  C   UNL     1      39.424 -13.909  -0.373  1.00  0.00     0.040 A 
HETATM   30  C   UNL     1      40.415 -14.681   0.235  1.00  0.00     0.010 A 
BRANCH  27  31
HETATM   31  O   UNL     1      39.657 -14.987  -3.843  1.00  0.00    -0.353 OA
HETATM   32  C   UNL     1      38.970 -16.145  -4.296  1.00  0.00     0.210 C 
ENDBRANCH  27  31
BRANCH  28  33
HETATM   33  O   UNL     1      38.255 -13.284  -2.429  1.00  0.00    -0.353 OA
HETATM   34  C   UNL     1      37.738 -12.125  -1.791  1.00  0.00     0.210 C 
ENDBRANCH  28  33
ENDBRANCH  24  25
ENDBRANCH   3  24
TORSDOF 5
ENDMDL
MODEL 4
REMARK VINA RESULT:      -8.6      2.099      5.397
REMARK  5 active torsions:
REMARK  status: ('A' for Active; 'I' for Inactive)
REMARK    1  A    between atoms: C_4  and  C_5 
REMARK       I    between atoms: N_6  and  C_7 
REMARK    2  A    between atoms: C_7  and  C_8 
REMARK    3  A    between atoms: C_8  and  C_9 
REMARK    4  A    between atoms: C_11  and  O_12 
REMARK    5  A    between atoms: C_14  and  O_15 
ROOT
HETATM    1  C   UNL     1      40.653 -13.984   4.664  1.00  0.00     0.189 C 
HETATM    2  N   UNL     1      42.018 -14.500   4.929  1.00  0.00    -0.336 N 
HETATM    3  C   UNL     1      42.150 -15.560   5.808  1.00  0.00     0.225 C 
HETATM    4  O   UNL     1      41.241 -15.894   6.573  1.00  0.00    -0.273 OA
HETATM    5  C   UNL     1      43.122 -13.862   4.178  1.00  0.00     0.132 C 
HETATM    6  C   UNL     1      43.000 -14.088   2.664  1.00  0.00     0.061 C 
HETATM    7  C   UNL     1      41.580 -13.948   2.238  1.00  0.00    -0.019 A 
HETATM    8  C   UNL     1      40.541 -13.908   3.153  1.00  0.00     0.046 A 
HETATM    9  N   UNL     1      39.369 -13.896   2.441  1.00  0.00    -0.356 N 
HETATM   10  H   UNL     1      38.438 -13.923   2.830  1.00  0.00     0.166 HD
HETATM   11  C   UNL     1      39.634 -13.891   1.088  1.00  0.00     0.043 A 
HETATM   12  C   UNL     1      41.021 -13.918   0.933  1.00  0.00    -0.001 A 
HETATM   13  C   UNL     1      38.755 -13.887  -0.001  1.00  0.00     0.030 A 
HETATM   14  C   UNL     1      39.313 -13.908  -1.285  1.00  0.00     0.002 A 
HETATM   15  C   UNL     1      40.693 -13.934  -1.468  1.00  0.00     0.001 A 
HETATM   16  C   UNL     1      41.559 -13.941  -0.368  1.00  0.00     0.014 A 
ENDROOT
BRANCH   1  17
HETATM   17  C   UNL     1      40.311 -12.670   5.392  1.00  0.00     0.063 A 
HETATM   18  N   UNL     1      39.947 -12.699   6.704  1.00  0.00    -0.256 NA
HETATM   19  C   UNL     1      39.615 -11.531   7.309  1.00  0.00     0.031 A 
HETATM   20  C   UNL     1      39.167 -11.592   8.738  1.00  0.00     0.070 C 
HETATM   21  C   UNL     1      39.643 -10.307   6.651  1.00  0.00     0.027 A 
HETATM   22  C   UNL     1      40.017 -10.278   5.317  1.00  0.00     0.004 A 
HETATM   23  C   UNL     1      40.343 -11.469   4.676  1.00  0.00     0.030 A 
ENDBRANCH   1  17
BRANCH   3  24
HETATM   24  C   UNL     1      43.404 -16.412   5.711  1.00  0.00     0.141 C 
BRANCH  24  25
HETATM   25  C   UNL     1      43.475 -17.496   4.660  1.00  0.00    -0.047 A 
HETATM   26  C   UNL     1      42.700 -17.511   3.493  1.00  0.00     0.047 A 
HETATM   27  C   UNL     1      42.783 -18.588   2.595  1.00  0.00     0.102 A 
HETATM   28  C   UNL     1      43.676 -19.649   2.844  1.00  0.00     0.101 A 
HETATM   29  C   UNL     1      44.471 -19.618   3.989  1.00  0.00     0.040 A 
HETATM   30  C   UNL     1      44.366 -18.556   4.889  1.00  0.00     0.010 A 
BRANCH  27  31
HETATM   31  O   UNL     1      42.042 -18.685   1.442  1.00  0.00    -0.353 OA
HETATM   32  C   UNL     1      41.189 -17.590   1.139  1.00  0.00     0.210 C 
ENDBRANCH  27  31
BRANCH  28  33
HETATM   33  O   UNL     1      43.696 -20.661   1.916  1.00  0.00    -0.353 OA
HETATM   34  C   UNL     1      44.329 -21.876   2.289  1.00  0.00     0.210 C 
ENDBRANCH  28  33
ENDBRANCH  24  25
ENDBRANCH   3  24
TORSDOF 5
ENDMDL
MODEL 5
REMARK VINA RESULT:      -8.6      3.262      5.797
REMARK  5 active torsions:
REMARK  status: ('A' for Active; 'I' for Inactive)
REMARK    1  A    between atoms: C_4  and  C_5 
REMARK       I    between atoms: N_6  and  C_7 
REMARK    2  A    between atoms: C_7  and  C_8 
REMARK    3  A    between atoms: C_8  and  C_9 
REMARK    4  A    between atoms: C_11  and  O_12 
REMARK    5  A    between atoms: C_14  and  O_15 
ROOT
HETATM    1  C   UNL     1      40.362 -13.031  -1.315  1.00  0.00     0.189 C 
HETATM    2  N   UNL     1      40.903 -14.412  -1.292  1.00  0.00    -0.336 N 
HETATM    3  C   UNL     1      41.186 -14.975  -0.061  1.00  0.00     0.225 C 
HETATM    4  O   UNL     1      41.274 -14.297   0.965  1.00  0.00    -0.273 OA
HETATM    5  C   UNL     1      41.041 -15.089  -2.600  1.00  0.00     0.132 C 
HETATM    6  C   UNL     1      39.684 -15.305  -3.287  1.00  0.00     0.061 C 
HETATM    7  C   UNL     1      38.825 -14.101  -3.115  1.00  0.00    -0.019 A 
HETATM    8  C   UNL     1      39.146 -13.093  -2.221  1.00  0.00     0.046 A 
HETATM    9  N   UNL     1      38.104 -12.202  -2.217  1.00  0.00    -0.356 N 
HETATM   10  H   UNL     1      38.021 -11.390  -1.625  1.00  0.00     0.166 HD
HETATM   11  C   UNL     1      37.137 -12.597  -3.117  1.00  0.00     0.043 A 
HETATM   12  C   UNL     1      37.570 -13.788  -3.701  1.00  0.00    -0.001 A 
HETATM   13  C   UNL     1      35.911 -12.002  -3.440  1.00  0.00     0.030 A 
HETATM   14  C   UNL     1      35.108 -12.647  -4.388  1.00  0.00     0.002 A 
HETATM   15  C   UNL     1      35.516 -13.836  -4.986  1.00  0.00     0.001 A 
HETATM   16  C   UNL     1      36.744 -14.419  -4.651  1.00  0.00     0.014 A 
ENDROOT
BRANCH   1  17
HETATM   17  C   UNL     1      41.386 -11.948  -1.703  1.00  0.00     0.063 A 
HETATM   18  N   UNL     1      41.401 -11.456  -2.974  1.00  0.00    -0.256 NA
HETATM   19  C   UNL     1      42.338 -10.531  -3.298  1.00  0.00     0.031 A 
HETATM   20  C   UNL     1      42.371 -10.043  -4.714  1.00  0.00     0.070 C 
HETATM   21  C   UNL     1      43.273 -10.053  -2.386  1.00  0.00     0.027 A 
HETATM   22  C   UNL     1      43.254 -10.551  -1.093  1.00  0.00     0.004 A 
HETATM   23  C   UNL     1      42.312 -11.514  -0.749  1.00  0.00     0.030 A 
ENDBRANCH   1  17
BRANCH   3  24
HETATM   24  C   UNL     1      41.243 -16.491   0.031  1.00  0.00     0.141 C 
BRANCH  24  25
HETATM   25  C   UNL     1      42.014 -17.128   1.164  1.00  0.00    -0.047 A 
HETATM   26  C   UNL     1      41.474 -17.396   2.429  1.00  0.00     0.047 A 
HETATM   27  C   UNL     1      42.276 -17.936   3.448  1.00  0.00     0.102 A 
HETATM   28  C   UNL     1      43.626 -18.248   3.194  1.00  0.00     0.101 A 
HETATM   29  C   UNL     1      44.154 -18.012   1.926  1.00  0.00     0.040 A 
HETATM   30  C   UNL     1      43.358 -17.453   0.926  1.00  0.00     0.010 A 
BRANCH  27  31
HETATM   31  O   UNL     1      41.825 -18.206   4.718  1.00  0.00    -0.353 OA
HETATM   32  C   UNL     1      41.498 -17.087   5.530  1.00  0.00     0.210 C 
ENDBRANCH  27  31
BRANCH  28  33
HETATM   33  O   UNL     1      44.339 -18.774   4.244  1.00  0.00    -0.353 OA
HETATM   34  C   UNL     1      44.697 -20.146   4.167  1.00  0.00     0.210 C 
ENDBRANCH  28  33
ENDBRANCH  24  25
ENDBRANCH   3  24
TORSDOF 5
ENDMDL
MODEL 6
REMARK VINA RESULT:      -8.6      2.746      7.148
REMARK  5 active torsions:
REMARK  status: ('A' for Active; 'I' for Inactive)
REMARK    1  A    between atoms: C_4  and  C_5 
REMARK       I    between atoms: N_6  and  C_7 
REMARK    2  A    between atoms: C_7  and  C_8 
REMARK    3  A    between atoms: C_8  and  C_9 
REMARK    4  A    between atoms: C_11  and  O_12 
REMARK    5  A    between atoms: C_14  and  O_15 
ROOT
HETATM    1  C   UNL     1      41.596 -16.513   3.768  1.00  0.00     0.189 C 
HETATM    2  N   UNL     1      42.277 -16.226   2.482  1.00  0.00    -0.336 N 
HETATM    3  C   UNL     1      41.854 -16.912   1.358  1.00  0.00     0.225 C 
HETATM    4  O   UNL     1      41.153 -17.925   1.434  1.00  0.00    -0.273 OA
HETATM    5  C   UNL     1      43.322 -15.178   2.508  1.00  0.00     0.132 C 
HETATM    6  C   UNL     1      42.751 -13.798   2.866  1.00  0.00     0.061 C 
HETATM    7  C   UNL     1      41.744 -13.927   3.955  1.00  0.00    -0.019 A 
HETATM    8  C   UNL     1      41.235 -15.155   4.341  1.00  0.00     0.046 A 
HETATM    9  N   UNL     1      40.256 -14.918   5.271  1.00  0.00    -0.356 N 
HETATM   10  H   UNL     1      39.663 -15.614   5.699  1.00  0.00     0.166 HD
HETATM   11  C   UNL     1      40.150 -13.566   5.517  1.00  0.00     0.043 A 
HETATM   12  C   UNL     1      41.081 -12.918   4.703  1.00  0.00    -0.001 A 
HETATM   13  C   UNL     1      39.290 -12.872   6.376  1.00  0.00     0.030 A 
HETATM   14  C   UNL     1      39.389 -11.476   6.404  1.00  0.00     0.002 A 
HETATM   15  C   UNL     1      40.311 -10.805   5.604  1.00  0.00     0.001 A 
HETATM   16  C   UNL     1      41.161 -11.513   4.748  1.00  0.00     0.014 A 
ENDROOT
BRANCH   1  17
HETATM   17  C   UNL     1      42.394 -17.415   4.728  1.00  0.00     0.063 A 
HETATM   18  N   UNL     1      42.498 -17.076   6.044  1.00  0.00    -0.256 NA
HETATM   19  C   UNL     1      43.238 -17.868   6.859  1.00  0.00     0.031 A 
HETATM   20  C   UNL     1      43.382 -17.448   8.290  1.00  0.00     0.070 C 
HETATM   21  C   UNL     1      43.883 -19.015   6.412  1.00  0.00     0.027 A 
HETATM   22  C   UNL     1      43.773 -19.361   5.075  1.00  0.00     0.004 A 
HETATM   23  C   UNL     1      43.033 -18.550   4.221  1.00  0.00     0.030 A 
ENDBRANCH   1  17
BRANCH   3  24
HETATM   24  C   UNL     1      42.150 -16.302  -0.002  1.00  0.00     0.141 C 
BRANCH  24  25
HETATM   25  C   UNL     1      41.081 -15.483  -0.688  1.00  0.00    -0.047 A 
HETATM   26  C   UNL     1      40.223 -14.597  -0.024  1.00  0.00     0.047 A 
HETATM   27  C   UNL     1      39.215 -13.918  -0.728  1.00  0.00     0.102 A 
HETATM   28  C   UNL     1      39.081 -14.097  -2.119  1.00  0.00     0.101 A 
HETATM   29  C   UNL     1      39.956 -14.954  -2.785  1.00  0.00     0.040 A 
HETATM   30  C   UNL     1      40.940 -15.643  -2.075  1.00  0.00     0.010 A 
BRANCH  27  31
HETATM   31  O   UNL     1      38.323 -13.051  -0.145  1.00  0.00    -0.353 OA
HETATM   32  C   UNL     1      37.387 -13.614   0.764  1.00  0.00     0.210 C 
ENDBRANCH  27  31
BRANCH  28  33
HETATM   33  O   UNL     1      38.070 -13.395  -2.730  1.00  0.00    -0.353 OA
HETATM   34  C   UNL     1      37.347 -14.055  -3.759  1.00  0.00     0.210 C 
ENDBRANCH  28  33
ENDBRANCH  24  25
ENDBRANCH   3  24
TORSDOF 5
ENDMDL
MODEL 7
REMARK VINA RESULT:      -8.5      1.731      2.734
REMARK  5 active torsions:
REMARK  status: ('A' for Active; 'I' for Inactive)
REMARK    1  A    between atoms: C_4  and  C_5 
REMARK       I    between atoms: N_6  and  C_7 
REMARK    2  A    between atoms: C_7  and  C_8 
REMARK    3  A    between atoms: C_8  and  C_9 
REMARK    4  A    between atoms: C_11  and  O_12 
REMARK    5  A    between atoms: C_14  and  O_15 
ROOT
HETATM    1  C   UNL     1      41.799 -14.093   0.866  1.00  0.00     0.189 C 
HETATM    2  N   UNL     1      41.295 -15.375   1.416  1.00  0.00    -0.336 N 
HETATM    3  C   UNL     1      42.223 -16.344   1.752  1.00  0.00     0.225 C 
HETATM    4  O   UNL     1      43.392 -16.297   1.358  1.00  0.00    -0.273 OA
HETATM    5  C   UNL     1      39.833 -15.481   1.611  1.00  0.00     0.132 C 
HETATM    6  C   UNL     1      39.311 -14.478   2.650  1.00  0.00     0.061 C 
HETATM    7  C   UNL     1      39.985 -13.161   2.474  1.00  0.00    -0.019 A 
HETATM    8  C   UNL     1      41.103 -13.012   1.672  1.00  0.00     0.046 A 
HETATM    9  N   UNL     1      41.543 -11.722   1.819  1.00  0.00    -0.356 N 
HETATM   10  H   UNL     1      42.373 -11.327   1.403  1.00  0.00     0.166 HD
HETATM   11  C   UNL     1      40.709 -11.029   2.671  1.00  0.00     0.043 A 
HETATM   12  C   UNL     1      39.715 -11.913   3.094  1.00  0.00    -0.001 A 
HETATM   13  C   UNL     1      40.774  -9.702   3.112  1.00  0.00     0.030 A 
HETATM   14  C   UNL     1      39.791  -9.269   4.009  1.00  0.00     0.002 A 
HETATM   15  C   UNL     1      38.787 -10.129   4.446  1.00  0.00     0.001 A 
HETATM   16  C   UNL     1      38.738 -11.454   3.998  1.00  0.00     0.014 A 
ENDROOT
BRANCH   1  17
HETATM   17  C   UNL     1      41.645 -13.945  -0.659  1.00  0.00     0.063 A 
HETATM   18  N   UNL     1      40.867 -14.827  -1.349  1.00  0.00    -0.256 NA
HETATM   19  C   UNL     1      40.780 -14.695  -2.696  1.00  0.00     0.031 A 
HETATM   20  C   UNL     1      39.962 -15.707  -3.440  1.00  0.00     0.070 C 
HETATM   21  C   UNL     1      41.438 -13.693  -3.399  1.00  0.00     0.027 A 
HETATM   22  C   UNL     1      42.225 -12.795  -2.697  1.00  0.00     0.004 A 
HETATM   23  C   UNL     1      42.341 -12.926  -1.317  1.00  0.00     0.030 A 
ENDBRANCH   1  17
BRANCH   3  24
HETATM   24  C   UNL     1      41.809 -17.411   2.752  1.00  0.00     0.141 C 
BRANCH  24  25
HETATM   25  C   UNL     1      42.838 -18.409   3.229  1.00  0.00    -0.047 A 
HETATM   26  C   UNL     1      43.331 -19.463   2.450  1.00  0.00     0.047 A 
HETATM   27  C   UNL     1      44.243 -20.384   2.990  1.00  0.00     0.102 A 
HETATM   28  C   UNL     1      44.699 -20.234   4.314  1.00  0.00     0.101 A 
HETATM   29  C   UNL     1      44.233 -19.166   5.080  1.00  0.00     0.040 A 
HETATM   30  C   UNL     1      43.308 -18.269   4.545  1.00  0.00     0.010 A 
BRANCH  27  31
HETATM   31  O   UNL     1      44.755 -21.454   2.296  1.00  0.00    -0.353 OA
HETATM   32  C   UNL     1      43.931 -22.009   1.280  1.00  0.00     0.210 C 
ENDBRANCH  27  31
BRANCH  28  33
HETATM   33  O   UNL     1      45.590 -21.178   4.764  1.00  0.00    -0.353 OA
HETATM   34  C   UNL     1      45.054 -22.354   5.353  1.00  0.00     0.210 C 
ENDBRANCH  28  33
ENDBRANCH  24  25
ENDBRANCH   3  24
TORSDOF 5
ENDMDL
MODEL 8
REMARK VINA RESULT:      -8.4      2.944      8.302
REMARK  5 active torsions:
REMARK  status: ('A' for Active; 'I' for Inactive)
REMARK    1  A    between atoms: C_4  and  C_5 
REMARK       I    between atoms: N_6  and  C_7 
REMARK    2  A    between atoms: C_7  and  C_8 
REMARK    3  A    between atoms: C_8  and  C_9 
REMARK    4  A    between atoms: C_11  and  O_12 
REMARK    5  A    between atoms: C_14  and  O_15 
ROOT
HETATM    1  C   UNL     1      42.171 -14.974   2.818  1.00  0.00     0.189 C 
HETATM    2  N   UNL     1      41.619 -14.818   1.450  1.00  0.00    -0.336 N 
HETATM    3  C   UNL     1      42.028 -13.724   0.708  1.00  0.00     0.225 C 
HETATM    4  O   UNL     1      42.590 -12.755   1.225  1.00  0.00    -0.273 OA
HETATM    5  C   UNL     1      40.714 -15.888   0.977  1.00  0.00     0.132 C 
HETATM    6  C   UNL     1      41.427 -17.244   0.866  1.00  0.00     0.061 C 
HETATM    7  C   UNL     1      42.334 -17.443   2.029  1.00  0.00    -0.019 A 
HETATM    8  C   UNL     1      42.658 -16.408   2.891  1.00  0.00     0.046 A 
HETATM    9  N   UNL     1      43.595 -16.887   3.771  1.00  0.00    -0.356 N 
HETATM   10  H   UNL     1      44.066 -16.352   4.485  1.00  0.00     0.166 HD
HETATM   11  C   UNL     1      43.852 -18.217   3.515  1.00  0.00     0.043 A 
HETATM   12  C   UNL     1      43.066 -18.594   2.425  1.00  0.00    -0.001 A 
HETATM   13  C   UNL     1      44.732 -19.102   4.150  1.00  0.00     0.030 A 
HETATM   14  C   UNL     1      44.806 -20.409   3.655  1.00  0.00     0.002 A 
HETATM   15  C   UNL     1      44.032 -20.812   2.569  1.00  0.00     0.001 A 
HETATM   16  C   UNL     1      43.159 -19.913   1.944  1.00  0.00     0.014 A 
ENDROOT
BRANCH   1  17
HETATM   17  C   UNL     1      41.203 -14.575   3.949  1.00  0.00     0.063 A 
HETATM   18  N   UNL     1      40.553 -13.379   3.892  1.00  0.00    -0.256 NA
HETATM   19  C   UNL     1      39.737 -13.037   4.920  1.00  0.00     0.031 A 
HETATM   20  C   UNL     1      39.073 -11.695   4.863  1.00  0.00     0.070 C 
HETATM   21  C   UNL     1      39.525 -13.861   6.020  1.00  0.00     0.027 A 
HETATM   22  C   UNL     1      40.184 -15.079   6.075  1.00  0.00     0.004 A 
HETATM   23  C   UNL     1      41.039 -15.437   5.038  1.00  0.00     0.030 A 
ENDBRANCH   1  17
BRANCH   3  24
HETATM   24  C   UNL     1      41.903 -13.803  -0.804  1.00  0.00     0.141 C 
BRANCH  24  25
HETATM   25  C   UNL     1      40.565 -13.517  -1.445  1.00  0.00    -0.047 A 
HETATM   26  C   UNL     1      39.891 -14.408  -2.290  1.00  0.00     0.047 A 
HETATM   27  C   UNL     1      38.678 -14.040  -2.895  1.00  0.00     0.102 A 
HETATM   28  C   UNL     1      38.108 -12.780  -2.626  1.00  0.00     0.101 A 
HETATM   29  C   UNL     1      38.762 -11.905  -1.760  1.00  0.00     0.040 A 
HETATM   30  C   UNL     1      39.980 -12.268  -1.182  1.00  0.00     0.010 A 
BRANCH  27  31
HETATM   31  O   UNL     1      37.970 -14.850  -3.750  1.00  0.00    -0.353 OA
HETATM   32  C   UNL     1      38.635 -16.011  -4.226  1.00  0.00     0.210 C 
ENDBRANCH  27  31
BRANCH  28  33
HETATM   33  O   UNL     1      36.921 -12.500  -3.257  1.00  0.00    -0.353 OA
HETATM   34  C   UNL     1      36.188 -11.373  -2.799  1.00  0.00     0.210 C 
ENDBRANCH  28  33
ENDBRANCH  24  25
ENDBRANCH   3  24
TORSDOF 5
ENDMDL
MODEL 9
REMARK VINA RESULT:      -8.4      3.189      7.791
REMARK  5 active torsions:
REMARK  status: ('A' for Active; 'I' for Inactive)
REMARK    1  A    between atoms: C_4  and  C_5 
REMARK       I    between atoms: N_6  and  C_7 
REMARK    2  A    between atoms: C_7  and  C_8 
REMARK    3  A    between atoms: C_8  and  C_9 
REMARK    4  A    between atoms: C_11  and  O_12 
REMARK    5  A    between atoms: C_14  and  O_15 
ROOT
HETATM    1  C   UNL     1      42.638 -15.107   2.841  1.00  0.00     0.189 C 
HETATM    2  N   UNL     1      42.247 -14.704   4.214  1.00  0.00    -0.336 N 
HETATM    3  C   UNL     1      43.108 -13.879   4.916  1.00  0.00     0.225 C 
HETATM    4  O   UNL     1      44.278 -13.705   4.567  1.00  0.00    -0.273 OA
HETATM    5  C   UNL     1      40.932 -15.181   4.694  1.00  0.00     0.132 C 
HETATM    6  C   UNL     1      39.770 -14.610   3.867  1.00  0.00     0.061 C 
HETATM    7  C   UNL     1      40.124 -14.609   2.420  1.00  0.00    -0.019 A 
HETATM    8  C   UNL     1      41.418 -14.830   1.982  1.00  0.00     0.046 A 
HETATM    9  N   UNL     1      41.427 -14.646   0.623  1.00  0.00    -0.356 N 
HETATM   10  H   UNL     1      42.239 -14.684   0.025  1.00  0.00     0.166 HD
HETATM   11  C   UNL     1      40.158 -14.347   0.175  1.00  0.00     0.043 A 
HETATM   12  C   UNL     1      39.316 -14.323   1.288  1.00  0.00    -0.001 A 
HETATM   13  C   UNL     1      39.702 -14.077  -1.120  1.00  0.00     0.030 A 
HETATM   14  C   UNL     1      38.344 -13.775  -1.279  1.00  0.00     0.002 A 
HETATM   15  C   UNL     1      37.481 -13.746  -0.186  1.00  0.00     0.001 A 
HETATM   16  C   UNL     1      37.955 -14.016   1.103  1.00  0.00     0.014 A 
ENDROOT
BRANCH   1  17
HETATM   17  C   UNL     1      43.182 -16.543   2.725  1.00  0.00     0.063 A 
HETATM   18  N   UNL     1      43.519 -17.232   3.852  1.00  0.00    -0.256 NA
HETATM   19  C   UNL     1      44.031 -18.481   3.717  1.00  0.00     0.031 A 
HETATM   20  C   UNL     1      44.443 -19.199   4.966  1.00  0.00     0.070 C 
HETATM   21  C   UNL     1      44.214 -19.091   2.482  1.00  0.00     0.027 A 
HETATM   22  C   UNL     1      43.867 -18.392   1.337  1.00  0.00     0.004 A 
HETATM   23  C   UNL     1      43.358 -17.103   1.456  1.00  0.00     0.030 A 
ENDBRANCH   1  17
BRANCH   3  24
HETATM   24  C   UNL     1      42.534 -13.061   6.061  1.00  0.00     0.141 C 
BRANCH  24  25
HETATM   25  C   UNL     1      41.528 -11.976   5.756  1.00  0.00    -0.047 A 
HETATM   26  C   UNL     1      40.607 -11.475   6.684  1.00  0.00     0.047 A 
HETATM   27  C   UNL     1      39.663 -10.506   6.303  1.00  0.00     0.102 A 
HETATM   28  C   UNL     1      39.660 -10.003   4.987  1.00  0.00     0.101 A 
HETATM   29  C   UNL     1      40.599 -10.478   4.071  1.00  0.00     0.040 A 
HETATM   30  C   UNL     1      41.517 -11.458   4.451  1.00  0.00     0.010 A 
BRANCH  27  31
HETATM   31  O   UNL     1      38.715  -9.983   7.149  1.00  0.00    -0.353 OA
HETATM   32  C   UNL     1      39.194  -9.259   8.273  1.00  0.00     0.210 C 
ENDBRANCH  27  31
BRANCH  28  33
HETATM   33  O   UNL     1      38.706  -9.058   4.697  1.00  0.00    -0.353 OA
HETATM   34  C   UNL     1      37.895  -9.280   3.552  1.00  0.00     0.210 C 
ENDBRANCH  28  33
ENDBRANCH  24  25
ENDBRANCH   3  24
TORSDOF 5
ENDMDL
MODEL 10
REMARK VINA RESULT:      -8.3      4.223      7.560
REMARK  5 active torsions:
REMARK  status: ('A' for Active; 'I' for Inactive)
REMARK    1  A    between atoms: C_4  and  C_5 
REMARK       I    between atoms: N_6  and  C_7 
REMARK    2  A    between atoms: C_7  and  C_8 
REMARK    3  A    between atoms: C_8  and  C_9 
REMARK    4  A    between atoms: C_11  and  O_12 
REMARK    5  A    between atoms: C_14  and  O_15 
ROOT
HETATM    1  C   UNL     1      39.940 -13.664   4.379  1.00  0.00     0.189 C 
HETATM    2  N   UNL     1      40.431 -12.303   4.705  1.00  0.00    -0.336 N 
HETATM    3  C   UNL     1      39.513 -11.377   5.168  1.00  0.00     0.225 C 
HETATM    4  O   UNL     1      38.297 -11.546   5.051  1.00  0.00    -0.273 OA
HETATM    5  C   UNL     1      41.885 -12.072   4.557  1.00  0.00     0.132 C 
HETATM    6  C   UNL     1      42.710 -12.934   5.525  1.00  0.00     0.061 C 
HETATM    7  C   UNL     1      42.139 -14.307   5.603  1.00  0.00    -0.019 A 
HETATM    8  C   UNL     1      40.891 -14.612   5.086  1.00  0.00     0.046 A 
HETATM    9  N   UNL     1      40.615 -15.911   5.425  1.00  0.00    -0.356 N 
HETATM   10  H   UNL     1      39.754 -16.403   5.236  1.00  0.00     0.166 HD
HETATM   11  C   UNL     1      41.674 -16.459   6.117  1.00  0.00     0.043 A 
HETATM   12  C   UNL     1      42.651 -15.469   6.238  1.00  0.00    -0.001 A 
HETATM   13  C   UNL     1      41.829 -17.740   6.658  1.00  0.00     0.030 A 
HETATM   14  C   UNL     1      43.020 -18.015   7.341  1.00  0.00     0.002 A 
HETATM   15  C   UNL     1      44.011 -17.047   7.476  1.00  0.00     0.001 A 
HETATM   16  C   UNL     1      43.839 -15.769   6.931  1.00  0.00     0.014 A 
ENDROOT
BRANCH   1  17
HETATM   17  C   UNL     1      39.772 -13.941   2.874  1.00  0.00     0.063 A 
HETATM   18  N   UNL     1      40.559 -14.873   2.266  1.00  0.00    -0.256 NA
HETATM   19  C   UNL     1      40.415 -15.069   0.932  1.00  0.00     0.031 A 
HETATM   20  C   UNL     1      41.327 -16.061   0.274  1.00  0.00     0.070 C 
HETATM   21  C   UNL     1      39.491 -14.372   0.162  1.00  0.00     0.027 A 
HETATM   22  C   UNL     1      38.689 -13.427   0.782  1.00  0.00     0.004 A 
HETATM   23  C   UNL     1      38.835 -13.200   2.146  1.00  0.00     0.030 A 
ENDBRANCH   1  17
BRANCH   3  24
HETATM   24  C   UNL     1      40.035 -10.195   5.967  1.00  0.00     0.141 C 
BRANCH  24  25
HETATM   25  C   UNL     1      40.427 -10.402   7.411  1.00  0.00    -0.047 A 
HETATM   26  C   UNL     1      41.736 -10.282   7.896  1.00  0.00     0.047 A 
HETATM   27  C   UNL     1      42.026 -10.550   9.244  1.00  0.00     0.102 A 
HETATM   28  C   UNL     1      40.993 -10.908  10.131  1.00  0.00     0.101 A 
HETATM   29  C   UNL     1      39.685 -10.996   9.656  1.00  0.00     0.040 A 
HETATM   30  C   UNL     1      39.408 -10.752   8.311  1.00  0.00     0.010 A 
BRANCH  27  31
HETATM   31  O   UNL     1      43.286 -10.474   9.787  1.00  0.00    -0.353 OA
HETATM   32  C   UNL     1      44.250 -11.395   9.295  1.00  0.00     0.210 C 
ENDBRANCH  27  31
BRANCH  28  33
HETATM   33  O   UNL     1      41.362 -11.153  11.431  1.00  0.00    -0.353 OA
HETATM   34  C   UNL     1      40.326 -11.433  12.362  1.00  0.00     0.210 C 
ENDBRANCH  28  33
ENDBRANCH  24  25
ENDBRANCH   3  24
TORSDOF 5
ENDMDL
