MODEL 1
REMARK VINA RESULT:      -8.0      0.000      0.000
REMARK  7 active torsions:
REMARK  status: ('A' for Active; 'I' for Inactive)
REMARK    1  A    between atoms: C_6  and  C_7 
REMARK       I    between atoms: C_7  and  N_8 
REMARK    2  A    between atoms: N_8  and  N_9 
REMARK       I    between atoms: N_9  and  C_10 
REMARK    3  A    between atoms: C_10  and  C_11 
REMARK    4  A    between atoms: C_11  and  C_12 
REMARK    5  A    between atoms: C_12  and  C_13 
REMARK    6  A    between atoms: C_13  and  O_14 
REMARK    7  A    between atoms: O_14  and  C_15 
ROOT
HETATM    1  N   UNL     1      43.894 -12.743   8.422  1.00  0.00    -0.267 N 
HETATM    2  C   UNL     1      45.195 -12.985   8.027  1.00  0.00     0.236 C 
HETATM    3  O   UNL     1      46.170 -12.450   8.546  1.00  0.00    -0.272 OA
HETATM    4  H   UNL     1      43.110 -13.318   8.116  1.00  0.00     0.190 HD
ENDROOT
BRANCH   2   5
HETATM    5  C   UNL     1      45.276 -13.955   6.866  1.00  0.00     0.107 C 
BRANCH   5   6
HETATM    6  C   UNL     1      44.165 -15.000   6.856  1.00  0.00     0.036 C 
BRANCH   6   7
HETATM    7  C   UNL     1      43.483 -15.127   5.492  1.00  0.00     0.176 C 
BRANCH   7   8
HETATM    8  O   UNL     1      42.736 -16.340   5.500  1.00  0.00    -0.349 OA
BRANCH   8   9
HETATM    9  C   UNL     1      43.156 -17.408   4.757  1.00  0.00     0.090 A 
HETATM   10  C   UNL     1      44.188 -18.328   4.998  1.00  0.00     0.069 A 
HETATM   11 CL   UNL     1      45.204 -18.336   6.397  1.00  0.00    -0.081 Cl
HETATM   12  C   UNL     1      44.421 -19.373   4.090  1.00  0.00     0.050 A 
HETATM   13  C   UNL     1      43.626 -19.515   2.956  1.00  0.00     0.035 A 
HETATM   14 CL   UNL     1      43.916 -20.811   1.862  1.00  0.00    -0.084 Cl
HETATM   15  C   UNL     1      42.591 -18.623   2.712  1.00  0.00     0.026 A 
HETATM   16  C   UNL     1      42.360 -17.581   3.611  1.00  0.00     0.040 A 
ENDBRANCH   8   9
ENDBRANCH   7   8
ENDBRANCH   6   7
ENDBRANCH   5   6
ENDBRANCH   2   5
BRANCH   1  17
HETATM   17  N   UNL     1      43.675 -11.958   9.555  1.00  0.00    -0.262 N 
HETATM   18  C   UNL     1      43.064 -10.727   9.425  1.00  0.00     0.290 C 
HETATM   19  O   UNL     1      42.754 -10.248   8.334  1.00  0.00    -0.264 OA
HETATM   20  H   UNL     1      43.830 -12.360  10.480  1.00  0.00     0.190 HD
BRANCH  18  21
HETATM   21  C   UNL     1      42.825 -10.051  10.706  1.00  0.00     0.147 A 
HETATM   22  N   UNL     1      41.915  -9.064  10.839  1.00  0.00    -0.169 NA
HETATM   23  N   UNL     1      41.988  -8.720  12.136  1.00  0.00    -0.282 N 
HETATM   24  C   UNL     1      42.906  -9.441  12.847  1.00  0.00     0.026 A 
HETATM   25  H   UNL     1      41.377  -7.981  12.471  1.00  0.00     0.189 HD
HETATM   26  C   UNL     1      43.147  -9.232  14.291  1.00  0.00     0.070 C 
HETATM   27  C   UNL     1      43.470 -10.312  11.942  1.00  0.00     0.065 A 
ENDBRANCH  18  21
ENDBRANCH   1  17
TORSDOF 7
ENDMDL
MODEL 2
REMARK VINA RESULT:      -7.8      2.474      3.424
REMARK  7 active torsions:
REMARK  status: ('A' for Active; 'I' for Inactive)
REMARK    1  A    between atoms: C_6  and  C_7 
REMARK       I    between atoms: C_7  and  N_8 
REMARK    2  A    between atoms: N_8  and  N_9 
REMARK       I    between atoms: N_9  and  C_10 
REMARK    3  A    between atoms: C_10  and  C_11 
REMARK    4  A    between atoms: C_11  and  C_12 
REMARK    5  A    between atoms: C_12  and  C_13 
REMARK    6  A    between atoms: C_13  and  O_14 
REMARK    7  A    between atoms: O_14  and  C_15 
ROOT
HETATM    1  N   UNL     1      43.830 -15.140   7.198  1.00  0.00    -0.267 N 
HETATM    2  C   UNL     1      43.552 -16.413   7.655  1.00  0.00     0.236 C 
HETATM    3  O   UNL     1      43.562 -16.722   8.842  1.00  0.00    -0.272 OA
HETATM    4  H   UNL     1      43.645 -14.846   6.239  1.00  0.00     0.190 HD
ENDROOT
BRANCH   2   5
HETATM    5  C   UNL     1      43.269 -17.384   6.527  1.00  0.00     0.107 C 
BRANCH   5   6
HETATM    6  C   UNL     1      41.900 -17.197   5.881  1.00  0.00     0.036 C 
BRANCH   6   7
HETATM    7  C   UNL     1      41.974 -16.478   4.532  1.00  0.00     0.176 C 
BRANCH   7   8
HETATM    8  O   UNL     1      43.196 -16.861   3.909  1.00  0.00    -0.349 OA
BRANCH   8   9
HETATM    9  C   UNL     1      43.282 -18.053   3.246  1.00  0.00     0.090 A 
HETATM   10  C   UNL     1      42.564 -18.525   2.136  1.00  0.00     0.069 A 
HETATM   11 CL   UNL     1      41.355 -17.632   1.284  1.00  0.00    -0.081 Cl
HETATM   12  C   UNL     1      42.849 -19.794   1.605  1.00  0.00     0.050 A 
HETATM   13  C   UNL     1      43.850 -20.584   2.161  1.00  0.00     0.035 A 
HETATM   14 CL   UNL     1      44.196 -22.129   1.488  1.00  0.00    -0.084 Cl
HETATM   15  C   UNL     1      44.581 -20.125   3.249  1.00  0.00     0.026 A 
HETATM   16  C   UNL     1      44.296 -18.867   3.781  1.00  0.00     0.040 A 
ENDBRANCH   8   9
ENDBRANCH   7   8
ENDBRANCH   6   7
ENDBRANCH   5   6
ENDBRANCH   2   5
BRANCH   1  17
HETATM   17  N   UNL     1      43.997 -14.116   8.132  1.00  0.00    -0.262 N 
HETATM   18  C   UNL     1      45.052 -13.236   8.001  1.00  0.00     0.290 C 
HETATM   19  O   UNL     1      45.906 -13.347   7.121  1.00  0.00    -0.264 OA
HETATM   20  H   UNL     1      43.259 -13.936   8.814  1.00  0.00     0.190 HD
BRANCH  18  21
HETATM   21  C   UNL     1      45.054 -12.166   9.005  1.00  0.00     0.147 A 
HETATM   22  N   UNL     1      45.938 -11.148   8.968  1.00  0.00    -0.169 NA
HETATM   23  N   UNL     1      45.614 -10.390  10.029  1.00  0.00    -0.282 N 
HETATM   24  C   UNL     1      44.558 -10.874  10.751  1.00  0.00     0.026 A 
HETATM   25  H   UNL     1      46.156  -9.549  10.202  1.00  0.00     0.189 HD
HETATM   26  C   UNL     1      44.030 -10.196  11.954  1.00  0.00     0.070 C 
HETATM   27  C   UNL     1      44.176 -12.032  10.111  1.00  0.00     0.065 A 
ENDBRANCH  18  21
ENDBRANCH   1  17
TORSDOF 7
ENDMDL
MODEL 3
REMARK VINA RESULT:      -7.8      2.015      3.110
REMARK  7 active torsions:
REMARK  status: ('A' for Active; 'I' for Inactive)
REMARK    1  A    between atoms: C_6  and  C_7 
REMARK       I    between atoms: C_7  and  N_8 
REMARK    2  A    between atoms: N_8  and  N_9 
REMARK       I    between atoms: N_9  and  C_10 
REMARK    3  A    between atoms: C_10  and  C_11 
REMARK    4  A    between atoms: C_11  and  C_12 
REMARK    5  A    between atoms: C_12  and  C_13 
REMARK    6  A    between atoms: C_13  and  O_14 
REMARK    7  A    between atoms: O_14  and  C_15 
ROOT
HETATM    1  N   UNL     1      43.398 -13.928   5.945  1.00  0.00    -0.267 N 
HETATM    2  C   UNL     1      42.535 -13.380   5.016  1.00  0.00     0.236 C 
HETATM    3  O   UNL     1      41.753 -12.471   5.273  1.00  0.00    -0.272 OA
HETATM    4  H   UNL     1      44.163 -14.550   5.687  1.00  0.00     0.190 HD
ENDROOT
BRANCH   2   5
HETATM    5  C   UNL     1      42.641 -14.051   3.662  1.00  0.00     0.107 C 
BRANCH   5   6
HETATM    6  C   UNL     1      41.540 -15.071   3.390  1.00  0.00     0.036 C 
BRANCH   6   7
HETATM    7  C   UNL     1      41.759 -16.393   4.128  1.00  0.00     0.176 C 
BRANCH   7   8
HETATM    8  O   UNL     1      43.152 -16.686   4.075  1.00  0.00    -0.349 OA
BRANCH   8   9
HETATM    9  C   UNL     1      43.577 -17.936   3.722  1.00  0.00     0.090 A 
HETATM   10  C   UNL     1      44.350 -18.864   4.436  1.00  0.00     0.069 A 
HETATM   11 CL   UNL     1      44.950 -18.631   6.041  1.00  0.00    -0.081 Cl
HETATM   12  C   UNL     1      44.644 -20.115   3.869  1.00  0.00     0.050 A 
HETATM   13  C   UNL     1      44.161 -20.450   2.608  1.00  0.00     0.035 A 
HETATM   14 CL   UNL     1      44.517 -21.993   1.935  1.00  0.00    -0.084 Cl
HETATM   15  C   UNL     1      43.380 -19.550   1.896  1.00  0.00     0.026 A 
HETATM   16  C   UNL     1      43.092 -18.304   2.455  1.00  0.00     0.040 A 
ENDBRANCH   8   9
ENDBRANCH   7   8
ENDBRANCH   6   7
ENDBRANCH   5   6
ENDBRANCH   2   5
BRANCH   1  17
HETATM   17  N   UNL     1      43.490 -13.332   7.204  1.00  0.00    -0.262 N 
HETATM   18  C   UNL     1      44.731 -13.080   7.752  1.00  0.00     0.290 C 
HETATM   19  O   UNL     1      45.782 -13.417   7.206  1.00  0.00    -0.264 OA
HETATM   20  H   UNL     1      42.648 -12.954   7.641  1.00  0.00     0.190 HD
BRANCH  18  21
HETATM   21  C   UNL     1      44.674 -12.377   9.040  1.00  0.00     0.147 A 
HETATM   22  N   UNL     1      45.448 -12.731  10.086  1.00  0.00    -0.169 NA
HETATM   23  N   UNL     1      45.114 -11.860  11.053  1.00  0.00    -0.282 N 
HETATM   24  C   UNL     1      44.157 -10.959  10.678  1.00  0.00     0.026 A 
HETATM   25  H   UNL     1      45.583 -11.937  11.950  1.00  0.00     0.189 HD
HETATM   26  C   UNL     1      43.645  -9.908  11.583  1.00  0.00     0.070 C 
HETATM   27  C   UNL     1      43.847 -11.274   9.374  1.00  0.00     0.065 A 
ENDBRANCH  18  21
ENDBRANCH   1  17
TORSDOF 7
ENDMDL
MODEL 4
REMARK VINA RESULT:      -7.5      5.704      9.024
REMARK  7 active torsions:
REMARK  status: ('A' for Active; 'I' for Inactive)
REMARK    1  A    between atoms: C_6  and  C_7 
REMARK       I    between atoms: C_7  and  N_8 
REMARK    2  A    between atoms: N_8  and  N_9 
REMARK       I    between atoms: N_9  and  C_10 
REMARK    3  A    between atoms: C_10  and  C_11 
REMARK    4  A    between atoms: C_11  and  C_12 
REMARK    5  A    between atoms: C_12  and  C_13 
REMARK    6  A    between atoms: C_13  and  O_14 
REMARK    7  A    between atoms: O_14  and  C_15 
ROOT
HETATM    1  N   UNL     1      43.443 -16.054   2.658  1.00  0.00    -0.267 N 
HETATM    2  C   UNL     1      42.154 -15.585   2.501  1.00  0.00     0.236 C 
HETATM    3  O   UNL     1      41.160 -16.302   2.568  1.00  0.00    -0.272 OA
HETATM    4  H   UNL     1      44.243 -15.435   2.782  1.00  0.00     0.190 HD
ENDROOT
BRANCH   2   5
HETATM    5  C   UNL     1      42.110 -14.100   2.205  1.00  0.00     0.107 C 
BRANCH   5   6
HETATM    6  C   UNL     1      42.428 -13.221   3.411  1.00  0.00     0.036 C 
BRANCH   6   7
HETATM    7  C   UNL     1      41.417 -13.386   4.548  1.00  0.00     0.176 C 
BRANCH   7   8
HETATM    8  O   UNL     1      42.155 -13.537   5.757  1.00  0.00    -0.349 OA
BRANCH   8   9
HETATM    9  C   UNL     1      42.662 -14.758   6.102  1.00  0.00     0.090 A 
HETATM   10  C   UNL     1      43.953 -15.118   6.519  1.00  0.00     0.069 A 
HETATM   11 CL   UNL     1      45.269 -14.018   6.735  1.00  0.00    -0.081 Cl
HETATM   12  C   UNL     1      44.236 -16.453   6.849  1.00  0.00     0.050 A 
HETATM   13  C   UNL     1      43.241 -17.424   6.781  1.00  0.00     0.035 A 
HETATM   14 CL   UNL     1      43.602 -19.053   7.203  1.00  0.00    -0.084 Cl
HETATM   15  C   UNL     1      41.955 -17.082   6.386  1.00  0.00     0.026 A 
HETATM   16  C   UNL     1      41.673 -15.756   6.054  1.00  0.00     0.040 A 
ENDBRANCH   8   9
ENDBRANCH   7   8
ENDBRANCH   6   7
ENDBRANCH   5   6
ENDBRANCH   2   5
BRANCH   1  17
HETATM   17  N   UNL     1      43.628 -17.381   3.048  1.00  0.00    -0.262 N 
HETATM   18  C   UNL     1      43.839 -18.352   2.090  1.00  0.00     0.290 C 
HETATM   19  O   UNL     1      43.809 -18.114   0.882  1.00  0.00    -0.264 OA
HETATM   20  H   UNL     1      43.754 -17.600   4.037  1.00  0.00     0.190 HD
BRANCH  18  21
HETATM   21  C   UNL     1      44.099 -19.684   2.649  1.00  0.00     0.147 A 
HETATM   22  N   UNL     1      43.900 -20.813   1.937  1.00  0.00    -0.169 NA
HETATM   23  N   UNL     1      44.254 -21.800   2.778  1.00  0.00    -0.282 N 
HETATM   24  C   UNL     1      44.672 -21.358   4.003  1.00  0.00     0.026 A 
HETATM   25  H   UNL     1      44.187 -22.758   2.449  1.00  0.00     0.189 HD
HETATM   26  C   UNL     1      45.112 -22.272   5.079  1.00  0.00     0.070 C 
HETATM   27  C   UNL     1      44.577 -19.985   3.950  1.00  0.00     0.065 A 
ENDBRANCH  18  21
ENDBRANCH   1  17
TORSDOF 7
ENDMDL
MODEL 5
REMARK VINA RESULT:      -7.4      7.189     10.367
REMARK  7 active torsions:
REMARK  status: ('A' for Active; 'I' for Inactive)
REMARK    1  A    between atoms: C_6  and  C_7 
REMARK       I    between atoms: C_7  and  N_8 
REMARK    2  A    between atoms: N_8  and  N_9 
REMARK       I    between atoms: N_9  and  C_10 
REMARK    3  A    between atoms: C_10  and  C_11 
REMARK    4  A    between atoms: C_11  and  C_12 
REMARK    5  A    between atoms: C_12  and  C_13 
REMARK    6  A    between atoms: C_13  and  O_14 
REMARK    7  A    between atoms: O_14  and  C_15 
ROOT
HETATM    1  N   UNL     1      40.622 -14.883   0.664  1.00  0.00    -0.267 N 
HETATM    2  C   UNL     1      40.071 -15.160   1.899  1.00  0.00     0.236 C 
HETATM    3  O   UNL     1      38.867 -15.307   2.085  1.00  0.00    -0.272 OA
HETATM    4  H   UNL     1      41.623 -14.940   0.482  1.00  0.00     0.190 HD
ENDROOT
BRANCH   2   5
HETATM    5  C   UNL     1      41.114 -15.227   2.996  1.00  0.00     0.107 C 
BRANCH   5   6
HETATM    6  C   UNL     1      42.453 -14.603   2.614  1.00  0.00     0.036 C 
BRANCH   6   7
HETATM    7  C   UNL     1      43.634 -15.552   2.832  1.00  0.00     0.176 C 
BRANCH   7   8
HETATM    8  O   UNL     1      43.193 -16.589   3.703  1.00  0.00    -0.349 OA
BRANCH   8   9
HETATM    9  C   UNL     1      43.597 -17.878   3.492  1.00  0.00     0.090 A 
HETATM   10  C   UNL     1      44.329 -18.744   4.319  1.00  0.00     0.069 A 
HETATM   11 CL   UNL     1      44.892 -18.360   5.907  1.00  0.00    -0.081 Cl
HETATM   12  C   UNL     1      44.607 -20.052   3.891  1.00  0.00     0.050 A 
HETATM   13  C   UNL     1      44.149 -20.505   2.657  1.00  0.00     0.035 A 
HETATM   14 CL   UNL     1      44.486 -22.116   2.156  1.00  0.00    -0.084 Cl
HETATM   15  C   UNL     1      43.410 -19.666   1.835  1.00  0.00     0.026 A 
HETATM   16  C   UNL     1      43.136 -18.364   2.256  1.00  0.00     0.040 A 
ENDBRANCH   8   9
ENDBRANCH   7   8
ENDBRANCH   6   7
ENDBRANCH   5   6
ENDBRANCH   2   5
BRANCH   1  17
HETATM   17  N   UNL     1      39.792 -14.904  -0.458  1.00  0.00    -0.262 N 
HETATM   18  C   UNL     1      40.323 -14.655  -1.707  1.00  0.00     0.290 C 
HETATM   19  O   UNL     1      41.503 -14.346  -1.879  1.00  0.00    -0.264 OA
HETATM   20  H   UNL     1      38.835 -15.249  -0.366  1.00  0.00     0.190 HD
BRANCH  18  21
HETATM   21  C   UNL     1      39.352 -14.792  -2.798  1.00  0.00     0.147 A 
HETATM   22  N   UNL     1      39.640 -15.455  -3.937  1.00  0.00    -0.169 NA
HETATM   23  N   UNL     1      38.513 -15.367  -4.664  1.00  0.00    -0.282 N 
HETATM   24  C   UNL     1      37.510 -14.675  -4.046  1.00  0.00     0.026 A 
HETATM   25  H   UNL     1      38.498 -15.806  -5.580  1.00  0.00     0.189 HD
HETATM   26  C   UNL     1      36.183 -14.461  -4.662  1.00  0.00     0.070 C 
HETATM   27  C   UNL     1      38.028 -14.284  -2.831  1.00  0.00     0.065 A 
ENDBRANCH  18  21
ENDBRANCH   1  17
TORSDOF 7
ENDMDL
MODEL 6
REMARK VINA RESULT:      -7.2      7.755     10.245
REMARK  7 active torsions:
REMARK  status: ('A' for Active; 'I' for Inactive)
REMARK    1  A    between atoms: C_6  and  C_7 
REMARK       I    between atoms: C_7  and  N_8 
REMARK    2  A    between atoms: N_8  and  N_9 
REMARK       I    between atoms: N_9  and  C_10 
REMARK    3  A    between atoms: C_10  and  C_11 
REMARK    4  A    between atoms: C_11  and  C_12 
REMARK    5  A    between atoms: C_12  and  C_13 
REMARK    6  A    between atoms: C_13  and  O_14 
REMARK    7  A    between atoms: O_14  and  C_15 
ROOT
HETATM    1  N   UNL     1      41.774 -15.883  -0.644  1.00  0.00    -0.267 N 
HETATM    2  C   UNL     1      41.086 -15.902   0.553  1.00  0.00     0.236 C 
HETATM    3  O   UNL     1      40.560 -14.909   1.047  1.00  0.00    -0.272 OA
HETATM    4  H   UNL     1      42.050 -16.732  -1.135  1.00  0.00     0.190 HD
ENDROOT
BRANCH   2   5
HETATM    5  C   UNL     1      41.086 -17.273   1.198  1.00  0.00     0.107 C 
BRANCH   5   6
HETATM    6  C   UNL     1      41.502 -17.265   2.665  1.00  0.00     0.036 C 
BRANCH   6   7
HETATM    7  C   UNL     1      42.962 -16.855   2.866  1.00  0.00     0.176 C 
BRANCH   7   8
HETATM    8  O   UNL     1      43.284 -17.077   4.236  1.00  0.00    -0.349 OA
BRANCH   8   9
HETATM    9  C   UNL     1      43.719 -18.305   4.647  1.00  0.00     0.090 A 
HETATM   10  C   UNL     1      43.696 -18.895   5.920  1.00  0.00     0.069 A 
HETATM   11 CL   UNL     1      43.038 -18.163   7.341  1.00  0.00    -0.081 Cl
HETATM   12  C   UNL     1      44.186 -20.199   6.098  1.00  0.00     0.050 A 
HETATM   13  C   UNL     1      44.681 -20.921   5.016  1.00  0.00     0.035 A 
HETATM   14 CL   UNL     1      45.262 -22.524   5.249  1.00  0.00    -0.084 Cl
HETATM   15  C   UNL     1      44.696 -20.359   3.747  1.00  0.00     0.026 A 
HETATM   16  C   UNL     1      44.214 -19.061   3.570  1.00  0.00     0.040 A 
ENDBRANCH   8   9
ENDBRANCH   7   8
ENDBRANCH   6   7
ENDBRANCH   5   6
ENDBRANCH   2   5
BRANCH   1  17
HETATM   17  N   UNL     1      41.759 -14.712  -1.404  1.00  0.00    -0.262 N 
HETATM   18  C   UNL     1      41.286 -14.745  -2.700  1.00  0.00     0.290 C 
HETATM   19  O   UNL     1      40.928 -15.785  -3.252  1.00  0.00    -0.264 OA
HETATM   20  H   UNL     1      41.957 -13.819  -0.951  1.00  0.00     0.190 HD
BRANCH  18  21
HETATM   21  C   UNL     1      41.253 -13.428  -3.348  1.00  0.00     0.147 A 
HETATM   22  N   UNL     1      40.116 -12.903  -3.851  1.00  0.00    -0.169 NA
HETATM   23  N   UNL     1      40.492 -11.709  -4.339  1.00  0.00    -0.282 N 
HETATM   24  C   UNL     1      41.822 -11.439  -4.174  1.00  0.00     0.026 A 
HETATM   25  H   UNL     1      39.784 -11.125  -4.773  1.00  0.00     0.189 HD
HETATM   26  C   UNL     1      42.448 -10.180  -4.632  1.00  0.00     0.070 C 
HETATM   27  C   UNL     1      42.344 -12.542  -3.536  1.00  0.00     0.065 A 
ENDBRANCH  18  21
ENDBRANCH   1  17
TORSDOF 7
ENDMDL
MODEL 7
REMARK VINA RESULT:      -7.1      1.522      1.992
REMARK  7 active torsions:
REMARK  status: ('A' for Active; 'I' for Inactive)
REMARK    1  A    between atoms: C_6  and  C_7 
REMARK       I    between atoms: C_7  and  N_8 
REMARK    2  A    between atoms: N_8  and  N_9 
REMARK       I    between atoms: N_9  and  C_10 
REMARK    3  A    between atoms: C_10  and  C_11 
REMARK    4  A    between atoms: C_11  and  C_12 
REMARK    5  A    between atoms: C_12  and  C_13 
REMARK    6  A    between atoms: C_13  and  O_14 
REMARK    7  A    between atoms: O_14  and  C_15 
ROOT
HETATM    1  N   UNL     1      43.157 -12.661   7.220  1.00  0.00    -0.267 N 
HETATM    2  C   UNL     1      44.153 -13.589   6.989  1.00  0.00     0.236 C 
HETATM    3  O   UNL     1      45.152 -13.699   7.693  1.00  0.00    -0.272 OA
HETATM    4  H   UNL     1      42.254 -12.693   6.749  1.00  0.00     0.190 HD
ENDROOT
BRANCH   2   5
HETATM    5  C   UNL     1      43.887 -14.427   5.755  1.00  0.00     0.107 C 
BRANCH   5   6
HETATM    6  C   UNL     1      42.522 -15.109   5.754  1.00  0.00     0.036 C 
BRANCH   6   7
HETATM    7  C   UNL     1      42.247 -15.885   4.465  1.00  0.00     0.176 C 
BRANCH   7   8
HETATM    8  O   UNL     1      43.506 -16.290   3.933  1.00  0.00    -0.349 OA
BRANCH   8   9
HETATM    9  C   UNL     1      43.762 -17.614   3.713  1.00  0.00     0.090 A 
HETATM   10  C   UNL     1      43.894 -18.323   2.509  1.00  0.00     0.069 A 
HETATM   11 CL   UNL     1      43.788 -17.626   0.931  1.00  0.00    -0.081 Cl
HETATM   12  C   UNL     1      44.188 -19.696   2.533  1.00  0.00     0.050 A 
HETATM   13  C   UNL     1      44.364 -20.360   3.743  1.00  0.00     0.035 A 
HETATM   14 CL   UNL     1      44.739 -22.040   3.753  1.00  0.00    -0.084 Cl
HETATM   15  C   UNL     1      44.253 -19.670   4.942  1.00  0.00     0.026 A 
HETATM   16  C   UNL     1      43.957 -18.307   4.921  1.00  0.00     0.040 A 
ENDBRANCH   8   9
ENDBRANCH   7   8
ENDBRANCH   6   7
ENDBRANCH   5   6
ENDBRANCH   2   5
BRANCH   1  17
HETATM   17  N   UNL     1      43.214 -11.898   8.388  1.00  0.00    -0.262 N 
HETATM   18  C   UNL     1      42.340 -10.843   8.558  1.00  0.00     0.290 C 
HETATM   19  O   UNL     1      41.539 -10.495   7.690  1.00  0.00    -0.264 OA
HETATM   20  H   UNL     1      43.795 -12.215   9.165  1.00  0.00     0.190 HD
BRANCH  18  21
HETATM   21  C   UNL     1      42.460 -10.185   9.865  1.00  0.00     0.147 A 
HETATM   22  N   UNL     1      41.920  -8.973  10.111  1.00  0.00    -0.169 NA
HETATM   23  N   UNL     1      42.233  -8.727  11.394  1.00  0.00    -0.282 N 
HETATM   24  C   UNL     1      42.952  -9.726  11.988  1.00  0.00     0.026 A 
HETATM   25  H   UNL     1      41.920  -7.853  11.805  1.00  0.00     0.189 HD
HETATM   26  C   UNL     1      43.398  -9.666  13.396  1.00  0.00     0.070 C 
HETATM   27  C   UNL     1      43.120 -10.687  11.016  1.00  0.00     0.065 A 
ENDBRANCH  18  21
ENDBRANCH   1  17
TORSDOF 7
ENDMDL
MODEL 8
REMARK VINA RESULT:      -7.1      4.862      9.842
REMARK  7 active torsions:
REMARK  status: ('A' for Active; 'I' for Inactive)
REMARK    1  A    between atoms: C_6  and  C_7 
REMARK       I    between atoms: C_7  and  N_8 
REMARK    2  A    between atoms: N_8  and  N_9 
REMARK       I    between atoms: N_9  and  C_10 
REMARK    3  A    between atoms: C_10  and  C_11 
REMARK    4  A    between atoms: C_11  and  C_12 
REMARK    5  A    between atoms: C_12  and  C_13 
REMARK    6  A    between atoms: C_13  and  O_14 
REMARK    7  A    between atoms: O_14  and  C_15 
ROOT
HETATM    1  N   UNL     1      44.012 -14.541   7.869  1.00  0.00    -0.267 N 
HETATM    2  C   UNL     1      44.887 -13.499   7.633  1.00  0.00     0.236 C 
HETATM    3  O   UNL     1      45.829 -13.571   6.849  1.00  0.00    -0.272 OA
HETATM    4  H   UNL     1      43.136 -14.420   8.377  1.00  0.00     0.190 HD
ENDROOT
BRANCH   2   5
HETATM    5  C   UNL     1      44.573 -12.278   8.473  1.00  0.00     0.107 C 
BRANCH   5   6
HETATM    6  C   UNL     1      45.312 -12.239   9.807  1.00  0.00     0.036 C 
BRANCH   6   7
HETATM    7  C   UNL     1      44.368 -12.303  11.010  1.00  0.00     0.176 C 
BRANCH   7   8
HETATM    8  O   UNL     1      44.115 -10.964  11.425  1.00  0.00    -0.349 OA
BRANCH   8   9
HETATM    9  C   UNL     1      42.846 -10.577  11.754  1.00  0.00     0.090 A 
HETATM   10  C   UNL     1      42.379  -9.853  12.862  1.00  0.00     0.069 A 
HETATM   11 CL   UNL     1      43.376  -9.215  14.122  1.00  0.00    -0.081 Cl
HETATM   12  C   UNL     1      41.013  -9.549  12.975  1.00  0.00     0.050 A 
HETATM   13  C   UNL     1      40.116  -9.949  11.989  1.00  0.00     0.035 A 
HETATM   14 CL   UNL     1      38.448  -9.555  12.136  1.00  0.00    -0.084 Cl
HETATM   15  C   UNL     1      40.564 -10.652  10.879  1.00  0.00     0.026 A 
HETATM   16  C   UNL     1      41.921 -10.958  10.767  1.00  0.00     0.040 A 
ENDBRANCH   8   9
ENDBRANCH   7   8
ENDBRANCH   6   7
ENDBRANCH   5   6
ENDBRANCH   2   5
BRANCH   1  17
HETATM   17  N   UNL     1      44.112 -15.689   7.082  1.00  0.00    -0.262 N 
HETATM   18  C   UNL     1      43.240 -15.874   6.029  1.00  0.00     0.290 C 
HETATM   19  O   UNL     1      42.320 -15.094   5.781  1.00  0.00    -0.264 OA
HETATM   20  H   UNL     1      44.918 -16.306   7.197  1.00  0.00     0.190 HD
BRANCH  18  21
HETATM   21  C   UNL     1      43.516 -17.081   5.241  1.00  0.00     0.147 A 
HETATM   22  N   UNL     1      42.946 -17.300   4.038  1.00  0.00    -0.169 NA
HETATM   23  N   UNL     1      43.449 -18.482   3.645  1.00  0.00    -0.282 N 
HETATM   24  C   UNL     1      44.319 -19.037   4.541  1.00  0.00     0.026 A 
HETATM   25  H   UNL     1      43.155 -18.853   2.746  1.00  0.00     0.189 HD
HETATM   26  C   UNL     1      44.994 -20.332   4.308  1.00  0.00     0.070 C 
HETATM   27  C   UNL     1      44.379 -18.151   5.593  1.00  0.00     0.065 A 
ENDBRANCH  18  21
ENDBRANCH   1  17
TORSDOF 7
ENDMDL
MODEL 9
REMARK VINA RESULT:      -7.1      5.636      8.585
REMARK  7 active torsions:
REMARK  status: ('A' for Active; 'I' for Inactive)
REMARK    1  A    between atoms: C_6  and  C_7 
REMARK       I    between atoms: C_7  and  N_8 
REMARK    2  A    between atoms: N_8  and  N_9 
REMARK       I    between atoms: N_9  and  C_10 
REMARK    3  A    between atoms: C_10  and  C_11 
REMARK    4  A    between atoms: C_11  and  C_12 
REMARK    5  A    between atoms: C_12  and  C_13 
REMARK    6  A    between atoms: C_13  and  O_14 
REMARK    7  A    between atoms: O_14  and  C_15 
ROOT
HETATM    1  N   UNL     1      42.086 -14.534   3.375  1.00  0.00    -0.267 N 
HETATM    2  C   UNL     1      41.071 -14.665   4.302  1.00  0.00     0.236 C 
HETATM    3  O   UNL     1      39.889 -14.792   3.998  1.00  0.00    -0.272 OA
HETATM    4  H   UNL     1      43.071 -14.611   3.623  1.00  0.00     0.190 HD
ENDROOT
BRANCH   2   5
HETATM    5  C   UNL     1      41.578 -14.600   5.728  1.00  0.00     0.107 C 
BRANCH   5   6
HETATM    6  C   UNL     1      42.870 -15.377   5.959  1.00  0.00     0.036 C 
BRANCH   6   7
HETATM    7  C   UNL     1      42.765 -16.843   5.533  1.00  0.00     0.176 C 
BRANCH   7   8
HETATM    8  O   UNL     1      43.542 -17.000   4.349  1.00  0.00    -0.349 OA
BRANCH   8   9
HETATM    9  C   UNL     1      43.700 -18.238   3.793  1.00  0.00     0.090 A 
HETATM   10  C   UNL     1      43.239 -18.746   2.568  1.00  0.00     0.069 A 
HETATM   11 CL   UNL     1      42.337 -17.849   1.398  1.00  0.00    -0.081 Cl
HETATM   12  C   UNL     1      43.552 -20.063   2.193  1.00  0.00     0.050 A 
HETATM   13  C   UNL     1      44.331 -20.867   3.020  1.00  0.00     0.035 A 
HETATM   14 CL   UNL     1      44.717 -22.473   2.538  1.00  0.00    -0.084 Cl
HETATM   15  C   UNL     1      44.808 -20.374   4.227  1.00  0.00     0.026 A 
HETATM   16  C   UNL     1      44.494 -19.068   4.603  1.00  0.00     0.040 A 
ENDBRANCH   8   9
ENDBRANCH   7   8
ENDBRANCH   6   7
ENDBRANCH   5   6
ENDBRANCH   2   5
BRANCH   1  17
HETATM   17  N   UNL     1      41.779 -14.690   2.022  1.00  0.00    -0.262 N 
HETATM   18  C   UNL     1      42.075 -13.677   1.133  1.00  0.00     0.290 C 
HETATM   19  O   UNL     1      42.549 -12.597   1.487  1.00  0.00    -0.264 OA
HETATM   20  H   UNL     1      41.477 -15.603   1.679  1.00  0.00     0.190 HD
BRANCH  18  21
HETATM   21  C   UNL     1      41.773 -14.013  -0.264  1.00  0.00     0.147 A 
HETATM   22  N   UNL     1      42.249 -13.286  -1.296  1.00  0.00    -0.169 NA
HETATM   23  N   UNL     1      41.767 -13.907  -2.386  1.00  0.00    -0.282 N 
HETATM   24  C   UNL     1      41.000 -15.003  -2.103  1.00  0.00     0.026 A 
HETATM   25  H   UNL     1      42.004 -13.528  -3.298  1.00  0.00     0.189 HD
HETATM   26  C   UNL     1      40.375 -15.837  -3.151  1.00  0.00     0.070 C 
HETATM   27  C   UNL     1      40.982 -15.094  -0.729  1.00  0.00     0.065 A 
ENDBRANCH  18  21
ENDBRANCH   1  17
TORSDOF 7
ENDMDL
MODEL 10
REMARK VINA RESULT:      -7.0      5.837      8.595
REMARK  7 active torsions:
REMARK  status: ('A' for Active; 'I' for Inactive)
REMARK    1  A    between atoms: C_6  and  C_7 
REMARK       I    between atoms: C_7  and  N_8 
REMARK    2  A    between atoms: N_8  and  N_9 
REMARK       I    between atoms: N_9  and  C_10 
REMARK    3  A    between atoms: C_10  and  C_11 
REMARK    4  A    between atoms: C_11  and  C_12 
REMARK    5  A    between atoms: C_12  and  C_13 
REMARK    6  A    between atoms: C_13  and  O_14 
REMARK    7  A    between atoms: O_14  and  C_15 
ROOT
HETATM    1  N   UNL     1      41.218 -15.319   3.634  1.00  0.00    -0.267 N 
HETATM    2  C   UNL     1      40.656 -14.409   4.507  1.00  0.00     0.236 C 
HETATM    3  O   UNL     1      40.461 -13.231   4.223  1.00  0.00    -0.272 OA
HETATM    4  H   UNL     1      41.211 -16.324   3.806  1.00  0.00     0.190 HD
ENDROOT
BRANCH   2   5
HETATM    5  C   UNL     1      40.342 -15.020   5.857  1.00  0.00     0.107 C 
BRANCH   5   6
HETATM    6  C   UNL     1      40.774 -16.477   5.990  1.00  0.00     0.036 C 
BRANCH   6   7
HETATM    7  C   UNL     1      42.138 -16.632   6.666  1.00  0.00     0.176 C 
BRANCH   7   8
HETATM    8  O   UNL     1      43.111 -16.778   5.635  1.00  0.00    -0.349 OA
BRANCH   8   9
HETATM    9  C   UNL     1      43.563 -18.021   5.292  1.00  0.00     0.090 A 
HETATM   10  C   UNL     1      43.960 -18.527   4.044  1.00  0.00     0.069 A 
HETATM   11 CL   UNL     1      44.001 -17.621   2.573  1.00  0.00    -0.081 Cl
HETATM   12  C   UNL     1      44.418 -19.851   3.939  1.00  0.00     0.050 A 
HETATM   13  C   UNL     1      44.497 -20.664   5.065  1.00  0.00     0.035 A 
HETATM   14 CL   UNL     1      45.075 -22.277   4.920  1.00  0.00    -0.084 Cl
HETATM   15  C   UNL     1      44.123 -20.173   6.309  1.00  0.00     0.026 A 
HETATM   16  C   UNL     1      43.663 -18.860   6.416  1.00  0.00     0.040 A 
ENDBRANCH   8   9
ENDBRANCH   7   8
ENDBRANCH   6   7
ENDBRANCH   5   6
ENDBRANCH   2   5
BRANCH   1  17
HETATM   17  N   UNL     1      41.452 -14.924   2.316  1.00  0.00    -0.262 N 
HETATM   18  C   UNL     1      41.087 -15.756   1.277  1.00  0.00     0.290 C 
HETATM   19  O   UNL     1      40.612 -16.878   1.457  1.00  0.00    -0.264 OA
HETATM   20  H   UNL     1      41.753 -13.967   2.127  1.00  0.00     0.190 HD
BRANCH  18  21
HETATM   21  C   UNL     1      41.318 -15.175  -0.051  1.00  0.00     0.147 A 
HETATM   22  N   UNL     1      41.172 -15.893  -1.184  1.00  0.00    -0.169 NA
HETATM   23  N   UNL     1      41.458 -15.022  -2.166  1.00  0.00    -0.282 N 
HETATM   24  C   UNL     1      41.783 -13.772  -1.718  1.00  0.00     0.026 A 
HETATM   25  H   UNL     1      41.410 -15.348  -3.126  1.00  0.00     0.189 HD
HETATM   26  C   UNL     1      42.127 -12.657  -2.626  1.00  0.00     0.070 C 
HETATM   27  C   UNL     1      41.705 -13.842  -0.344  1.00  0.00     0.065 A 
ENDBRANCH  18  21
ENDBRANCH   1  17
TORSDOF 7
ENDMDL
