MODEL 1
REMARK VINA RESULT:      -8.2      0.000      0.000
REMARK  6 active torsions:
REMARK  status: ('A' for Active; 'I' for Inactive)
REMARK    1  A    between atoms: C_7  and  N_8 
REMARK    2  A    between atoms: N_8  and  C_9 
REMARK    3  A    between atoms: C_9  and  C_10 
REMARK    4  A    between atoms: C_12  and  N_13 
REMARK       I    between atoms: N_13  and  C_14 
REMARK    5  A    between atoms: C_14  and  C_15 
REMARK    6  A    between atoms: C_15  and  N_16 
ROOT
HETATM    1  C   UNL     1      42.016 -15.482   3.709  1.00  0.00    -0.038 A 
HETATM    2  C   UNL     1      43.027 -14.749   4.347  1.00  0.00     0.038 A 
HETATM    3  C   UNL     1      42.769 -14.007   5.498  1.00  0.00     0.035 A 
HETATM    4  C   UNL     1      41.452 -13.891   5.945  1.00  0.00     0.029 A 
HETATM    5  C   UNL     1      40.423 -14.573   5.289  1.00  0.00     0.003 A 
HETATM    6  C   UNL     1      40.707 -15.385   4.190  1.00  0.00     0.009 A 
ENDROOT
BRANCH   1   7
HETATM    7  C   UNL     1      42.367 -16.394   2.571  1.00  0.00     0.176 C 
BRANCH   7   8
HETATM    8  N   UNL     1      43.706 -16.934   2.777  1.00  0.00    -0.222 N 
HETATM    9  H   UNL     1      44.498 -16.310   2.753  1.00  0.00     0.178 HD
BRANCH   8  10
HETATM   10  C   UNL     1      43.942 -18.207   3.127  1.00  0.00     0.679 A 
HETATM   11  N   UNL     1      43.936 -19.220   2.272  1.00  0.00    -0.190 N 
HETATM   12  C   UNL     1      44.234 -20.401   2.922  1.00  0.00     0.076 A 
HETATM   13  H   UNL     1      43.742 -19.152   1.283  1.00  0.00     0.184 HD
HETATM   14  C   UNL     1      44.414 -20.058   4.260  1.00  0.00     0.076 A 
HETATM   15  C   UNL     1      44.354 -21.706   2.463  1.00  0.00     0.032 A 
HETATM   16  C   UNL     1      44.715 -20.990   5.244  1.00  0.00     0.032 A 
HETATM   17  N   UNL     1      44.227 -18.696   4.321  1.00  0.00    -0.190 N 
HETATM   18  C   UNL     1      44.842 -22.315   4.800  1.00  0.00     0.002 A 
HETATM   19  C   UNL     1      44.668 -22.665   3.443  1.00  0.00     0.002 A 
HETATM   20  H   UNL     1      44.246 -18.177   5.190  1.00  0.00     0.184 HD
ENDBRANCH   8  10
ENDBRANCH   7   8
ENDBRANCH   1   7
BRANCH   3  21
HETATM   21  N   UNL     1      43.783 -13.390   6.251  1.00  0.00    -0.326 N 
HETATM   22  C   UNL     1      44.477 -13.927   7.322  1.00  0.00     0.242 C 
HETATM   23  O   UNL     1      44.271 -15.054   7.788  1.00  0.00    -0.271 OA
HETATM   24  H   UNL     1      43.927 -12.385   6.091  1.00  0.00     0.169 HD
BRANCH  22  25
HETATM   25  C   UNL     1      45.468 -13.008   8.020  1.00  0.00     0.253 C 
BRANCH  25  26
HETATM   26  N   UNL     1      44.912 -12.049   8.960  1.00  0.00    -0.273 N 
HETATM   27  N   UNL     1      43.755 -11.406   8.673  1.00  0.00    -0.185 NA
HETATM   28  C   UNL     1      43.498 -10.709   9.785  1.00  0.00     0.140 A 
HETATM   29  C   UNL     1      44.478 -10.899  10.775  1.00  0.00     0.040 A 
HETATM   30  C   UNL     1      45.379 -11.773  10.214  1.00  0.00     0.114 A 
ENDBRANCH  25  26
ENDBRANCH  22  25
ENDBRANCH   3  21
TORSDOF 6
ENDMDL
MODEL 2
REMARK VINA RESULT:      -8.0      3.059      5.836
REMARK  6 active torsions:
REMARK  status: ('A' for Active; 'I' for Inactive)
REMARK    1  A    between atoms: C_7  and  N_8 
REMARK    2  A    between atoms: N_8  and  C_9 
REMARK    3  A    between atoms: C_9  and  C_10 
REMARK    4  A    between atoms: C_12  and  N_13 
REMARK       I    between atoms: N_13  and  C_14 
REMARK    5  A    between atoms: C_14  and  C_15 
REMARK    6  A    between atoms: C_15  and  N_16 
ROOT
HETATM    1  C   UNL     1      43.456 -16.278   6.719  1.00  0.00    -0.038 A 
HETATM    2  C   UNL     1      42.479 -16.094   5.730  1.00  0.00     0.038 A 
HETATM    3  C   UNL     1      42.432 -14.930   4.965  1.00  0.00     0.035 A 
HETATM    4  C   UNL     1      43.294 -13.879   5.282  1.00  0.00     0.029 A 
HETATM    5  C   UNL     1      44.239 -14.026   6.301  1.00  0.00     0.003 A 
HETATM    6  C   UNL     1      44.337 -15.229   7.001  1.00  0.00     0.009 A 
ENDROOT
BRANCH   1   7
HETATM    7  C   UNL     1      43.574 -17.606   7.407  1.00  0.00     0.176 C 
BRANCH   7   8
HETATM    8  N   UNL     1      44.680 -18.358   6.825  1.00  0.00    -0.222 N 
HETATM    9  H   UNL     1      45.556 -18.411   7.323  1.00  0.00     0.178 HD
BRANCH   8  10
HETATM   10  C   UNL     1      44.564 -19.100   5.713  1.00  0.00     0.679 A 
HETATM   11  N   UNL     1      44.820 -20.399   5.665  1.00  0.00    -0.190 N 
HETATM   12  C   UNL     1      44.589 -20.889   4.395  1.00  0.00     0.076 A 
HETATM   13  H   UNL     1      45.140 -20.964   6.440  1.00  0.00     0.184 HD
HETATM   14  C   UNL     1      44.181 -19.792   3.639  1.00  0.00     0.076 A 
HETATM   15  C   UNL     1      44.704 -22.164   3.858  1.00  0.00     0.032 A 
HETATM   16  C   UNL     1      43.868 -19.881   2.289  1.00  0.00     0.032 A 
HETATM   17  N   UNL     1      44.180 -18.724   4.507  1.00  0.00    -0.190 N 
HETATM   18  C   UNL     1      43.976 -21.163   1.728  1.00  0.00     0.002 A 
HETATM   19  C   UNL     1      44.382 -22.278   2.495  1.00  0.00     0.002 A 
HETATM   20  H   UNL     1      43.972 -17.779   4.213  1.00  0.00     0.184 HD
ENDBRANCH   8  10
ENDBRANCH   7   8
ENDBRANCH   1   7
BRANCH   3  21
HETATM   21  N   UNL     1      41.570 -14.775   3.865  1.00  0.00    -0.326 N 
HETATM   22  C   UNL     1      40.213 -14.508   3.895  1.00  0.00     0.242 C 
HETATM   23  O   UNL     1      39.551 -14.390   4.934  1.00  0.00    -0.271 OA
HETATM   24  H   UNL     1      41.950 -15.031   2.945  1.00  0.00     0.169 HD
BRANCH  22  25
HETATM   25  C   UNL     1      39.495 -14.477   2.554  1.00  0.00     0.253 C 
BRANCH  25  26
HETATM   26  N   UNL     1      40.253 -14.940   1.403  1.00  0.00    -0.273 N 
HETATM   27  N   UNL     1      40.836 -16.162   1.417  1.00  0.00    -0.185 NA
HETATM   28  C   UNL     1      41.334 -16.289   0.183  1.00  0.00     0.140 A 
HETATM   29  C   UNL     1      41.076 -15.162  -0.617  1.00  0.00     0.040 A 
HETATM   30  C   UNL     1      40.372 -14.306   0.199  1.00  0.00     0.114 A 
ENDBRANCH  25  26
ENDBRANCH  22  25
ENDBRANCH   3  21
TORSDOF 6
ENDMDL
MODEL 3
REMARK VINA RESULT:      -8.0      2.128      9.674
REMARK  6 active torsions:
REMARK  status: ('A' for Active; 'I' for Inactive)
REMARK    1  A    between atoms: C_7  and  N_8 
REMARK    2  A    between atoms: N_8  and  C_9 
REMARK    3  A    between atoms: C_9  and  C_10 
REMARK    4  A    between atoms: C_12  and  N_13 
REMARK       I    between atoms: N_13  and  C_14 
REMARK    5  A    between atoms: C_14  and  C_15 
REMARK    6  A    between atoms: C_15  and  N_16 
ROOT
HETATM    1  C   UNL     1      44.153 -13.617   7.453  1.00  0.00    -0.038 A 
HETATM    2  C   UNL     1      44.384 -14.989   7.276  1.00  0.00     0.038 A 
HETATM    3  C   UNL     1      43.796 -15.694   6.227  1.00  0.00     0.035 A 
HETATM    4  C   UNL     1      42.859 -15.046   5.420  1.00  0.00     0.029 A 
HETATM    5  C   UNL     1      42.577 -13.691   5.617  1.00  0.00     0.003 A 
HETATM    6  C   UNL     1      43.239 -12.973   6.614  1.00  0.00     0.009 A 
ENDROOT
BRANCH   1   7
HETATM    7  C   UNL     1      44.929 -12.863   8.492  1.00  0.00     0.176 C 
BRANCH   7   8
HETATM    8  N   UNL     1      44.259 -11.599   8.776  1.00  0.00    -0.222 N 
HETATM    9  H   UNL     1      44.077 -10.957   8.020  1.00  0.00     0.178 HD
BRANCH   8  10
HETATM   10  C   UNL     1      43.749 -11.287   9.977  1.00  0.00     0.679 A 
HETATM   11  N   UNL     1      44.307 -10.421  10.812  1.00  0.00    -0.190 N 
HETATM   12  C   UNL     1      43.541 -10.294  11.955  1.00  0.00     0.076 A 
HETATM   13  H   UNL     1      45.168  -9.920  10.649  1.00  0.00     0.184 HD
HETATM   14  C   UNL     1      42.464 -11.159  11.784  1.00  0.00     0.076 A 
HETATM   15  C   UNL     1      43.701  -9.516  13.094  1.00  0.00     0.032 A 
HETATM   16  C   UNL     1      41.470 -11.326  12.739  1.00  0.00     0.032 A 
HETATM   17  N   UNL     1      42.645 -11.736  10.547  1.00  0.00    -0.190 N 
HETATM   18  C   UNL     1      41.613 -10.547  13.898  1.00  0.00     0.002 A 
HETATM   19  C   UNL     1      42.701  -9.662  14.070  1.00  0.00     0.002 A 
HETATM   20  H   UNL     1      42.033 -12.454  10.181  1.00  0.00     0.184 HD
ENDBRANCH   8  10
ENDBRANCH   7   8
ENDBRANCH   1   7
BRANCH   3  21
HETATM   21  N   UNL     1      44.125 -17.027   5.925  1.00  0.00    -0.326 N 
HETATM   22  C   UNL     1      43.732 -18.163   6.612  1.00  0.00     0.242 C 
HETATM   23  O   UNL     1      43.033 -18.150   7.632  1.00  0.00    -0.271 OA
HETATM   24  H   UNL     1      44.850 -17.171   5.212  1.00  0.00     0.169 HD
BRANCH  22  25
HETATM   25  C   UNL     1      44.305 -19.485   6.124  1.00  0.00     0.253 C 
BRANCH  25  26
HETATM   26  N   UNL     1      44.184 -19.758   4.701  1.00  0.00    -0.273 N 
HETATM   27  N   UNL     1      43.357 -19.011   3.932  1.00  0.00    -0.185 NA
HETATM   28  C   UNL     1      43.585 -19.462   2.694  1.00  0.00     0.140 A 
HETATM   29  C   UNL     1      44.546 -20.488   2.666  1.00  0.00     0.040 A 
HETATM   30  C   UNL     1      44.918 -20.656   3.980  1.00  0.00     0.114 A 
ENDBRANCH  25  26
ENDBRANCH  22  25
ENDBRANCH   3  21
TORSDOF 6
ENDMDL
MODEL 4
REMARK VINA RESULT:      -7.9      4.472      7.895
REMARK  6 active torsions:
REMARK  status: ('A' for Active; 'I' for Inactive)
REMARK    1  A    between atoms: C_7  and  N_8 
REMARK    2  A    between atoms: N_8  and  C_9 
REMARK    3  A    between atoms: C_9  and  C_10 
REMARK    4  A    between atoms: C_12  and  N_13 
REMARK       I    between atoms: N_13  and  C_14 
REMARK    5  A    between atoms: C_14  and  C_15 
REMARK    6  A    between atoms: C_15  and  N_16 
ROOT
HETATM    1  C   UNL     1      42.073 -15.253   2.594  1.00  0.00    -0.038 A 
HETATM    2  C   UNL     1      42.011 -15.246   1.193  1.00  0.00     0.038 A 
HETATM    3  C   UNL     1      40.830 -14.939   0.520  1.00  0.00     0.035 A 
HETATM    4  C   UNL     1      39.659 -14.764   1.258  1.00  0.00     0.029 A 
HETATM    5  C   UNL     1      39.692 -14.820   2.655  1.00  0.00     0.003 A 
HETATM    6  C   UNL     1      40.899 -15.039   3.321  1.00  0.00     0.009 A 
ENDROOT
BRANCH   1   7
HETATM    7  C   UNL     1      43.398 -15.427   3.276  1.00  0.00     0.176 C 
BRANCH   7   8
HETATM    8  N   UNL     1      43.302 -16.506   4.253  1.00  0.00    -0.222 N 
HETATM    9  H   UNL     1      42.922 -16.311   5.167  1.00  0.00     0.178 HD
BRANCH   8  10
HETATM   10  C   UNL     1      43.573 -17.788   3.965  1.00  0.00     0.679 A 
HETATM   11  N   UNL     1      43.229 -18.376   2.828  1.00  0.00    -0.190 N 
HETATM   12  C   UNL     1      43.663 -19.687   2.814  1.00  0.00     0.076 A 
HETATM   13  H   UNL     1      42.722 -17.940   2.071  1.00  0.00     0.184 HD
HETATM   14  C   UNL     1      44.295 -19.887   4.039  1.00  0.00     0.076 A 
HETATM   15  C   UNL     1      43.554 -20.688   1.858  1.00  0.00     0.032 A 
HETATM   16  C   UNL     1      44.856 -21.101   4.410  1.00  0.00     0.032 A 
HETATM   17  N   UNL     1      44.211 -18.682   4.699  1.00  0.00    -0.190 N 
HETATM   18  C   UNL     1      44.757 -22.126   3.455  1.00  0.00     0.002 A 
HETATM   19  C   UNL     1      44.124 -21.924   2.210  1.00  0.00     0.002 A 
HETATM   20  H   UNL     1      44.546 -18.550   5.645  1.00  0.00     0.184 HD
ENDBRANCH   8  10
ENDBRANCH   7   8
ENDBRANCH   1   7
BRANCH   3  21
HETATM   21  N   UNL     1      40.768 -14.770  -0.875  1.00  0.00    -0.326 N 
HETATM   22  C   UNL     1      41.359 -13.768  -1.624  1.00  0.00     0.242 C 
HETATM   23  O   UNL     1      42.025 -12.843  -1.144  1.00  0.00    -0.271 OA
HETATM   24  H   UNL     1      40.096 -15.361  -1.379  1.00  0.00     0.169 HD
BRANCH  22  25
HETATM   25  C   UNL     1      41.059 -13.767  -3.115  1.00  0.00     0.253 C 
BRANCH  25  26
HETATM   26  N   UNL     1      39.892 -14.521  -3.542  1.00  0.00    -0.273 N 
HETATM   27  N   UNL     1      40.019 -15.813  -3.926  1.00  0.00    -0.185 NA
HETATM   28  C   UNL     1      38.758 -16.206  -4.135  1.00  0.00     0.140 A 
HETATM   29  C   UNL     1      37.830 -15.178  -3.891  1.00  0.00     0.040 A 
HETATM   30  C   UNL     1      38.593 -14.100  -3.506  1.00  0.00     0.114 A 
ENDBRANCH  25  26
ENDBRANCH  22  25
ENDBRANCH   3  21
TORSDOF 6
ENDMDL
MODEL 5
REMARK VINA RESULT:      -7.9      3.189      5.374
REMARK  6 active torsions:
REMARK  status: ('A' for Active; 'I' for Inactive)
REMARK    1  A    between atoms: C_7  and  N_8 
REMARK    2  A    between atoms: N_8  and  C_9 
REMARK    3  A    between atoms: C_9  and  C_10 
REMARK    4  A    between atoms: C_12  and  N_13 
REMARK       I    between atoms: N_13  and  C_14 
REMARK    5  A    between atoms: C_14  and  C_15 
REMARK    6  A    between atoms: C_15  and  N_16 
ROOT
HETATM    1  C   UNL     1      45.169 -12.802   8.325  1.00  0.00    -0.038 A 
HETATM    2  C   UNL     1      44.169 -12.858   9.306  1.00  0.00     0.038 A 
HETATM    3  C   UNL     1      44.144 -11.956  10.368  1.00  0.00     0.035 A 
HETATM    4  C   UNL     1      45.208 -11.068  10.525  1.00  0.00     0.029 A 
HETATM    5  C   UNL     1      46.242 -11.035   9.585  1.00  0.00     0.003 A 
HETATM    6  C   UNL     1      46.211 -11.882   8.475  1.00  0.00     0.009 A 
ENDROOT
BRANCH   1   7
HETATM    7  C   UNL     1      45.070 -13.682   7.114  1.00  0.00     0.176 C 
BRANCH   7   8
HETATM    8  N   UNL     1      44.244 -14.843   7.424  1.00  0.00    -0.222 N 
HETATM    9  H   UNL     1      43.628 -14.811   8.222  1.00  0.00     0.178 HD
BRANCH   8  10
HETATM   10  C   UNL     1      44.156 -15.920   6.628  1.00  0.00     0.679 A 
HETATM   11  N   UNL     1      43.456 -15.949   5.502  1.00  0.00    -0.190 N 
HETATM   12  C   UNL     1      43.576 -17.183   4.893  1.00  0.00     0.076 A 
HETATM   13  H   UNL     1      42.908 -15.186   5.132  1.00  0.00     0.184 HD
HETATM   14  C   UNL     1      44.395 -17.937   5.731  1.00  0.00     0.076 A 
HETATM   15  C   UNL     1      43.047 -17.688   3.713  1.00  0.00     0.032 A 
HETATM   16  C   UNL     1      44.740 -19.255   5.462  1.00  0.00     0.032 A 
HETATM   17  N   UNL     1      44.723 -17.104   6.776  1.00  0.00    -0.190 N 
HETATM   18  C   UNL     1      44.215 -19.784   4.272  1.00  0.00     0.002 A 
HETATM   19  C   UNL     1      43.391 -19.019   3.418  1.00  0.00     0.002 A 
HETATM   20  H   UNL     1      45.273 -17.408   7.569  1.00  0.00     0.184 HD
ENDBRANCH   8  10
ENDBRANCH   7   8
ENDBRANCH   1   7
BRANCH   3  21
HETATM   21  N   UNL     1      43.076 -11.881  11.280  1.00  0.00    -0.326 N 
HETATM   22  C   UNL     1      41.959 -11.068  11.197  1.00  0.00     0.242 C 
HETATM   23  O   UNL     1      41.759 -10.254  10.287  1.00  0.00    -0.271 OA
HETATM   24  H   UNL     1      43.202 -12.369  12.175  1.00  0.00     0.169 HD
BRANCH  22  25
HETATM   25  C   UNL     1      40.992 -11.119  12.370  1.00  0.00     0.253 C 
BRANCH  25  26
HETATM   26  N   UNL     1      41.268 -10.220  13.478  1.00  0.00    -0.273 N 
HETATM   27  N   UNL     1      40.459  -9.160  13.715  1.00  0.00    -0.185 NA
HETATM   28  C   UNL     1      40.943  -8.640  14.848  1.00  0.00     0.140 A 
HETATM   29  C   UNL     1      42.051  -9.355  15.334  1.00  0.00     0.040 A 
HETATM   30  C   UNL     1      42.238 -10.373  14.428  1.00  0.00     0.114 A 
ENDBRANCH  25  26
ENDBRANCH  22  25
ENDBRANCH   3  21
TORSDOF 6
ENDMDL
MODEL 6
REMARK VINA RESULT:      -7.7      1.897      2.466
REMARK  6 active torsions:
REMARK  status: ('A' for Active; 'I' for Inactive)
REMARK    1  A    between atoms: C_7  and  N_8 
REMARK    2  A    between atoms: N_8  and  C_9 
REMARK    3  A    between atoms: C_9  and  C_10 
REMARK    4  A    between atoms: C_12  and  N_13 
REMARK       I    between atoms: N_13  and  C_14 
REMARK    5  A    between atoms: C_14  and  C_15 
REMARK    6  A    between atoms: C_15  and  N_16 
ROOT
HETATM    1  C   UNL     1      42.181 -14.027   4.390  1.00  0.00    -0.038 A 
HETATM    2  C   UNL     1      42.391 -13.249   5.537  1.00  0.00     0.038 A 
HETATM    3  C   UNL     1      41.366 -12.488   6.096  1.00  0.00     0.035 A 
HETATM    4  C   UNL     1      40.147 -12.400   5.422  1.00  0.00     0.029 A 
HETATM    5  C   UNL     1      39.938 -13.127   4.246  1.00  0.00     0.003 A 
HETATM    6  C   UNL     1      40.942 -13.957   3.745  1.00  0.00     0.009 A 
ENDROOT
BRANCH   1   7
HETATM    7  C   UNL     1      43.260 -14.955   3.916  1.00  0.00     0.176 C 
BRANCH   7   8
HETATM    8  N   UNL     1      43.264 -16.157   4.742  1.00  0.00    -0.222 N 
HETATM    9  H   UNL     1      42.995 -16.089   5.711  1.00  0.00     0.178 HD
BRANCH   8  10
HETATM   10  C   UNL     1      43.483 -17.387   4.254  1.00  0.00     0.679 A 
HETATM   11  N   UNL     1      42.946 -17.841   3.130  1.00  0.00    -0.190 N 
HETATM   12  C   UNL     1      43.375 -19.129   2.877  1.00  0.00     0.076 A 
HETATM   13  H   UNL     1      42.311 -17.328   2.535  1.00  0.00     0.184 HD
HETATM   14  C   UNL     1      44.214 -19.460   3.938  1.00  0.00     0.076 A 
HETATM   15  C   UNL     1      43.101 -20.008   1.838  1.00  0.00     0.032 A 
HETATM   16  C   UNL     1      44.836 -20.696   4.050  1.00  0.00     0.032 A 
HETATM   17  N   UNL     1      44.245 -18.347   4.747  1.00  0.00    -0.190 N 
HETATM   18  C   UNL     1      44.573 -21.599   3.008  1.00  0.00     0.002 A 
HETATM   19  C   UNL     1      43.729 -21.263   1.928  1.00  0.00     0.002 A 
HETATM   20  H   UNL     1      44.741 -18.323   5.628  1.00  0.00     0.184 HD
ENDBRANCH   8  10
ENDBRANCH   7   8
ENDBRANCH   1   7
BRANCH   3  21
HETATM   21  N   UNL     1      41.494 -11.822   7.328  1.00  0.00    -0.326 N 
HETATM   22  C   UNL     1      41.717 -10.472   7.531  1.00  0.00     0.242 C 
HETATM   23  O   UNL     1      41.861  -9.647   6.621  1.00  0.00    -0.271 OA
HETATM   24  H   UNL     1      41.579 -12.415   8.163  1.00  0.00     0.169 HD
BRANCH  22  25
HETATM   25  C   UNL     1      41.905 -10.023   8.973  1.00  0.00     0.253 C 
BRANCH  25  26
HETATM   26  N   UNL     1      43.110 -10.483   9.643  1.00  0.00    -0.273 N 
HETATM   27  N   UNL     1      44.112 -11.050   8.930  1.00  0.00    -0.185 NA
HETATM   28  C   UNL     1      45.077 -11.238   9.836  1.00  0.00     0.140 A 
HETATM   29  C   UNL     1      44.701 -10.798  11.118  1.00  0.00     0.040 A 
HETATM   30  C   UNL     1      43.424 -10.312  10.961  1.00  0.00     0.114 A 
ENDBRANCH  25  26
ENDBRANCH  22  25
ENDBRANCH   3  21
TORSDOF 6
ENDMDL
MODEL 7
REMARK VINA RESULT:      -7.5      4.079      7.135
REMARK  6 active torsions:
REMARK  status: ('A' for Active; 'I' for Inactive)
REMARK    1  A    between atoms: C_7  and  N_8 
REMARK    2  A    between atoms: N_8  and  C_9 
REMARK    3  A    between atoms: C_9  and  C_10 
REMARK    4  A    between atoms: C_12  and  N_13 
REMARK       I    between atoms: N_13  and  C_14 
REMARK    5  A    between atoms: C_14  and  C_15 
REMARK    6  A    between atoms: C_15  and  N_16 
ROOT
HETATM    1  C   UNL     1      40.322 -14.701   4.748  1.00  0.00    -0.038 A 
HETATM    2  C   UNL     1      40.037 -14.578   3.380  1.00  0.00     0.038 A 
HETATM    3  C   UNL     1      39.534 -13.393   2.847  1.00  0.00     0.035 A 
HETATM    4  C   UNL     1      39.188 -12.356   3.715  1.00  0.00     0.029 A 
HETATM    5  C   UNL     1      39.416 -12.482   5.089  1.00  0.00     0.003 A 
HETATM    6  C   UNL     1      40.004 -13.640   5.601  1.00  0.00     0.009 A 
ENDROOT
BRANCH   1   7
HETATM    7  C   UNL     1      41.012 -15.933   5.254  1.00  0.00     0.176 C 
BRANCH   7   8
HETATM    8  N   UNL     1      42.295 -16.083   4.577  1.00  0.00    -0.222 N 
HETATM    9  H   UNL     1      42.903 -15.283   4.490  1.00  0.00     0.178 HD
BRANCH   8  10
HETATM   10  C   UNL     1      42.781 -17.266   4.171  1.00  0.00     0.679 A 
HETATM   11  N   UNL     1      42.458 -17.839   3.019  1.00  0.00    -0.190 N 
HETATM   12  C   UNL     1      43.133 -19.034   2.870  1.00  0.00     0.076 A 
HETATM   13  H   UNL     1      41.811 -17.465   2.339  1.00  0.00     0.184 HD
HETATM   14  C   UNL     1      43.897 -19.181   4.026  1.00  0.00     0.076 A 
HETATM   15  C   UNL     1      43.134 -19.975   1.849  1.00  0.00     0.032 A 
HETATM   16  C   UNL     1      44.711 -20.281   4.257  1.00  0.00     0.032 A 
HETATM   17  N   UNL     1      43.642 -18.059   4.782  1.00  0.00    -0.190 N 
HETATM   18  C   UNL     1      44.727 -21.243   3.236  1.00  0.00     0.002 A 
HETATM   19  C   UNL     1      43.960 -21.094   2.060  1.00  0.00     0.002 A 
HETATM   20  H   UNL     1      44.027 -17.923   5.708  1.00  0.00     0.184 HD
ENDBRANCH   8  10
ENDBRANCH   7   8
ENDBRANCH   1   7
BRANCH   3  21
HETATM   21  N   UNL     1      39.385 -13.181   1.465  1.00  0.00    -0.326 N 
HETATM   22  C   UNL     1      38.387 -13.678   0.645  1.00  0.00     0.242 C 
HETATM   23  O   UNL     1      37.476 -14.420   1.031  1.00  0.00    -0.271 OA
HETATM   24  H   UNL     1      40.173 -12.735   0.981  1.00  0.00     0.169 HD
BRANCH  22  25
HETATM   25  C   UNL     1      38.510 -13.368  -0.840  1.00  0.00     0.253 C 
BRANCH  25  26
HETATM   26  N   UNL     1      39.407 -14.215  -1.607  1.00  0.00    -0.273 N 
HETATM   27  N   UNL     1      40.505 -14.751  -1.022  1.00  0.00    -0.185 NA
HETATM   28  C   UNL     1      41.015 -15.542  -1.972  1.00  0.00     0.140 A 
HETATM   29  C   UNL     1      40.255 -15.516  -3.155  1.00  0.00     0.040 A 
HETATM   30  C   UNL     1      39.219 -14.651  -2.888  1.00  0.00     0.114 A 
ENDBRANCH  25  26
ENDBRANCH  22  25
ENDBRANCH   3  21
TORSDOF 6
ENDMDL
MODEL 8
REMARK VINA RESULT:      -7.4      3.911      8.339
REMARK  6 active torsions:
REMARK  status: ('A' for Active; 'I' for Inactive)
REMARK    1  A    between atoms: C_7  and  N_8 
REMARK    2  A    between atoms: N_8  and  C_9 
REMARK    3  A    between atoms: C_9  and  C_10 
REMARK    4  A    between atoms: C_12  and  N_13 
REMARK       I    between atoms: N_13  and  C_14 
REMARK    5  A    between atoms: C_14  and  C_15 
REMARK    6  A    between atoms: C_15  and  N_16 
ROOT
HETATM    1  C   UNL     1      40.738 -15.285   2.998  1.00  0.00    -0.038 A 
HETATM    2  C   UNL     1      41.777 -16.227   3.019  1.00  0.00     0.038 A 
HETATM    3  C   UNL     1      42.709 -16.255   4.054  1.00  0.00     0.035 A 
HETATM    4  C   UNL     1      42.682 -15.243   5.015  1.00  0.00     0.029 A 
HETATM    5  C   UNL     1      41.684 -14.265   4.979  1.00  0.00     0.003 A 
HETATM    6  C   UNL     1      40.701 -14.299   3.989  1.00  0.00     0.009 A 
ENDROOT
BRANCH   1   7
HETATM    7  C   UNL     1      39.663 -15.391   1.957  1.00  0.00     0.176 C 
BRANCH   7   8
HETATM    8  N   UNL     1      40.251 -15.818   0.693  1.00  0.00    -0.222 N 
HETATM    9  H   UNL     1      40.334 -16.804   0.496  1.00  0.00     0.178 HD
BRANCH   8  10
HETATM   10  C   UNL     1      40.577 -14.969  -0.293  1.00  0.00     0.679 A 
HETATM   11  N   UNL     1      41.686 -14.242  -0.303  1.00  0.00    -0.190 N 
HETATM   12  C   UNL     1      41.754 -13.484  -1.456  1.00  0.00     0.076 A 
HETATM   13  H   UNL     1      42.388 -14.233   0.423  1.00  0.00     0.184 HD
HETATM   14  C   UNL     1      40.594 -13.778  -2.167  1.00  0.00     0.076 A 
HETATM   15  C   UNL     1      42.708 -12.588  -1.919  1.00  0.00     0.032 A 
HETATM   16  C   UNL     1      40.289 -13.193  -3.389  1.00  0.00     0.032 A 
HETATM   17  N   UNL     1      39.915 -14.701  -1.404  1.00  0.00    -0.190 N 
HETATM   18  C   UNL     1      41.242 -12.285  -3.876  1.00  0.00     0.002 A 
HETATM   19  C   UNL     1      42.424 -11.991  -3.160  1.00  0.00     0.002 A 
HETATM   20  H   UNL     1      39.002 -15.056  -1.656  1.00  0.00     0.184 HD
ENDBRANCH   8  10
ENDBRANCH   7   8
ENDBRANCH   1   7
BRANCH   3  21
HETATM   21  N   UNL     1      43.666 -17.276   4.192  1.00  0.00    -0.326 N 
HETATM   22  C   UNL     1      43.540 -18.452   4.911  1.00  0.00     0.242 C 
HETATM   23  O   UNL     1      42.539 -18.758   5.571  1.00  0.00    -0.271 OA
HETATM   24  H   UNL     1      44.612 -17.068   3.848  1.00  0.00     0.169 HD
BRANCH  22  25
HETATM   25  C   UNL     1      44.766 -19.350   4.968  1.00  0.00     0.253 C 
BRANCH  25  26
HETATM   26  N   UNL     1      44.720 -20.562   4.168  1.00  0.00    -0.273 N 
HETATM   27  N   UNL     1      44.878 -21.772   4.754  1.00  0.00    -0.185 NA
HETATM   28  C   UNL     1      44.667 -22.637   3.757  1.00  0.00     0.140 A 
HETATM   29  C   UNL     1      44.377 -21.992   2.542  1.00  0.00     0.040 A 
HETATM   30  C   UNL     1      44.415 -20.649   2.839  1.00  0.00     0.114 A 
ENDBRANCH  25  26
ENDBRANCH  22  25
ENDBRANCH   3  21
TORSDOF 6
ENDMDL
MODEL 9
REMARK VINA RESULT:      -7.4      4.733      6.803
REMARK  6 active torsions:
REMARK  status: ('A' for Active; 'I' for Inactive)
REMARK    1  A    between atoms: C_7  and  N_8 
REMARK    2  A    between atoms: N_8  and  C_9 
REMARK    3  A    between atoms: C_9  and  C_10 
REMARK    4  A    between atoms: C_12  and  N_13 
REMARK       I    between atoms: N_13  and  C_14 
REMARK    5  A    between atoms: C_14  and  C_15 
REMARK    6  A    between atoms: C_15  and  N_16 
ROOT
HETATM    1  C   UNL     1      41.177 -15.164   2.399  1.00  0.00    -0.038 A 
HETATM    2  C   UNL     1      41.679 -14.518   1.260  1.00  0.00     0.038 A 
HETATM    3  C   UNL     1      40.830 -13.907   0.339  1.00  0.00     0.035 A 
HETATM    4  C   UNL     1      39.451 -14.056   0.490  1.00  0.00     0.029 A 
HETATM    5  C   UNL     1      38.934 -14.742   1.592  1.00  0.00     0.003 A 
HETATM    6  C   UNL     1      39.792 -15.273   2.557  1.00  0.00     0.009 A 
ENDROOT
BRANCH   1   7
HETATM    7  C   UNL     1      42.127 -15.666   3.446  1.00  0.00     0.176 C 
BRANCH   7   8
HETATM    8  N   UNL     1      43.265 -16.309   2.800  1.00  0.00    -0.222 N 
HETATM    9  H   UNL     1      43.929 -15.743   2.294  1.00  0.00     0.178 HD
BRANCH   8  10
HETATM   10  C   UNL     1      43.559 -17.610   2.948  1.00  0.00     0.679 A 
HETATM   11  N   UNL     1      43.373 -18.518   2.000  1.00  0.00    -0.190 N 
HETATM   12  C   UNL     1      43.790 -19.760   2.437  1.00  0.00     0.076 A 
HETATM   13  H   UNL     1      42.984 -18.341   1.085  1.00  0.00     0.184 HD
HETATM   14  C   UNL     1      44.239 -19.569   3.742  1.00  0.00     0.076 A 
HETATM   15  C   UNL     1      43.806 -21.003   1.817  1.00  0.00     0.032 A 
HETATM   16  C   UNL     1      44.727 -20.601   4.531  1.00  0.00     0.032 A 
HETATM   17  N   UNL     1      44.076 -18.225   3.995  1.00  0.00    -0.190 N 
HETATM   18  C   UNL     1      44.753 -21.865   3.921  1.00  0.00     0.002 A 
HETATM   19  C   UNL     1      44.305 -22.061   2.596  1.00  0.00     0.002 A 
HETATM   20  H   UNL     1      44.274 -17.809   4.896  1.00  0.00     0.184 HD
ENDBRANCH   8  10
ENDBRANCH   7   8
ENDBRANCH   1   7
BRANCH   3  21
HETATM   21  N   UNL     1      41.301 -13.120  -0.727  1.00  0.00    -0.326 N 
HETATM   22  C   UNL     1      41.573 -13.535  -2.019  1.00  0.00     0.242 C 
HETATM   23  O   UNL     1      41.454 -14.701  -2.413  1.00  0.00    -0.271 OA
HETATM   24  H   UNL     1      41.619 -12.172  -0.492  1.00  0.00     0.169 HD
BRANCH  22  25
HETATM   25  C   UNL     1      42.161 -12.493  -2.959  1.00  0.00     0.253 C 
BRANCH  25  26
HETATM   26  N   UNL     1      42.605 -11.250  -2.352  1.00  0.00    -0.273 N 
HETATM   27  N   UNL     1      43.462 -11.271  -1.303  1.00  0.00    -0.185 NA
HETATM   28  C   UNL     1      43.730  -9.979  -1.088  1.00  0.00     0.140 A 
HETATM   29  C   UNL     1      43.053  -9.135  -1.986  1.00  0.00     0.040 A 
HETATM   30  C   UNL     1      42.334  -9.986  -2.794  1.00  0.00     0.114 A 
ENDBRANCH  25  26
ENDBRANCH  22  25
ENDBRANCH   3  21
TORSDOF 6
ENDMDL
MODEL 10
REMARK VINA RESULT:      -7.3      2.872      5.626
REMARK  6 active torsions:
REMARK  status: ('A' for Active; 'I' for Inactive)
REMARK    1  A    between atoms: C_7  and  N_8 
REMARK    2  A    between atoms: N_8  and  C_9 
REMARK    3  A    between atoms: C_9  and  C_10 
REMARK    4  A    between atoms: C_12  and  N_13 
REMARK       I    between atoms: N_13  and  C_14 
REMARK    5  A    between atoms: C_14  and  C_15 
REMARK    6  A    between atoms: C_15  and  N_16 
ROOT
HETATM    1  C   UNL     1      42.111 -17.006   5.668  1.00  0.00    -0.038 A 
HETATM    2  C   UNL     1      42.530 -15.943   6.480  1.00  0.00     0.038 A 
HETATM    3  C   UNL     1      43.822 -15.893   7.002  1.00  0.00     0.035 A 
HETATM    4  C   UNL     1      44.666 -16.988   6.816  1.00  0.00     0.029 A 
HETATM    5  C   UNL     1      44.245 -18.082   6.053  1.00  0.00     0.003 A 
HETATM    6  C   UNL     1      42.982 -18.080   5.461  1.00  0.00     0.009 A 
ENDROOT
BRANCH   1   7
HETATM    7  C   UNL     1      40.771 -16.942   4.996  1.00  0.00     0.176 C 
BRANCH   7   8
HETATM    8  N   UNL     1      40.954 -16.934   3.549  1.00  0.00    -0.222 N 
HETATM    9  H   UNL     1      41.379 -17.732   3.101  1.00  0.00     0.178 HD
BRANCH   8  10
HETATM   10  C   UNL     1      40.471 -15.972   2.749  1.00  0.00     0.679 A 
HETATM   11  N   UNL     1      39.189 -15.852   2.433  1.00  0.00    -0.190 N 
HETATM   12  C   UNL     1      38.995 -14.756   1.615  1.00  0.00     0.076 A 
HETATM   13  H   UNL     1      38.449 -16.468   2.739  1.00  0.00     0.184 HD
HETATM   14  C   UNL     1      40.259 -14.201   1.426  1.00  0.00     0.076 A 
HETATM   15  C   UNL     1      37.851 -14.222   1.038  1.00  0.00     0.032 A 
HETATM   16  C   UNL     1      40.480 -13.079   0.639  1.00  0.00     0.032 A 
HETATM   17  N   UNL     1      41.122 -14.989   2.153  1.00  0.00    -0.190 N 
HETATM   18  C   UNL     1      39.334 -12.523   0.048  1.00  0.00     0.002 A 
HETATM   19  C   UNL     1      38.051 -13.080   0.244  1.00  0.00     0.002 A 
HETATM   20  H   UNL     1      42.123 -14.848   2.156  1.00  0.00     0.184 HD
ENDBRANCH   8  10
ENDBRANCH   7   8
ENDBRANCH   1   7
BRANCH   3  21
HETATM   21  N   UNL     1      44.326 -14.773   7.687  1.00  0.00    -0.326 N 
HETATM   22  C   UNL     1      45.073 -13.735   7.159  1.00  0.00     0.242 C 
HETATM   23  O   UNL     1      45.427 -13.666   5.976  1.00  0.00    -0.271 OA
HETATM   24  H   UNL     1      44.263 -14.796   8.712  1.00  0.00     0.169 HD
BRANCH  22  25
HETATM   25  C   UNL     1      45.570 -12.686   8.142  1.00  0.00     0.253 C 
BRANCH  25  26
HETATM   26  N   UNL     1      44.652 -12.305   9.203  1.00  0.00    -0.273 N 
HETATM   27  N   UNL     1      44.726 -12.903  10.415  1.00  0.00    -0.185 NA
HETATM   28  C   UNL     1      43.829 -12.237  11.151  1.00  0.00     0.140 A 
HETATM   29  C   UNL     1      43.184 -11.224  10.419  1.00  0.00     0.040 A 
HETATM   30  C   UNL     1      43.739 -11.290   9.163  1.00  0.00     0.114 A 
ENDBRANCH  25  26
ENDBRANCH  22  25
ENDBRANCH   3  21
TORSDOF 6
ENDMDL
