MODEL 1
REMARK VINA RESULT:      -9.6      0.000      0.000
REMARK  3 active torsions:
REMARK  status: ('A' for Active; 'I' for Inactive)
REMARK    1  A    between atoms: C_3  and  N_4 
REMARK    2  A    between atoms: C_14  and  N_15 
REMARK       I    between atoms: N_15  and  C_16 
REMARK    3  A    between atoms: C_16  and  C_17 
ROOT
HETATM    1  N   UNL     1      43.826 -19.082   2.911  1.00  0.00    -0.237 N 
HETATM    2  N   UNL     1      44.367 -18.728   1.712  1.00  0.00    -0.179 NA
HETATM    3  C   UNL     1      43.768 -17.594   1.362  1.00  0.00     0.150 A 
HETATM    4  C   UNL     1      42.818 -17.182   2.302  1.00  0.00     0.008 A 
HETATM    5  C   UNL     1      42.885 -18.133   3.303  1.00  0.00     0.047 A 
HETATM    6  C   UNL     1      42.143 -18.043   4.600  1.00  0.00     0.069 C 
HETATM    7  C   UNL     1      41.630 -16.590   4.858  1.00  0.00    -0.040 C 
HETATM    8  C   UNL     1      42.775 -15.694   5.369  1.00  0.00     0.015 C 
HETATM    9  C   UNL     1      40.542 -16.640   5.948  1.00  0.00     0.015 C 
HETATM   10  C   UNL     1      41.007 -15.999   3.557  1.00  0.00     0.039 C 
HETATM   11  C   UNL     1      41.984 -15.949   2.358  1.00  0.00     0.122 C 
ENDROOT
BRANCH  11  12
HETATM   12  N   UNL     1      41.255 -15.837   1.111  1.00  0.00    -0.347 N 
HETATM   13  C   UNL     1      41.316 -14.693   0.358  1.00  0.00     0.270 C 
HETATM   14  O   UNL     1      42.028 -13.731   0.635  1.00  0.00    -0.266 OA
HETATM   15  H   UNL     1      40.572 -16.551   0.904  1.00  0.00     0.163 HD
BRANCH  13  16
HETATM   16  C   UNL     1      40.442 -14.657  -0.843  1.00  0.00     0.120 A 
HETATM   17  N   UNL     1      40.820 -15.293  -2.005  1.00  0.00    -0.303 N 
HETATM   18  C   UNL     1      39.835 -15.116  -2.977  1.00  0.00     0.324 A 
HETATM   19  H   UNL     1      41.678 -15.812  -2.125  1.00  0.00     0.171 HD
HETATM   20  O   UNL     1      39.823 -15.533  -4.120  1.00  0.00    -0.247 OA
HETATM   21  N   UNL     1      38.853 -14.344  -2.342  1.00  0.00    -0.316 N 
HETATM   22  C   UNL     1      39.245 -14.083  -1.050  1.00  0.00     0.128 A 
HETATM   23  H   UNL     1      38.002 -14.052  -2.797  1.00  0.00     0.170 HD
ENDBRANCH  13  16
ENDBRANCH  11  12
BRANCH   1  24
HETATM   24  C   UNL     1      44.230 -20.298   3.555  1.00  0.00     0.064 A 
HETATM   25  C   UNL     1      44.215 -21.545   2.881  1.00  0.00    -0.033 A 
HETATM   26  C   UNL     1      43.835 -21.725   1.434  1.00  0.00     0.050 C 
HETATM   27  C   UNL     1      44.597 -22.706   3.587  1.00  0.00     0.009 A 
HETATM   28  C   UNL     1      44.998 -22.646   4.919  1.00  0.00     0.001 A 
HETATM   29  C   UNL     1      45.011 -21.426   5.578  1.00  0.00     0.002 A 
HETATM   30  C   UNL     1      44.625 -20.264   4.905  1.00  0.00     0.032 A 
ENDBRANCH   1  24
TORSDOF 3
ENDMDL
MODEL 2
REMARK VINA RESULT:      -9.6      1.174      1.809
REMARK  3 active torsions:
REMARK  status: ('A' for Active; 'I' for Inactive)
REMARK    1  A    between atoms: C_3  and  N_4 
REMARK    2  A    between atoms: C_14  and  N_15 
REMARK       I    between atoms: N_15  and  C_16 
REMARK    3  A    between atoms: C_16  and  C_17 
ROOT
HETATM    1  N   UNL     1      43.697 -18.553   2.799  1.00  0.00    -0.237 N 
HETATM    2  N   UNL     1      44.244 -17.965   1.700  1.00  0.00    -0.179 NA
HETATM    3  C   UNL     1      43.666 -16.773   1.598  1.00  0.00     0.150 A 
HETATM    4  C   UNL     1      42.724 -16.549   2.606  1.00  0.00     0.008 A 
HETATM    5  C   UNL     1      42.772 -17.691   3.385  1.00  0.00     0.047 A 
HETATM    6  C   UNL     1      42.032 -17.861   4.675  1.00  0.00     0.069 C 
HETATM    7  C   UNL     1      41.546 -16.486   5.234  1.00  0.00    -0.040 C 
HETATM    8  C   UNL     1      42.708 -15.738   5.917  1.00  0.00     0.015 C 
HETATM    9  C   UNL     1      40.457 -16.743   6.293  1.00  0.00     0.015 C 
HETATM   10  C   UNL     1      40.935 -15.623   4.088  1.00  0.00     0.039 C 
HETATM   11  C   UNL     1      41.914 -15.340   2.922  1.00  0.00     0.122 C 
ENDROOT
BRANCH  11  12
HETATM   12  N   UNL     1      41.187 -14.956   1.729  1.00  0.00    -0.347 N 
HETATM   13  C   UNL     1      41.482 -13.792   1.068  1.00  0.00     0.270 C 
HETATM   14  O   UNL     1      42.404 -13.043   1.382  1.00  0.00    -0.266 OA
HETATM   15  H   UNL     1      40.353 -15.476   1.503  1.00  0.00     0.163 HD
BRANCH  13  16
HETATM   16  C   UNL     1      40.599 -13.453  -0.078  1.00  0.00     0.120 A 
HETATM   17  N   UNL     1      39.608 -14.321  -0.481  1.00  0.00    -0.303 N 
HETATM   18  C   UNL     1      38.921 -13.777  -1.566  1.00  0.00     0.324 A 
HETATM   19  H   UNL     1      39.411 -15.211  -0.047  1.00  0.00     0.171 HD
HETATM   20  O   UNL     1      37.988 -14.255  -2.182  1.00  0.00    -0.247 OA
HETATM   21  N   UNL     1      39.549 -12.544  -1.793  1.00  0.00    -0.316 N 
HETATM   22  C   UNL     1      40.559 -12.373  -0.876  1.00  0.00     0.128 A 
HETATM   23  H   UNL     1      39.267 -11.908  -2.524  1.00  0.00     0.170 HD
ENDBRANCH  13  16
ENDBRANCH  11  12
BRANCH   1  24
HETATM   24  C   UNL     1      44.078 -19.884   3.173  1.00  0.00     0.064 A 
HETATM   25  C   UNL     1      44.715 -20.164   4.408  1.00  0.00    -0.033 A 
HETATM   26  C   UNL     1      45.010 -19.132   5.465  1.00  0.00     0.050 C 
HETATM   27  C   UNL     1      45.089 -21.494   4.696  1.00  0.00     0.009 A 
HETATM   28  C   UNL     1      44.833 -22.529   3.802  1.00  0.00     0.001 A 
HETATM   29  C   UNL     1      44.210 -22.255   2.593  1.00  0.00     0.002 A 
HETATM   30  C   UNL     1      43.842 -20.944   2.278  1.00  0.00     0.032 A 
ENDBRANCH   1  24
TORSDOF 3
ENDMDL
MODEL 3
REMARK VINA RESULT:      -9.1      5.059      8.185
REMARK  3 active torsions:
REMARK  status: ('A' for Active; 'I' for Inactive)
REMARK    1  A    between atoms: C_3  and  N_4 
REMARK    2  A    between atoms: C_14  and  N_15 
REMARK       I    between atoms: N_15  and  C_16 
REMARK    3  A    between atoms: C_16  and  C_17 
ROOT
HETATM    1  N   UNL     1      42.978 -15.216   3.754  1.00  0.00    -0.237 N 
HETATM    2  N   UNL     1      43.502 -13.961   3.681  1.00  0.00    -0.179 NA
HETATM    3  C   UNL     1      44.065 -13.731   4.863  1.00  0.00     0.150 A 
HETATM    4  C   UNL     1      43.919 -14.810   5.740  1.00  0.00     0.008 A 
HETATM    5  C   UNL     1      43.241 -15.765   5.007  1.00  0.00     0.047 A 
HETATM    6  C   UNL     1      42.973 -17.158   5.484  1.00  0.00     0.069 C 
HETATM    7  C   UNL     1      43.885 -17.526   6.698  1.00  0.00    -0.040 C 
HETATM    8  C   UNL     1      45.304 -17.887   6.219  1.00  0.00     0.015 C 
HETATM    9  C   UNL     1      43.292 -18.761   7.403  1.00  0.00     0.015 C 
HETATM   10  C   UNL     1      43.931 -16.345   7.714  1.00  0.00     0.039 C 
HETATM   11  C   UNL     1      44.456 -15.018   7.115  1.00  0.00     0.122 C 
ENDROOT
BRANCH  11  12
HETATM   12  N   UNL     1      44.052 -13.894   7.935  1.00  0.00    -0.347 N 
HETATM   13  C   UNL     1      44.942 -12.903   8.261  1.00  0.00     0.270 C 
HETATM   14  O   UNL     1      46.094 -12.854   7.838  1.00  0.00    -0.266 OA
HETATM   15  H   UNL     1      43.157 -13.950   8.397  1.00  0.00     0.163 HD
BRANCH  13  16
HETATM   16  C   UNL     1      44.442 -11.861   9.194  1.00  0.00     0.120 A 
HETATM   17  N   UNL     1      43.110 -11.509   9.205  1.00  0.00    -0.303 N 
HETATM   18  C   UNL     1      42.895 -10.519  10.163  1.00  0.00     0.324 A 
HETATM   19  H   UNL     1      42.402 -11.917   8.611  1.00  0.00     0.171 HD
HETATM   20  O   UNL     1      41.850  -9.969  10.455  1.00  0.00    -0.247 OA
HETATM   21  N   UNL     1      44.160 -10.294  10.723  1.00  0.00    -0.316 N 
HETATM   22  C   UNL     1      45.077 -11.122  10.119  1.00  0.00     0.128 A 
HETATM   23  H   UNL     1      44.327  -9.624  11.458  1.00  0.00     0.170 HD
ENDBRANCH  13  16
ENDBRANCH  11  12
BRANCH   1  24
HETATM   24  C   UNL     1      42.254 -15.763   2.644  1.00  0.00     0.064 A 
HETATM   25  C   UNL     1      42.862 -16.639   1.709  1.00  0.00    -0.033 A 
HETATM   26  C   UNL     1      44.286 -17.125   1.801  1.00  0.00     0.050 C 
HETATM   27  C   UNL     1      42.098 -17.115   0.623  1.00  0.00     0.009 A 
HETATM   28  C   UNL     1      40.763 -16.754   0.462  1.00  0.00     0.001 A 
HETATM   29  C   UNL     1      40.168 -15.896   1.376  1.00  0.00     0.002 A 
HETATM   30  C   UNL     1      40.908 -15.400   2.453  1.00  0.00     0.032 A 
ENDBRANCH   1  24
TORSDOF 3
ENDMDL
MODEL 4
REMARK VINA RESULT:      -8.9      4.260      6.624
REMARK  3 active torsions:
REMARK  status: ('A' for Active; 'I' for Inactive)
REMARK    1  A    between atoms: C_3  and  N_4 
REMARK    2  A    between atoms: C_14  and  N_15 
REMARK       I    between atoms: N_15  and  C_16 
REMARK    3  A    between atoms: C_16  and  C_17 
ROOT
HETATM    1  N   UNL     1      42.120 -17.525   4.488  1.00  0.00    -0.237 N 
HETATM    2  N   UNL     1      41.651 -17.675   5.757  1.00  0.00    -0.179 NA
HETATM    3  C   UNL     1      40.962 -16.570   6.025  1.00  0.00     0.150 A 
HETATM    4  C   UNL     1      40.969 -15.667   4.958  1.00  0.00     0.008 A 
HETATM    5  C   UNL     1      41.695 -16.304   3.968  1.00  0.00     0.047 A 
HETATM    6  C   UNL     1      41.859 -15.781   2.576  1.00  0.00     0.069 C 
HETATM    7  C   UNL     1      40.801 -14.676   2.259  1.00  0.00    -0.040 C 
HETATM    8  C   UNL     1      39.435 -15.313   1.934  1.00  0.00     0.015 C 
HETATM    9  C   UNL     1      41.266 -13.891   1.018  1.00  0.00     0.015 C 
HETATM   10  C   UNL     1      40.676 -13.688   3.458  1.00  0.00     0.039 C 
HETATM   11  C   UNL     1      40.270 -14.362   4.790  1.00  0.00     0.122 C 
ENDROOT
BRANCH  11  12
HETATM   12  N   UNL     1      40.613 -13.516   5.915  1.00  0.00    -0.347 N 
HETATM   13  C   UNL     1      39.759 -12.534   6.345  1.00  0.00     0.270 C 
HETATM   14  O   UNL     1      38.640 -12.348   5.873  1.00  0.00    -0.266 OA
HETATM   15  H   UNL     1      41.562 -13.555   6.256  1.00  0.00     0.163 HD
BRANCH  13  16
HETATM   16  C   UNL     1      40.266 -11.662   7.436  1.00  0.00     0.120 A 
HETATM   17  N   UNL     1      41.615 -11.411   7.564  1.00  0.00    -0.303 N 
HETATM   18  C   UNL     1      41.833 -10.570   8.654  1.00  0.00     0.324 A 
HETATM   19  H   UNL     1      42.329 -11.779   6.952  1.00  0.00     0.171 HD
HETATM   20  O   UNL     1      42.890 -10.136   9.069  1.00  0.00    -0.247 OA
HETATM   21  N   UNL     1      40.553 -10.331   9.173  1.00  0.00    -0.316 N 
HETATM   22  C   UNL     1      39.623 -11.002   8.414  1.00  0.00     0.128 A 
HETATM   23  H   UNL     1      40.383  -9.745   9.976  1.00  0.00     0.170 HD
ENDBRANCH  13  16
ENDBRANCH  11  12
BRANCH   1  24
HETATM   24  C   UNL     1      42.949 -18.536   3.899  1.00  0.00     0.064 A 
HETATM   25  C   UNL     1      44.115 -19.020   4.544  1.00  0.00    -0.033 A 
HETATM   26  C   UNL     1      44.576 -18.580   5.910  1.00  0.00     0.050 C 
HETATM   27  C   UNL     1      44.900 -19.994   3.893  1.00  0.00     0.009 A 
HETATM   28  C   UNL     1      44.546 -20.494   2.643  1.00  0.00     0.001 A 
HETATM   29  C   UNL     1      43.406 -20.019   2.010  1.00  0.00     0.002 A 
HETATM   30  C   UNL     1      42.619 -19.045   2.629  1.00  0.00     0.032 A 
ENDBRANCH   1  24
TORSDOF 3
ENDMDL
MODEL 5
REMARK VINA RESULT:      -8.5      4.486      8.209
REMARK  3 active torsions:
REMARK  status: ('A' for Active; 'I' for Inactive)
REMARK    1  A    between atoms: C_3  and  N_4 
REMARK    2  A    between atoms: C_14  and  N_15 
REMARK       I    between atoms: N_15  and  C_16 
REMARK    3  A    between atoms: C_16  and  C_17 
ROOT
HETATM    1  N   UNL     1      42.377 -14.490   2.582  1.00  0.00    -0.237 N 
HETATM    2  N   UNL     1      43.431 -13.638   2.713  1.00  0.00    -0.179 NA
HETATM    3  C   UNL     1      43.861 -13.779   3.963  1.00  0.00     0.150 A 
HETATM    4  C   UNL     1      43.104 -14.707   4.684  1.00  0.00     0.008 A 
HETATM    5  C   UNL     1      42.170 -15.174   3.778  1.00  0.00     0.047 A 
HETATM    6  C   UNL     1      41.216 -16.293   4.053  1.00  0.00     0.069 C 
HETATM    7  C   UNL     1      41.667 -17.127   5.296  1.00  0.00    -0.040 C 
HETATM    8  C   UNL     1      42.804 -18.095   4.915  1.00  0.00     0.015 C 
HETATM    9  C   UNL     1      40.471 -17.967   5.784  1.00  0.00     0.015 C 
HETATM   10  C   UNL     1      42.114 -16.178   6.448  1.00  0.00     0.039 C 
HETATM   11  C   UNL     1      43.278 -15.231   6.068  1.00  0.00     0.122 C 
ENDROOT
BRANCH  11  12
HETATM   12  N   UNL     1      43.335 -14.104   6.976  1.00  0.00    -0.347 N 
HETATM   13  C   UNL     1      44.538 -13.591   7.390  1.00  0.00     0.270 C 
HETATM   14  O   UNL     1      45.626 -13.987   6.979  1.00  0.00    -0.266 OA
HETATM   15  H   UNL     1      42.477 -13.823   7.427  1.00  0.00     0.163 HD
BRANCH  13  16
HETATM   16  C   UNL     1      44.469 -12.507   8.403  1.00  0.00     0.120 A 
HETATM   17  N   UNL     1      43.298 -11.809   8.605  1.00  0.00    -0.303 N 
HETATM   18  C   UNL     1      43.490 -10.853   9.603  1.00  0.00     0.324 A 
HETATM   19  H   UNL     1      42.436 -11.974   8.108  1.00  0.00     0.171 HD
HETATM   20  O   UNL     1      42.684 -10.058  10.047  1.00  0.00    -0.247 OA
HETATM   21  N   UNL     1      44.829 -11.012   9.986  1.00  0.00    -0.316 N 
HETATM   22  C   UNL     1      45.397 -12.022   9.246  1.00  0.00     0.128 A 
HETATM   23  H   UNL     1      45.267 -10.455  10.704  1.00  0.00     0.170 HD
ENDBRANCH  13  16
ENDBRANCH  11  12
BRANCH   1  24
HETATM   24  C   UNL     1      41.648 -14.553   1.348  1.00  0.00     0.064 A 
HETATM   25  C   UNL     1      41.796 -15.635   0.443  1.00  0.00    -0.033 A 
HETATM   26  C   UNL     1      42.672 -16.836   0.690  1.00  0.00     0.050 C 
HETATM   27  C   UNL     1      41.070 -15.616  -0.766  1.00  0.00     0.009 A 
HETATM   28  C   UNL     1      40.206 -14.570  -1.077  1.00  0.00     0.001 A 
HETATM   29  C   UNL     1      40.063 -13.511  -0.193  1.00  0.00     0.002 A 
HETATM   30  C   UNL     1      40.782 -13.499   1.005  1.00  0.00     0.032 A 
ENDBRANCH   1  24
TORSDOF 3
ENDMDL
MODEL 6
REMARK VINA RESULT:      -8.4      4.395      7.226
REMARK  3 active torsions:
REMARK  status: ('A' for Active; 'I' for Inactive)
REMARK    1  A    between atoms: C_3  and  N_4 
REMARK    2  A    between atoms: C_14  and  N_15 
REMARK       I    between atoms: N_15  and  C_16 
REMARK    3  A    between atoms: C_16  and  C_17 
ROOT
HETATM    1  N   UNL     1      42.807 -17.453   4.681  1.00  0.00    -0.237 N 
HETATM    2  N   UNL     1      42.519 -17.646   5.998  1.00  0.00    -0.179 NA
HETATM    3  C   UNL     1      42.184 -16.453   6.478  1.00  0.00     0.150 A 
HETATM    4  C   UNL     1      42.253 -15.450   5.506  1.00  0.00     0.008 A 
HETATM    5  C   UNL     1      42.630 -16.111   4.351  1.00  0.00     0.047 A 
HETATM    6  C   UNL     1      42.703 -15.471   3.001  1.00  0.00     0.069 C 
HETATM    7  C   UNL     1      41.923 -14.117   2.974  1.00  0.00    -0.040 C 
HETATM    8  C   UNL     1      40.407 -14.368   2.852  1.00  0.00     0.015 C 
HETATM    9  C   UNL     1      42.374 -13.315   1.738  1.00  0.00     0.015 C 
HETATM   10  C   UNL     1      42.242 -13.286   4.253  1.00  0.00     0.039 C 
HETATM   11  C   UNL     1      41.891 -14.007   5.577  1.00  0.00     0.122 C 
ENDROOT
BRANCH  11  12
HETATM   12  N   UNL     1      42.609 -13.413   6.687  1.00  0.00    -0.347 N 
HETATM   13  C   UNL     1      43.979 -13.376   6.701  1.00  0.00     0.270 C 
HETATM   14  O   UNL     1      44.682 -13.764   5.771  1.00  0.00    -0.266 OA
HETATM   15  H   UNL     1      42.082 -13.189   7.518  1.00  0.00     0.163 HD
BRANCH  13  16
HETATM   16  C   UNL     1      44.603 -12.841   7.939  1.00  0.00     0.120 A 
HETATM   17  N   UNL     1      43.823 -12.467   9.012  1.00  0.00    -0.303 N 
HETATM   18  C   UNL     1      44.639 -12.003  10.044  1.00  0.00     0.324 A 
HETATM   19  H   UNL     1      42.816 -12.528   9.041  1.00  0.00     0.171 HD
HETATM   20  O   UNL     1      44.306 -11.592  11.139  1.00  0.00    -0.247 OA
HETATM   21  N   UNL     1      45.941 -12.117   9.537  1.00  0.00    -0.316 N 
HETATM   22  C   UNL     1      45.889 -12.629   8.262  1.00  0.00     0.128 A 
HETATM   23  H   UNL     1      46.762 -11.857  10.063  1.00  0.00     0.170 HD
ENDBRANCH  13  16
ENDBRANCH  11  12
BRANCH   1  24
HETATM   24  C   UNL     1      43.250 -18.549   3.870  1.00  0.00     0.064 A 
HETATM   25  C   UNL     1      44.355 -19.358   4.238  1.00  0.00    -0.033 A 
HETATM   26  C   UNL     1      45.136 -19.198   5.517  1.00  0.00     0.050 C 
HETATM   27  C   UNL     1      44.754 -20.401   3.376  1.00  0.00     0.009 A 
HETATM   28  C   UNL     1      44.079 -20.656   2.186  1.00  0.00     0.001 A 
HETATM   29  C   UNL     1      42.999 -19.864   1.824  1.00  0.00     0.002 A 
HETATM   30  C   UNL     1      42.592 -18.816   2.655  1.00  0.00     0.032 A 
ENDBRANCH   1  24
TORSDOF 3
ENDMDL
MODEL 7
REMARK VINA RESULT:      -8.3      4.402      6.881
REMARK  3 active torsions:
REMARK  status: ('A' for Active; 'I' for Inactive)
REMARK    1  A    between atoms: C_3  and  N_4 
REMARK    2  A    between atoms: C_14  and  N_15 
REMARK       I    between atoms: N_15  and  C_16 
REMARK    3  A    between atoms: C_16  and  C_17 
ROOT
HETATM    1  N   UNL     1      44.196 -19.003   4.874  1.00  0.00    -0.237 N 
HETATM    2  N   UNL     1      44.670 -18.863   6.143  1.00  0.00    -0.179 NA
HETATM    3  C   UNL     1      44.376 -17.619   6.507  1.00  0.00     0.150 A 
HETATM    4  C   UNL     1      43.718 -16.910   5.497  1.00  0.00     0.008 A 
HETATM    5  C   UNL     1      43.587 -17.819   4.464  1.00  0.00     0.047 A 
HETATM    6  C   UNL     1      42.819 -17.559   3.206  1.00  0.00     0.069 C 
HETATM    7  C   UNL     1      41.861 -16.335   3.372  1.00  0.00    -0.040 C 
HETATM    8  C   UNL     1      40.593 -16.742   4.147  1.00  0.00     0.015 C 
HETATM    9  C   UNL     1      41.430 -15.855   1.973  1.00  0.00     0.015 C 
HETATM   10  C   UNL     1      42.598 -15.168   4.096  1.00  0.00     0.039 C 
HETATM   11  C   UNL     1      43.139 -15.538   5.499  1.00  0.00     0.122 C 
ENDROOT
BRANCH  11  12
HETATM   12  N   UNL     1      44.172 -14.609   5.908  1.00  0.00    -0.347 N 
HETATM   13  C   UNL     1      44.445 -14.396   7.234  1.00  0.00     0.270 C 
HETATM   14  O   UNL     1      43.903 -15.011   8.149  1.00  0.00    -0.266 OA
HETATM   15  H   UNL     1      44.560 -14.001   5.201  1.00  0.00     0.163 HD
BRANCH  13  16
HETATM   16  C   UNL     1      45.450 -13.343   7.531  1.00  0.00     0.120 A 
HETATM   17  N   UNL     1      45.204 -12.391   8.496  1.00  0.00    -0.303 N 
HETATM   18  C   UNL     1      46.294 -11.524   8.587  1.00  0.00     0.324 A 
HETATM   19  H   UNL     1      44.365 -12.340   9.054  1.00  0.00     0.171 HD
HETATM   20  O   UNL     1      46.434 -10.568   9.325  1.00  0.00    -0.247 OA
HETATM   21  N   UNL     1      47.200 -12.002   7.629  1.00  0.00    -0.316 N 
HETATM   22  C   UNL     1      46.665 -13.105   7.008  1.00  0.00     0.128 A 
HETATM   23  H   UNL     1      48.098 -11.576   7.460  1.00  0.00     0.170 HD
ENDBRANCH  13  16
ENDBRANCH  11  12
BRANCH   1  24
HETATM   24  C   UNL     1      44.389 -20.233   4.162  1.00  0.00     0.064 A 
HETATM   25  C   UNL     1      44.461 -21.483   4.827  1.00  0.00    -0.033 A 
HETATM   26  C   UNL     1      44.293 -21.666   6.313  1.00  0.00     0.050 C 
HETATM   27  C   UNL     1      44.684 -22.649   4.065  1.00  0.00     0.009 A 
HETATM   28  C   UNL     1      44.820 -22.596   2.680  1.00  0.00     0.001 A 
HETATM   29  C   UNL     1      44.751 -21.373   2.030  1.00  0.00     0.002 A 
HETATM   30  C   UNL     1      44.545 -20.201   2.764  1.00  0.00     0.032 A 
ENDBRANCH   1  24
TORSDOF 3
ENDMDL
MODEL 8
REMARK VINA RESULT:      -8.2      2.199      3.244
REMARK  3 active torsions:
REMARK  status: ('A' for Active; 'I' for Inactive)
REMARK    1  A    between atoms: C_3  and  N_4 
REMARK    2  A    between atoms: C_14  and  N_15 
REMARK       I    between atoms: N_15  and  C_16 
REMARK    3  A    between atoms: C_16  and  C_17 
ROOT
HETATM    1  N   UNL     1      42.985 -16.508   4.162  1.00  0.00    -0.237 N 
HETATM    2  N   UNL     1      43.587 -16.649   2.948  1.00  0.00    -0.179 NA
HETATM    3  C   UNL     1      42.989 -15.778   2.142  1.00  0.00     0.150 A 
HETATM    4  C   UNL     1      41.982 -15.057   2.789  1.00  0.00     0.008 A 
HETATM    5  C   UNL     1      42.007 -15.518   4.092  1.00  0.00     0.047 A 
HETATM    6  C   UNL     1      41.192 -14.939   5.206  1.00  0.00     0.069 C 
HETATM    7  C   UNL     1      40.641 -13.527   4.828  1.00  0.00    -0.040 C 
HETATM    8  C   UNL     1      41.740 -12.458   4.982  1.00  0.00     0.015 C 
HETATM    9  C   UNL     1      39.494 -13.172   5.794  1.00  0.00     0.015 C 
HETATM   10  C   UNL     1      40.083 -13.537   3.372  1.00  0.00     0.039 C 
HETATM   11  C   UNL     1      41.125 -13.939   2.301  1.00  0.00     0.122 C 
ENDROOT
BRANCH  11  12
HETATM   12  N   UNL     1      40.466 -14.370   1.085  1.00  0.00    -0.347 N 
HETATM   13  C   UNL     1      40.730 -13.761  -0.114  1.00  0.00     0.270 C 
HETATM   14  O   UNL     1      41.573 -12.879  -0.261  1.00  0.00    -0.266 OA
HETATM   15  H   UNL     1      39.688 -15.006   1.176  1.00  0.00     0.163 HD
BRANCH  13  16
HETATM   16  C   UNL     1      39.915 -14.217  -1.269  1.00  0.00     0.120 A 
HETATM   17  N   UNL     1      40.493 -14.927  -2.299  1.00  0.00    -0.303 N 
HETATM   18  C   UNL     1      39.524 -15.239  -3.253  1.00  0.00     0.324 A 
HETATM   19  H   UNL     1      41.467 -15.185  -2.344  1.00  0.00     0.171 HD
HETATM   20  O   UNL     1      39.663 -15.855  -4.292  1.00  0.00    -0.247 OA
HETATM   21  N   UNL     1      38.343 -14.680  -2.746  1.00  0.00    -0.316 N 
HETATM   22  C   UNL     1      38.608 -14.070  -1.543  1.00  0.00     0.128 A 
HETATM   23  H   UNL     1      37.455 -14.745  -3.221  1.00  0.00     0.170 HD
ENDBRANCH  13  16
ENDBRANCH  11  12
BRANCH   1  24
HETATM   24  C   UNL     1      43.372 -17.342   5.262  1.00  0.00     0.064 A 
HETATM   25  C   UNL     1      44.066 -16.828   6.387  1.00  0.00    -0.033 A 
HETATM   26  C   UNL     1      44.420 -15.376   6.576  1.00  0.00     0.050 C 
HETATM   27  C   UNL     1      44.441 -17.714   7.419  1.00  0.00     0.009 A 
HETATM   28  C   UNL     1      44.133 -19.070   7.359  1.00  0.00     0.001 A 
HETATM   29  C   UNL     1      43.456 -19.573   6.258  1.00  0.00     0.002 A 
HETATM   30  C   UNL     1      43.085 -18.719   5.216  1.00  0.00     0.032 A 
ENDBRANCH   1  24
TORSDOF 3
ENDMDL
MODEL 9
REMARK VINA RESULT:      -8.2      5.697      8.498
REMARK  3 active torsions:
REMARK  status: ('A' for Active; 'I' for Inactive)
REMARK    1  A    between atoms: C_3  and  N_4 
REMARK    2  A    between atoms: C_14  and  N_15 
REMARK       I    between atoms: N_15  and  C_16 
REMARK    3  A    between atoms: C_16  and  C_17 
ROOT
HETATM    1  N   UNL     1      41.312 -15.226   4.060  1.00  0.00    -0.237 N 
HETATM    2  N   UNL     1      40.883 -15.873   5.179  1.00  0.00    -0.179 NA
HETATM    3  C   UNL     1      40.349 -14.939   5.959  1.00  0.00     0.150 A 
HETATM    4  C   UNL     1      40.423 -13.665   5.390  1.00  0.00     0.008 A 
HETATM    5  C   UNL     1      41.021 -13.867   4.160  1.00  0.00     0.047 A 
HETATM    6  C   UNL     1      41.189 -12.804   3.121  1.00  0.00     0.069 C 
HETATM    7  C   UNL     1      40.263 -11.579   3.410  1.00  0.00    -0.040 C 
HETATM    8  C   UNL     1      38.816 -11.878   2.972  1.00  0.00     0.015 C 
HETATM    9  C   UNL     1      40.769 -10.376   2.591  1.00  0.00     0.015 C 
HETATM   10  C   UNL     1      40.314 -11.210   4.924  1.00  0.00     0.039 C 
HETATM   11  C   UNL     1      39.885 -12.360   5.867  1.00  0.00     0.122 C 
ENDROOT
BRANCH  11  12
HETATM   12  N   UNL     1      40.378 -12.129   7.209  1.00  0.00    -0.347 N 
HETATM   13  C   UNL     1      39.792 -11.197   8.027  1.00  0.00     0.270 C 
HETATM   14  O   UNL     1      38.788 -10.558   7.722  1.00  0.00    -0.266 OA
HETATM   15  H   UNL     1      41.264 -12.544   7.459  1.00  0.00     0.163 HD
BRANCH  13  16
HETATM   16  C   UNL     1      40.452 -10.975   9.338  1.00  0.00     0.120 A 
HETATM   17  N   UNL     1      39.918 -11.506  10.492  1.00  0.00    -0.303 N 
HETATM   18  C   UNL     1      40.719 -11.160  11.581  1.00  0.00     0.324 A 
HETATM   19  H   UNL     1      39.080 -12.065  10.534  1.00  0.00     0.171 HD
HETATM   20  O   UNL     1      40.563 -11.450  12.751  1.00  0.00    -0.247 OA
HETATM   21  N   UNL     1      41.754 -10.396  11.023  1.00  0.00    -0.316 N 
HETATM   22  C   UNL     1      41.569 -10.302   9.665  1.00  0.00     0.128 A 
HETATM   23  H   UNL     1      42.503 -10.000  11.571  1.00  0.00     0.170 HD
ENDBRANCH  13  16
ENDBRANCH  11  12
BRANCH   1  24
HETATM   24  C   UNL     1      41.983 -15.949   3.019  1.00  0.00     0.064 A 
HETATM   25  C   UNL     1      41.326 -16.318   1.818  1.00  0.00    -0.033 A 
HETATM   26  C   UNL     1      39.902 -15.958   1.483  1.00  0.00     0.050 C 
HETATM   27  C   UNL     1      42.040 -17.055   0.849  1.00  0.00     0.009 A 
HETATM   28  C   UNL     1      43.371 -17.411   1.045  1.00  0.00     0.001 A 
HETATM   29  C   UNL     1      44.013 -17.051   2.220  1.00  0.00     0.002 A 
HETATM   30  C   UNL     1      43.324 -16.332   3.201  1.00  0.00     0.032 A 
ENDBRANCH   1  24
TORSDOF 3
ENDMDL
MODEL 10
REMARK VINA RESULT:      -8.2      3.188      4.195
REMARK  3 active torsions:
REMARK  status: ('A' for Active; 'I' for Inactive)
REMARK    1  A    between atoms: C_3  and  N_4 
REMARK    2  A    between atoms: C_14  and  N_15 
REMARK       I    between atoms: N_15  and  C_16 
REMARK    3  A    between atoms: C_16  and  C_17 
ROOT
HETATM    1  N   UNL     1      42.481 -15.327   3.874  1.00  0.00    -0.237 N 
HETATM    2  N   UNL     1      43.199 -15.749   2.796  1.00  0.00    -0.179 NA
HETATM    3  C   UNL     1      42.662 -15.146   1.740  1.00  0.00     0.150 A 
HETATM    4  C   UNL     1      41.581 -14.330   2.087  1.00  0.00     0.008 A 
HETATM    5  C   UNL     1      41.492 -14.437   3.462  1.00  0.00     0.047 A 
HETATM    6  C   UNL     1      40.561 -13.628   4.310  1.00  0.00     0.069 C 
HETATM    7  C   UNL     1      40.017 -12.389   3.529  1.00  0.00    -0.040 C 
HETATM    8  C   UNL     1      41.072 -11.266   3.491  1.00  0.00     0.015 C 
HETATM    9  C   UNL     1      38.775 -11.851   4.265  1.00  0.00     0.015 C 
HETATM   10  C   UNL     1      39.601 -12.803   2.085  1.00  0.00     0.039 C 
HETATM   11  C   UNL     1      40.749 -13.419   1.251  1.00  0.00     0.122 C 
ENDROOT
BRANCH  11  12
HETATM   12  N   UNL     1      40.220 -14.181   0.138  1.00  0.00    -0.347 N 
HETATM   13  C   UNL     1      40.766 -14.073  -1.115  1.00  0.00     0.270 C 
HETATM   14  O   UNL     1      41.761 -13.400  -1.369  1.00  0.00    -0.266 OA
HETATM   15  H   UNL     1      39.338 -14.653   0.274  1.00  0.00     0.163 HD
BRANCH  13  16
HETATM   16  C   UNL     1      40.070 -14.820  -2.194  1.00  0.00     0.120 A 
HETATM   17  N   UNL     1      38.753 -14.552  -2.496  1.00  0.00    -0.303 N 
HETATM   18  C   UNL     1      38.335 -15.378  -3.540  1.00  0.00     0.324 A 
HETATM   19  H   UNL     1      38.186 -13.858  -2.032  1.00  0.00     0.171 HD
HETATM   20  O   UNL     1      37.241 -15.423  -4.070  1.00  0.00    -0.247 OA
HETATM   21  N   UNL     1      39.463 -16.152  -3.846  1.00  0.00    -0.316 N 
HETATM   22  C   UNL     1      40.499 -15.791  -3.018  1.00  0.00     0.128 A 
HETATM   23  H   UNL     1      39.471 -16.850  -4.573  1.00  0.00     0.170 HD
ENDBRANCH  13  16
ENDBRANCH  11  12
BRANCH   1  24
HETATM   24  C   UNL     1      42.780 -15.829   5.183  1.00  0.00     0.064 A 
HETATM   25  C   UNL     1      42.146 -16.983   5.708  1.00  0.00    -0.033 A 
HETATM   26  C   UNL     1      41.151 -17.825   4.951  1.00  0.00     0.050 C 
HETATM   27  C   UNL     1      42.467 -17.402   7.016  1.00  0.00     0.009 A 
HETATM   28  C   UNL     1      43.398 -16.716   7.790  1.00  0.00     0.001 A 
HETATM   29  C   UNL     1      44.018 -15.585   7.277  1.00  0.00     0.002 A 
HETATM   30  C   UNL     1      43.707 -15.142   5.989  1.00  0.00     0.032 A 
ENDBRANCH   1  24
TORSDOF 3
ENDMDL
