MODEL 1
REMARK VINA RESULT:      -9.4      0.000      0.000
REMARK  7 active torsions:
REMARK  status: ('A' for Active; 'I' for Inactive)
REMARK    1  A    between atoms: O_2  and  C_3 
REMARK    2  A    between atoms: C_6  and  N_7 
REMARK    3  A    between atoms: N_7  and  C_8 
REMARK    4  A    between atoms: C_8  and  C_9 
REMARK       I    between atoms: C_9  and  N_10 
REMARK    5  A    between atoms: N_10  and  N_11 
REMARK       I    between atoms: N_11  and  C_12 
REMARK    6  A    between atoms: C_12  and  C_13 
REMARK    7  A    between atoms: N_15  and  C_16 
ROOT
HETATM    1  N   UNL     1      44.197 -14.139   7.376  1.00  0.00    -0.263 N 
HETATM    2  C   UNL     1      43.461 -14.736   6.369  1.00  0.00     0.273 C 
HETATM    3  O   UNL     1      42.530 -14.158   5.807  1.00  0.00    -0.266 OA
HETATM    4  H   UNL     1      44.679 -14.722   8.059  1.00  0.00     0.190 HD
ENDROOT
BRANCH   1   5
HETATM    5  N   UNL     1      43.738 -12.902   7.872  1.00  0.00    -0.266 N 
HETATM    6  C   UNL     1      44.431 -12.357   8.940  1.00  0.00     0.253 C 
HETATM    7  O   UNL     1      45.480 -12.847   9.366  1.00  0.00    -0.270 OA
HETATM    8  H   UNL     1      42.736 -12.739   7.775  1.00  0.00     0.190 HD
BRANCH   6   9
HETATM    9  C   UNL     1      43.785 -11.093   9.522  1.00  0.00     0.224 C 
BRANCH   9  10
HETATM   10  N   UNL     1      42.715 -11.470  10.442  1.00  0.00    -0.381 N 
HETATM   11  H   UNL     1      41.806 -11.514   9.981  1.00  0.00     0.160 HD
BRANCH  10  12
HETATM   12  C   UNL     1      42.674 -11.005  11.750  1.00  0.00     0.028 A 
HETATM   13  C   UNL     1      43.651 -10.088  12.162  1.00  0.00     0.032 A 
HETATM   14  C   UNL     1      43.609  -9.480  13.425  1.00  0.00     0.039 A 
HETATM   15  C   UNL     1      42.561  -9.760  14.297  1.00  0.00     0.068 A 
HETATM   16  C   UNL     1      41.579 -10.666  13.899  1.00  0.00     0.039 A 
HETATM   17  C   UNL     1      41.627 -11.270  12.637  1.00  0.00     0.032 A 
BRANCH  15  18
HETATM   18  O   UNL     1      42.382  -9.221  15.540  1.00  0.00    -0.356 OA
HETATM   19  C   UNL     1      41.147  -8.557  15.773  1.00  0.00     0.210 C 
ENDBRANCH  15  18
ENDBRANCH  10  12
ENDBRANCH   9  10
ENDBRANCH   6   9
ENDBRANCH   1   5
BRANCH   2  20
HETATM   20  C   UNL     1      43.865 -16.086   6.033  1.00  0.00     0.070 A 
HETATM   21  C   UNL     1      43.521 -16.773   4.885  1.00  0.00     0.137 A 
HETATM   22  N   UNL     1      44.129 -18.007   4.937  1.00  0.00    -0.244 N 
HETATM   23  N   UNL     1      44.866 -18.138   6.069  1.00  0.00    -0.179 NA
HETATM   24  C   UNL     1      44.697 -16.988   6.721  1.00  0.00     0.157 A 
BRANCH  22  25
HETATM   25  C   UNL     1      44.060 -19.062   3.986  1.00  0.00     0.059 A 
HETATM   26  C   UNL     1      44.450 -20.357   4.367  1.00  0.00     0.055 A 
HETATM   27  C   UNL     1      44.395 -21.398   3.442  1.00  0.00     0.036 A 
HETATM   28 CL   UNL     1      44.891 -22.980   3.906  1.00  0.00    -0.084 Cl
HETATM   29  C   UNL     1      43.944 -21.171   2.144  1.00  0.00     0.024 A 
HETATM   30  C   UNL     1      43.549 -19.889   1.763  1.00  0.00     0.004 A 
HETATM   31  C   UNL     1      43.609 -18.833   2.678  1.00  0.00     0.031 A 
ENDBRANCH  22  25
ENDBRANCH   2  20
TORSDOF 7
ENDMDL
MODEL 2
REMARK VINA RESULT:      -9.1      1.288      1.686
REMARK  7 active torsions:
REMARK  status: ('A' for Active; 'I' for Inactive)
REMARK    1  A    between atoms: O_2  and  C_3 
REMARK    2  A    between atoms: C_6  and  N_7 
REMARK    3  A    between atoms: N_7  and  C_8 
REMARK    4  A    between atoms: C_8  and  C_9 
REMARK       I    between atoms: C_9  and  N_10 
REMARK    5  A    between atoms: N_10  and  N_11 
REMARK       I    between atoms: N_11  and  C_12 
REMARK    6  A    between atoms: C_12  and  C_13 
REMARK    7  A    between atoms: N_15  and  C_16 
ROOT
HETATM    1  N   UNL     1      44.256 -14.876   6.521  1.00  0.00    -0.263 N 
HETATM    2  C   UNL     1      43.152 -15.066   5.709  1.00  0.00     0.273 C 
HETATM    3  O   UNL     1      42.102 -14.446   5.876  1.00  0.00    -0.266 OA
HETATM    4  H   UNL     1      44.944 -15.622   6.616  1.00  0.00     0.190 HD
ENDROOT
BRANCH   1   5
HETATM    5  N   UNL     1      44.089 -14.074   7.669  1.00  0.00    -0.266 N 
HETATM    6  C   UNL     1      45.122 -13.207   7.985  1.00  0.00     0.253 C 
HETATM    7  O   UNL     1      46.090 -13.035   7.242  1.00  0.00    -0.270 OA
HETATM    8  H   UNL     1      43.520 -14.486   8.408  1.00  0.00     0.190 HD
BRANCH   6   9
HETATM    9  C   UNL     1      44.937 -12.483   9.324  1.00  0.00     0.224 C 
BRANCH   9  10
HETATM   10  N   UNL     1      43.654 -11.784   9.330  1.00  0.00    -0.381 N 
HETATM   11  H   UNL     1      43.502 -11.247   8.477  1.00  0.00     0.160 HD
BRANCH  10  12
HETATM   12  C   UNL     1      43.145 -11.193  10.480  1.00  0.00     0.028 A 
HETATM   13  C   UNL     1      44.048 -10.697  11.430  1.00  0.00     0.032 A 
HETATM   14  C   UNL     1      43.618  -9.981  12.556  1.00  0.00     0.039 A 
HETATM   15  C   UNL     1      42.263  -9.721  12.739  1.00  0.00     0.068 A 
HETATM   16  C   UNL     1      41.353 -10.203  11.799  1.00  0.00     0.039 A 
HETATM   17  C   UNL     1      41.790 -10.918  10.677  1.00  0.00     0.032 A 
BRANCH  15  18
HETATM   18  O   UNL     1      41.711  -9.016  13.771  1.00  0.00    -0.356 OA
HETATM   19  C   UNL     1      41.479  -9.731  14.978  1.00  0.00     0.210 C 
ENDBRANCH  15  18
ENDBRANCH  10  12
ENDBRANCH   9  10
ENDBRANCH   6   9
ENDBRANCH   1   5
BRANCH   2  20
HETATM   20  C   UNL     1      43.328 -16.047   4.659  1.00  0.00     0.070 A 
HETATM   21  C   UNL     1      43.571 -17.395   4.840  1.00  0.00     0.137 A 
HETATM   22  N   UNL     1      43.643 -17.980   3.596  1.00  0.00    -0.244 N 
HETATM   23  N   UNL     1      43.441 -17.063   2.615  1.00  0.00    -0.179 NA
HETATM   24  C   UNL     1      43.259 -15.911   3.260  1.00  0.00     0.157 A 
BRANCH  22  25
HETATM   25  C   UNL     1      43.887 -19.344   3.279  1.00  0.00     0.059 A 
HETATM   26  C   UNL     1      44.430 -20.191   4.260  1.00  0.00     0.055 A 
HETATM   27  C   UNL     1      44.682 -21.529   3.959  1.00  0.00     0.036 A 
HETATM   28 CL   UNL     1      45.365 -22.559   5.157  1.00  0.00    -0.084 Cl
HETATM   29  C   UNL     1      44.388 -22.039   2.697  1.00  0.00     0.024 A 
HETATM   30  C   UNL     1      43.842 -21.205   1.723  1.00  0.00     0.004 A 
HETATM   31  C   UNL     1      43.594 -19.859   2.007  1.00  0.00     0.031 A 
ENDBRANCH  22  25
ENDBRANCH   2  20
TORSDOF 7
ENDMDL
MODEL 3
REMARK VINA RESULT:      -8.6      1.548      2.268
REMARK  7 active torsions:
REMARK  status: ('A' for Active; 'I' for Inactive)
REMARK    1  A    between atoms: O_2  and  C_3 
REMARK    2  A    between atoms: C_6  and  N_7 
REMARK    3  A    between atoms: N_7  and  C_8 
REMARK    4  A    between atoms: C_8  and  C_9 
REMARK       I    between atoms: C_9  and  N_10 
REMARK    5  A    between atoms: N_10  and  N_11 
REMARK       I    between atoms: N_11  and  C_12 
REMARK    6  A    between atoms: C_12  and  C_13 
REMARK    7  A    between atoms: N_15  and  C_16 
ROOT
HETATM    1  N   UNL     1      42.537 -13.830   5.986  1.00  0.00    -0.263 N 
HETATM    2  C   UNL     1      43.330 -14.949   6.166  1.00  0.00     0.273 C 
HETATM    3  O   UNL     1      44.034 -15.100   7.164  1.00  0.00    -0.266 OA
HETATM    4  H   UNL     1      42.275 -13.546   5.044  1.00  0.00     0.190 HD
ENDROOT
BRANCH   1   5
HETATM    5  N   UNL     1      42.692 -12.769   6.903  1.00  0.00    -0.266 N 
HETATM    6  C   UNL     1      41.662 -11.846   6.975  1.00  0.00     0.253 C 
HETATM    7  O   UNL     1      40.597 -11.996   6.372  1.00  0.00    -0.270 OA
HETATM    8  H   UNL     1      43.655 -12.478   7.073  1.00  0.00     0.190 HD
BRANCH   6   9
HETATM    9  C   UNL     1      41.967 -10.643   7.877  1.00  0.00     0.224 C 
BRANCH   9  10
HETATM   10  N   UNL     1      42.992 -11.009   8.851  1.00  0.00    -0.381 N 
HETATM   11  H   UNL     1      43.424 -11.908   8.638  1.00  0.00     0.160 HD
BRANCH  10  12
HETATM   12  C   UNL     1      42.842 -10.750  10.207  1.00  0.00     0.028 A 
HETATM   13  C   UNL     1      41.638 -11.112  10.826  1.00  0.00     0.032 A 
HETATM   14  C   UNL     1      41.453 -10.996  12.210  1.00  0.00     0.039 A 
HETATM   15  C   UNL     1      42.492 -10.537  13.015  1.00  0.00     0.068 A 
HETATM   16  C   UNL     1      43.698 -10.178  12.415  1.00  0.00     0.039 A 
HETATM   17  C   UNL     1      43.876 -10.296  11.030  1.00  0.00     0.032 A 
BRANCH  15  18
HETATM   18  O   UNL     1      42.458 -10.401  14.374  1.00  0.00    -0.356 OA
HETATM   19  C   UNL     1      42.375  -9.074  14.879  1.00  0.00     0.210 C 
ENDBRANCH  15  18
ENDBRANCH  10  12
ENDBRANCH   9  10
ENDBRANCH   6   9
ENDBRANCH   1   5
BRANCH   2  20
HETATM   20  C   UNL     1      43.270 -15.919   5.092  1.00  0.00     0.070 A 
HETATM   21  C   UNL     1      43.744 -17.216   5.144  1.00  0.00     0.137 A 
HETATM   22  N   UNL     1      43.467 -17.812   3.934  1.00  0.00    -0.244 N 
HETATM   23  N   UNL     1      42.818 -16.954   3.107  1.00  0.00    -0.179 NA
HETATM   24  C   UNL     1      42.710 -15.824   3.805  1.00  0.00     0.157 A 
BRANCH  22  25
HETATM   25  C   UNL     1      43.774 -19.136   3.517  1.00  0.00     0.059 A 
HETATM   26  C   UNL     1      44.328 -20.037   4.442  1.00  0.00     0.055 A 
HETATM   27  C   UNL     1      44.641 -21.336   4.044  1.00  0.00     0.036 A 
HETATM   28 CL   UNL     1      45.336 -22.432   5.174  1.00  0.00    -0.084 Cl
HETATM   29  C   UNL     1      44.399 -21.754   2.738  1.00  0.00     0.024 A 
HETATM   30  C   UNL     1      43.843 -20.866   1.817  1.00  0.00     0.004 A 
HETATM   31  C   UNL     1      43.534 -19.558   2.201  1.00  0.00     0.031 A 
ENDBRANCH  22  25
ENDBRANCH   2  20
TORSDOF 7
ENDMDL
MODEL 4
REMARK VINA RESULT:      -8.2      4.011     11.327
REMARK  7 active torsions:
REMARK  status: ('A' for Active; 'I' for Inactive)
REMARK    1  A    between atoms: O_2  and  C_3 
REMARK    2  A    between atoms: C_6  and  N_7 
REMARK    3  A    between atoms: N_7  and  C_8 
REMARK    4  A    between atoms: C_8  and  C_9 
REMARK       I    between atoms: C_9  and  N_10 
REMARK    5  A    between atoms: N_10  and  N_11 
REMARK       I    between atoms: N_11  and  C_12 
REMARK    6  A    between atoms: C_12  and  C_13 
REMARK    7  A    between atoms: N_15  and  C_16 
ROOT
HETATM    1  N   UNL     1      43.402 -13.554   6.827  1.00  0.00    -0.263 N 
HETATM    2  C   UNL     1      44.662 -13.318   7.344  1.00  0.00     0.273 C 
HETATM    3  O   UNL     1      45.681 -13.768   6.820  1.00  0.00    -0.266 OA
HETATM    4  H   UNL     1      42.590 -13.511   7.441  1.00  0.00     0.190 HD
ENDROOT
BRANCH   1   5
HETATM    5  N   UNL     1      43.296 -14.482   5.770  1.00  0.00    -0.266 N 
HETATM    6  C   UNL     1      42.832 -14.002   4.556  1.00  0.00     0.253 C 
HETATM    7  O   UNL     1      42.640 -12.802   4.351  1.00  0.00    -0.270 OA
HETATM    8  H   UNL     1      43.097 -15.442   6.052  1.00  0.00     0.190 HD
BRANCH   6   9
HETATM    9  C   UNL     1      42.600 -15.093   3.504  1.00  0.00     0.224 C 
BRANCH   9  10
HETATM   10  N   UNL     1      42.243 -16.345   4.167  1.00  0.00    -0.381 N 
HETATM   11  H   UNL     1      42.116 -16.228   5.172  1.00  0.00     0.160 HD
BRANCH  10  12
HETATM   12  C   UNL     1      42.807 -17.559   3.796  1.00  0.00     0.028 A 
HETATM   13  C   UNL     1      42.662 -17.984   2.468  1.00  0.00     0.032 A 
HETATM   14  C   UNL     1      43.301 -19.133   1.985  1.00  0.00     0.039 A 
HETATM   15  C   UNL     1      44.131 -19.872   2.824  1.00  0.00     0.068 A 
HETATM   16  C   UNL     1      44.291 -19.459   4.146  1.00  0.00     0.039 A 
HETATM   17  C   UNL     1      43.647 -18.310   4.622  1.00  0.00     0.032 A 
BRANCH  15  18
HETATM   18  O   UNL     1      44.834 -20.991   2.478  1.00  0.00    -0.356 OA
HETATM   19  C   UNL     1      44.155 -21.947   1.673  1.00  0.00     0.210 C 
ENDBRANCH  15  18
ENDBRANCH  10  12
ENDBRANCH   9  10
ENDBRANCH   6   9
ENDBRANCH   1   5
BRANCH   2  20
HETATM   20  C   UNL     1      44.688 -12.509   8.546  1.00  0.00     0.070 A 
HETATM   21  C   UNL     1      43.584 -12.057   9.243  1.00  0.00     0.137 A 
HETATM   22  N   UNL     1      44.038 -11.353  10.336  1.00  0.00    -0.244 N 
HETATM   23  N   UNL     1      45.394 -11.344  10.379  1.00  0.00    -0.179 NA
HETATM   24  C   UNL     1      45.773 -12.032   9.303  1.00  0.00     0.157 A 
BRANCH  22  25
HETATM   25  C   UNL     1      43.272 -10.694  11.336  1.00  0.00     0.059 A 
HETATM   26  C   UNL     1      41.870 -10.696  11.240  1.00  0.00     0.055 A 
HETATM   27  C   UNL     1      41.107 -10.047  12.210  1.00  0.00     0.036 A 
HETATM   28 CL   UNL     1      39.391 -10.034  12.080  1.00  0.00    -0.084 Cl
HETATM   29  C   UNL     1      41.721  -9.405  13.282  1.00  0.00     0.024 A 
HETATM   30  C   UNL     1      43.112  -9.408  13.387  1.00  0.00     0.004 A 
HETATM   31  C   UNL     1      43.889 -10.046  12.416  1.00  0.00     0.031 A 
ENDBRANCH  22  25
ENDBRANCH   2  20
TORSDOF 7
ENDMDL
MODEL 5
REMARK VINA RESULT:      -7.8      4.491     11.786
REMARK  7 active torsions:
REMARK  status: ('A' for Active; 'I' for Inactive)
REMARK    1  A    between atoms: O_2  and  C_3 
REMARK    2  A    between atoms: C_6  and  N_7 
REMARK    3  A    between atoms: N_7  and  C_8 
REMARK    4  A    between atoms: C_8  and  C_9 
REMARK       I    between atoms: C_9  and  N_10 
REMARK    5  A    between atoms: N_10  and  N_11 
REMARK       I    between atoms: N_11  and  C_12 
REMARK    6  A    between atoms: C_12  and  C_13 
REMARK    7  A    between atoms: N_15  and  C_16 
ROOT
HETATM    1  N   UNL     1      39.848 -13.516   6.872  1.00  0.00    -0.263 N 
HETATM    2  C   UNL     1      39.316 -12.302   6.477  1.00  0.00     0.273 C 
HETATM    3  O   UNL     1      38.735 -12.160   5.402  1.00  0.00    -0.266 OA
HETATM    4  H   UNL     1      40.616 -13.535   7.540  1.00  0.00     0.190 HD
ENDROOT
BRANCH   1   5
HETATM    5  N   UNL     1      39.864 -14.559   5.922  1.00  0.00    -0.266 N 
HETATM    6  C   UNL     1      41.103 -14.961   5.452  1.00  0.00     0.253 C 
HETATM    7  O   UNL     1      42.159 -14.533   5.923  1.00  0.00    -0.270 OA
HETATM    8  H   UNL     1      39.045 -14.608   5.316  1.00  0.00     0.190 HD
BRANCH   6   9
HETATM    9  C   UNL     1      41.034 -15.987   4.314  1.00  0.00     0.224 C 
BRANCH   9  10
HETATM   10  N   UNL     1      42.294 -15.987   3.576  1.00  0.00    -0.381 N 
HETATM   11  H   UNL     1      42.298 -15.303   2.819  1.00  0.00     0.160 HD
BRANCH  10  12
HETATM   12  C   UNL     1      42.981 -17.161   3.294  1.00  0.00     0.028 A 
HETATM   13  C   UNL     1      43.564 -17.863   4.358  1.00  0.00     0.032 A 
HETATM   14  C   UNL     1      44.168 -19.114   4.175  1.00  0.00     0.039 A 
HETATM   15  C   UNL     1      44.175 -19.707   2.916  1.00  0.00     0.068 A 
HETATM   16  C   UNL     1      43.593 -19.023   1.849  1.00  0.00     0.039 A 
HETATM   17  C   UNL     1      42.992 -17.772   2.038  1.00  0.00     0.032 A 
BRANCH  15  18
HETATM   18  O   UNL     1      44.701 -20.928   2.602  1.00  0.00    -0.356 OA
HETATM   19  C   UNL     1      43.910 -21.767   1.770  1.00  0.00     0.210 C 
ENDBRANCH  15  18
ENDBRANCH  10  12
ENDBRANCH   9  10
ENDBRANCH   6   9
ENDBRANCH   1   5
BRANCH   2  20
HETATM   20  C   UNL     1      39.500 -11.219   7.421  1.00  0.00     0.070 A 
HETATM   21  C   UNL     1      39.813 -11.354   8.759  1.00  0.00     0.137 A 
HETATM   22  N   UNL     1      39.929 -10.089   9.293  1.00  0.00    -0.244 N 
HETATM   23  N   UNL     1      39.715  -9.141   8.345  1.00  0.00    -0.179 NA
HETATM   24  C   UNL     1      39.454  -9.825   7.232  1.00  0.00     0.157 A 
BRANCH  22  25
HETATM   25  C   UNL     1      40.229  -9.726  10.634  1.00  0.00     0.059 A 
HETATM   26  C   UNL     1      41.539  -9.894  11.114  1.00  0.00     0.055 A 
HETATM   27  C   UNL     1      41.845  -9.549  12.430  1.00  0.00     0.036 A 
HETATM   28 CL   UNL     1      43.446  -9.773  13.021  1.00  0.00    -0.084 Cl
HETATM   29  C   UNL     1      40.867  -9.027  13.272  1.00  0.00     0.024 A 
HETATM   30  C   UNL     1      39.567  -8.851  12.798  1.00  0.00     0.004 A 
HETATM   31  C   UNL     1      39.244  -9.202  11.484  1.00  0.00     0.031 A 
ENDBRANCH  22  25
ENDBRANCH   2  20
TORSDOF 7
ENDMDL
MODEL 6
REMARK VINA RESULT:      -7.7      6.691     10.723
REMARK  7 active torsions:
REMARK  status: ('A' for Active; 'I' for Inactive)
REMARK    1  A    between atoms: O_2  and  C_3 
REMARK    2  A    between atoms: C_6  and  N_7 
REMARK    3  A    between atoms: N_7  and  C_8 
REMARK    4  A    between atoms: C_8  and  C_9 
REMARK       I    between atoms: C_9  and  N_10 
REMARK    5  A    between atoms: N_10  and  N_11 
REMARK       I    between atoms: N_11  and  C_12 
REMARK    6  A    between atoms: C_12  and  C_13 
REMARK    7  A    between atoms: N_15  and  C_16 
ROOT
HETATM    1  N   UNL     1      40.224 -15.725   3.609  1.00  0.00    -0.263 N 
HETATM    2  C   UNL     1      40.244 -16.096   2.277  1.00  0.00     0.273 C 
HETATM    3  O   UNL     1      40.702 -17.176   1.905  1.00  0.00    -0.266 OA
HETATM    4  H   UNL     1      40.204 -14.736   3.856  1.00  0.00     0.190 HD
ENDROOT
BRANCH   1   5
HETATM    5  N   UNL     1      40.910 -16.549   4.525  1.00  0.00    -0.266 N 
HETATM    6  C   UNL     1      41.756 -15.921   5.424  1.00  0.00     0.253 C 
HETATM    7  O   UNL     1      41.822 -14.694   5.523  1.00  0.00    -0.270 OA
HETATM    8  H   UNL     1      41.123 -17.488   4.189  1.00  0.00     0.190 HD
BRANCH   6   9
HETATM    9  C   UNL     1      42.580 -16.889   6.282  1.00  0.00     0.224 C 
BRANCH   9  10
HETATM   10  N   UNL     1      43.896 -17.080   5.678  1.00  0.00    -0.381 N 
HETATM   11  H   UNL     1      44.293 -16.207   5.331  1.00  0.00     0.160 HD
BRANCH  10  12
HETATM   12  C   UNL     1      44.194 -18.195   4.905  1.00  0.00     0.028 A 
HETATM   13  C   UNL     1      44.789 -19.300   5.528  1.00  0.00     0.032 A 
HETATM   14  C   UNL     1      45.009 -20.504   4.846  1.00  0.00     0.039 A 
HETATM   15  C   UNL     1      44.607 -20.637   3.520  1.00  0.00     0.068 A 
HETATM   16  C   UNL     1      44.008 -19.549   2.888  1.00  0.00     0.039 A 
HETATM   17  C   UNL     1      43.792 -18.347   3.575  1.00  0.00     0.032 A 
BRANCH  15  18
HETATM   18  O   UNL     1      44.734 -21.757   2.748  1.00  0.00    -0.356 OA
HETATM   19  C   UNL     1      43.918 -21.824   1.586  1.00  0.00     0.210 C 
ENDBRANCH  15  18
ENDBRANCH  10  12
ENDBRANCH   9  10
ENDBRANCH   6   9
ENDBRANCH   1   5
BRANCH   2  20
HETATM   20  C   UNL     1      39.693 -15.118   1.362  1.00  0.00     0.070 A 
HETATM   21  C   UNL     1      40.332 -14.594   0.254  1.00  0.00     0.137 A 
HETATM   22  N   UNL     1      39.460 -13.725  -0.361  1.00  0.00    -0.244 N 
HETATM   23  N   UNL     1      38.274 -13.678   0.298  1.00  0.00    -0.179 NA
HETATM   24  C   UNL     1      38.426 -14.508   1.330  1.00  0.00     0.157 A 
BRANCH  22  25
HETATM   25  C   UNL     1      39.675 -12.944  -1.530  1.00  0.00     0.059 A 
HETATM   26  C   UNL     1      40.932 -12.350  -1.737  1.00  0.00     0.055 A 
HETATM   27  C   UNL     1      41.154 -11.575  -2.874  1.00  0.00     0.036 A 
HETATM   28 CL   UNL     1      42.689 -10.833  -3.116  1.00  0.00    -0.084 Cl
HETATM   29  C   UNL     1      40.145 -11.392  -3.816  1.00  0.00     0.024 A 
HETATM   30  C   UNL     1      38.898 -11.985  -3.618  1.00  0.00     0.004 A 
HETATM   31  C   UNL     1      38.659 -12.757  -2.477  1.00  0.00     0.031 A 
ENDBRANCH  22  25
ENDBRANCH   2  20
TORSDOF 7
ENDMDL
MODEL 7
REMARK VINA RESULT:      -7.6      7.074     10.922
REMARK  7 active torsions:
REMARK  status: ('A' for Active; 'I' for Inactive)
REMARK    1  A    between atoms: O_2  and  C_3 
REMARK    2  A    between atoms: C_6  and  N_7 
REMARK    3  A    between atoms: N_7  and  C_8 
REMARK    4  A    between atoms: C_8  and  C_9 
REMARK       I    between atoms: C_9  and  N_10 
REMARK    5  A    between atoms: N_10  and  N_11 
REMARK       I    between atoms: N_11  and  C_12 
REMARK    6  A    between atoms: C_12  and  C_13 
REMARK    7  A    between atoms: N_15  and  C_16 
ROOT
HETATM    1  N   UNL     1      40.582 -15.311   1.859  1.00  0.00    -0.263 N 
HETATM    2  C   UNL     1      40.995 -16.038   0.758  1.00  0.00     0.273 C 
HETATM    3  O   UNL     1      41.218 -17.247   0.817  1.00  0.00    -0.266 OA
HETATM    4  H   UNL     1      40.764 -14.309   1.896  1.00  0.00     0.190 HD
ENDROOT
BRANCH   1   5
HETATM    5  N   UNL     1      40.593 -15.962   3.110  1.00  0.00    -0.266 N 
HETATM    6  C   UNL     1      41.490 -15.490   4.055  1.00  0.00     0.253 C 
HETATM    7  O   UNL     1      42.161 -14.471   3.879  1.00  0.00    -0.270 OA
HETATM    8  H   UNL     1      40.343 -16.950   3.088  1.00  0.00     0.190 HD
BRANCH   6   9
HETATM    9  C   UNL     1      41.552 -16.340   5.330  1.00  0.00     0.224 C 
BRANCH   9  10
HETATM   10  N   UNL     1      42.903 -16.872   5.498  1.00  0.00    -0.381 N 
HETATM   11  H   UNL     1      43.601 -16.134   5.585  1.00  0.00     0.160 HD
BRANCH  10  12
HETATM   12  C   UNL     1      43.338 -17.998   4.812  1.00  0.00     0.028 A 
HETATM   13  C   UNL     1      43.512 -17.908   3.424  1.00  0.00     0.032 A 
HETATM   14  C   UNL     1      44.062 -18.959   2.678  1.00  0.00     0.039 A 
HETATM   15  C   UNL     1      44.480 -20.123   3.317  1.00  0.00     0.068 A 
HETATM   16  C   UNL     1      44.320 -20.225   4.699  1.00  0.00     0.039 A 
HETATM   17  C   UNL     1      43.768 -19.171   5.438  1.00  0.00     0.032 A 
BRANCH  15  18
HETATM   18  O   UNL     1      45.055 -21.208   2.720  1.00  0.00    -0.356 OA
HETATM   19  C   UNL     1      44.239 -21.946   1.819  1.00  0.00     0.210 C 
ENDBRANCH  15  18
ENDBRANCH  10  12
ENDBRANCH   9  10
ENDBRANCH   6   9
ENDBRANCH   1   5
BRANCH   2  20
HETATM   20  C   UNL     1      41.148 -15.270  -0.461  1.00  0.00     0.070 A 
HETATM   21  C   UNL     1      41.600 -13.967  -0.547  1.00  0.00     0.137 A 
HETATM   22  N   UNL     1      41.626 -13.619  -1.878  1.00  0.00    -0.244 N 
HETATM   23  N   UNL     1      41.222 -14.653  -2.659  1.00  0.00    -0.179 NA
HETATM   24  C   UNL     1      40.932 -15.632  -1.803  1.00  0.00     0.157 A 
BRANCH  22  25
HETATM   25  C   UNL     1      42.011 -12.378  -2.455  1.00  0.00     0.059 A 
HETATM   26  C   UNL     1      42.722 -11.449  -1.675  1.00  0.00     0.055 A 
HETATM   27  C   UNL     1      43.098 -10.225  -2.225  1.00  0.00     0.036 A 
HETATM   28 CL   UNL     1      43.953  -9.082  -1.263  1.00  0.00    -0.084 Cl
HETATM   29  C   UNL     1      42.786  -9.916  -3.547  1.00  0.00     0.024 A 
HETATM   30  C   UNL     1      42.087 -10.837  -4.327  1.00  0.00     0.004 A 
HETATM   31  C   UNL     1      41.695 -12.064  -3.785  1.00  0.00     0.031 A 
ENDBRANCH  22  25
ENDBRANCH   2  20
TORSDOF 7
ENDMDL
MODEL 8
REMARK VINA RESULT:      -7.6      4.592     11.571
REMARK  7 active torsions:
REMARK  status: ('A' for Active; 'I' for Inactive)
REMARK    1  A    between atoms: O_2  and  C_3 
REMARK    2  A    between atoms: C_6  and  N_7 
REMARK    3  A    between atoms: N_7  and  C_8 
REMARK    4  A    between atoms: C_8  and  C_9 
REMARK       I    between atoms: C_9  and  N_10 
REMARK    5  A    between atoms: N_10  and  N_11 
REMARK       I    between atoms: N_11  and  C_12 
REMARK    6  A    between atoms: C_12  and  C_13 
REMARK    7  A    between atoms: N_15  and  C_16 
ROOT
HETATM    1  N   UNL     1      41.423 -12.727   6.446  1.00  0.00    -0.263 N 
HETATM    2  C   UNL     1      41.244 -11.366   6.614  1.00  0.00     0.273 C 
HETATM    3  O   UNL     1      41.310 -10.576   5.673  1.00  0.00    -0.266 OA
HETATM    4  H   UNL     1      41.734 -13.295   7.233  1.00  0.00     0.190 HD
ENDROOT
BRANCH   1   5
HETATM    5  N   UNL     1      41.865 -13.174   5.183  1.00  0.00    -0.266 N 
HETATM    6  C   UNL     1      43.174 -13.617   5.097  1.00  0.00     0.253 C 
HETATM    7  O   UNL     1      43.895 -13.747   6.089  1.00  0.00    -0.270 OA
HETATM    8  H   UNL     1      41.422 -12.724   4.383  1.00  0.00     0.190 HD
BRANCH   6   9
HETATM    9  C   UNL     1      43.628 -13.942   3.668  1.00  0.00     0.224 C 
BRANCH   9  10
HETATM   10  N   UNL     1      42.714 -14.914   3.073  1.00  0.00    -0.381 N 
HETATM   11  H   UNL     1      41.744 -14.747   3.341  1.00  0.00     0.160 HD
BRANCH  10  12
HETATM   12  C   UNL     1      43.052 -16.254   2.942  1.00  0.00     0.028 A 
HETATM   13  C   UNL     1      43.541 -16.701   1.707  1.00  0.00     0.032 A 
HETATM   14  C   UNL     1      44.017 -18.007   1.528  1.00  0.00     0.039 A 
HETATM   15  C   UNL     1      44.040 -18.893   2.602  1.00  0.00     0.068 A 
HETATM   16  C   UNL     1      43.563 -18.461   3.839  1.00  0.00     0.039 A 
HETATM   17  C   UNL     1      43.088 -17.155   4.010  1.00  0.00     0.032 A 
BRANCH  15  18
HETATM   18  O   UNL     1      44.501 -20.178   2.576  1.00  0.00    -0.356 OA
HETATM   19  C   UNL     1      44.847 -20.756   3.829  1.00  0.00     0.210 C 
ENDBRANCH  15  18
ENDBRANCH  10  12
ENDBRANCH   9  10
ENDBRANCH   6   9
ENDBRANCH   1   5
BRANCH   2  20
HETATM   20  C   UNL     1      40.979 -10.948   7.975  1.00  0.00     0.070 A 
HETATM   21  C   UNL     1      41.930 -10.661   8.935  1.00  0.00     0.137 A 
HETATM   22  N   UNL     1      41.269 -10.274  10.079  1.00  0.00    -0.244 N 
HETATM   23  N   UNL     1      39.925 -10.287   9.891  1.00  0.00    -0.179 NA
HETATM   24  C   UNL     1      39.761 -10.697   8.633  1.00  0.00     0.157 A 
BRANCH  22  25
HETATM   25  C   UNL     1      41.826  -9.893  11.330  1.00  0.00     0.059 A 
HETATM   26  C   UNL     1      41.013  -9.243  12.275  1.00  0.00     0.055 A 
HETATM   27  C   UNL     1      41.549  -8.857  13.502  1.00  0.00     0.036 A 
HETATM   28 CL   UNL     1      40.557  -8.045  14.651  1.00  0.00    -0.084 Cl
HETATM   29  C   UNL     1      42.883  -9.118  13.807  1.00  0.00     0.024 A 
HETATM   30  C   UNL     1      43.692  -9.769  12.876  1.00  0.00     0.004 A 
HETATM   31  C   UNL     1      43.169 -10.153  11.637  1.00  0.00     0.031 A 
ENDBRANCH  22  25
ENDBRANCH   2  20
TORSDOF 7
ENDMDL
MODEL 9
REMARK VINA RESULT:      -7.6      2.269      3.199
REMARK  7 active torsions:
REMARK  status: ('A' for Active; 'I' for Inactive)
REMARK    1  A    between atoms: O_2  and  C_3 
REMARK    2  A    between atoms: C_6  and  N_7 
REMARK    3  A    between atoms: N_7  and  C_8 
REMARK    4  A    between atoms: C_8  and  C_9 
REMARK       I    between atoms: C_9  and  N_10 
REMARK    5  A    between atoms: N_10  and  N_11 
REMARK       I    between atoms: N_11  and  C_12 
REMARK    6  A    between atoms: C_12  and  C_13 
REMARK    7  A    between atoms: N_15  and  C_16 
ROOT
HETATM    1  N   UNL     1      41.709 -13.387   5.036  1.00  0.00    -0.263 N 
HETATM    2  C   UNL     1      42.759 -14.192   5.440  1.00  0.00     0.273 C 
HETATM    3  O   UNL     1      43.477 -13.902   6.397  1.00  0.00    -0.266 OA
HETATM    4  H   UNL     1      41.385 -13.431   4.071  1.00  0.00     0.190 HD
ENDROOT
BRANCH   1   5
HETATM    5  N   UNL     1      41.590 -12.120   5.644  1.00  0.00    -0.266 N 
HETATM    6  C   UNL     1      40.455 -11.895   6.407  1.00  0.00     0.253 C 
HETATM    7  O   UNL     1      39.643 -12.786   6.661  1.00  0.00    -0.270 OA
HETATM    8  H   UNL     1      42.029 -11.352   5.139  1.00  0.00     0.190 HD
BRANCH   6   9
HETATM    9  C   UNL     1      40.320 -10.452   6.908  1.00  0.00     0.224 C 
BRANCH   9  10
HETATM   10  N   UNL     1      41.622  -9.967   7.362  1.00  0.00    -0.381 N 
HETATM   11  H   UNL     1      42.352 -10.107   6.663  1.00  0.00     0.160 HD
BRANCH  10  12
HETATM   12  C   UNL     1      42.046 -10.122   8.675  1.00  0.00     0.028 A 
HETATM   13  C   UNL     1      43.075 -11.038   8.940  1.00  0.00     0.032 A 
HETATM   14  C   UNL     1      43.641 -11.165  10.215  1.00  0.00     0.039 A 
HETATM   15  C   UNL     1      43.204 -10.350  11.255  1.00  0.00     0.068 A 
HETATM   16  C   UNL     1      42.187  -9.430  11.006  1.00  0.00     0.039 A 
HETATM   17  C   UNL     1      41.624  -9.309   9.729  1.00  0.00     0.032 A 
BRANCH  15  18
HETATM   18  O   UNL     1      43.685 -10.348  12.534  1.00  0.00    -0.356 OA
HETATM   19  C   UNL     1      42.746 -10.078  13.567  1.00  0.00     0.210 C 
ENDBRANCH  15  18
ENDBRANCH  10  12
ENDBRANCH   9  10
ENDBRANCH   6   9
ENDBRANCH   1   5
BRANCH   2  20
HETATM   20  C   UNL     1      42.948 -15.392   4.651  1.00  0.00     0.070 A 
HETATM   21  C   UNL     1      43.454 -16.593   5.111  1.00  0.00     0.137 A 
HETATM   22  N   UNL     1      43.442 -17.482   4.060  1.00  0.00    -0.244 N 
HETATM   23  N   UNL     1      42.934 -16.906   2.941  1.00  0.00    -0.179 NA
HETATM   24  C   UNL     1      42.647 -15.656   3.303  1.00  0.00     0.157 A 
BRANCH  22  25
HETATM   25  C   UNL     1      43.877 -18.836   4.050  1.00  0.00     0.059 A 
HETATM   26  C   UNL     1      43.823 -19.566   2.850  1.00  0.00     0.055 A 
HETATM   27  C   UNL     1      44.238 -20.896   2.828  1.00  0.00     0.036 A 
HETATM   28 CL   UNL     1      44.153 -21.794   1.362  1.00  0.00    -0.084 Cl
HETATM   29  C   UNL     1      44.718 -21.508   3.983  1.00  0.00     0.024 A 
HETATM   30  C   UNL     1      44.781 -20.786   5.175  1.00  0.00     0.004 A 
HETATM   31  C   UNL     1      44.358 -19.454   5.213  1.00  0.00     0.031 A 
ENDBRANCH  22  25
ENDBRANCH   2  20
TORSDOF 7
ENDMDL
MODEL 10
REMARK VINA RESULT:      -7.4      4.945     11.089
REMARK  7 active torsions:
REMARK  status: ('A' for Active; 'I' for Inactive)
REMARK    1  A    between atoms: O_2  and  C_3 
REMARK    2  A    between atoms: C_6  and  N_7 
REMARK    3  A    between atoms: N_7  and  C_8 
REMARK    4  A    between atoms: C_8  and  C_9 
REMARK       I    between atoms: C_9  and  N_10 
REMARK    5  A    between atoms: N_10  and  N_11 
REMARK       I    between atoms: N_11  and  C_12 
REMARK    6  A    between atoms: C_12  and  C_13 
REMARK    7  A    between atoms: N_15  and  C_16 
ROOT
HETATM    1  N   UNL     1      41.593 -12.815   4.763  1.00  0.00    -0.263 N 
HETATM    2  C   UNL     1      40.893 -11.638   4.956  1.00  0.00     0.273 C 
HETATM    3  O   UNL     1      39.980 -11.289   4.208  1.00  0.00    -0.266 OA
HETATM    4  H   UNL     1      42.540 -12.903   5.130  1.00  0.00     0.190 HD
ENDROOT
BRANCH   1   5
HETATM    5  N   UNL     1      41.351 -13.529   3.571  1.00  0.00    -0.266 N 
HETATM    6  C   UNL     1      42.453 -13.846   2.794  1.00  0.00     0.253 C 
HETATM    7  O   UNL     1      43.609 -13.640   3.172  1.00  0.00    -0.270 OA
HETATM    8  H   UNL     1      40.449 -13.348   3.132  1.00  0.00     0.190 HD
BRANCH   6   9
HETATM    9  C   UNL     1      42.100 -14.483   1.445  1.00  0.00     0.224 C 
BRANCH   9  10
HETATM   10  N   UNL     1      41.460 -15.778   1.667  1.00  0.00    -0.381 N 
HETATM   11  H   UNL     1      40.524 -15.684   2.060  1.00  0.00     0.160 HD
BRANCH  10  12
HETATM   12  C   UNL     1      42.171 -16.878   2.131  1.00  0.00     0.028 A 
HETATM   13  C   UNL     1      43.186 -17.405   1.321  1.00  0.00     0.032 A 
HETATM   14  C   UNL     1      44.027 -18.434   1.766  1.00  0.00     0.039 A 
HETATM   15  C   UNL     1      43.885 -18.941   3.054  1.00  0.00     0.068 A 
HETATM   16  C   UNL     1      42.884 -18.422   3.874  1.00  0.00     0.039 A 
HETATM   17  C   UNL     1      42.046 -17.395   3.423  1.00  0.00     0.032 A 
BRANCH  15  18
HETATM   18  O   UNL     1      44.650 -19.919   3.624  1.00  0.00    -0.356 OA
HETATM   19  C   UNL     1      44.581 -20.039   5.039  1.00  0.00     0.210 C 
ENDBRANCH  15  18
ENDBRANCH  10  12
ENDBRANCH   9  10
ENDBRANCH   6   9
ENDBRANCH   1   5
BRANCH   2  20
HETATM   20  C   UNL     1      41.319 -10.853   6.096  1.00  0.00     0.070 A 
HETATM   21  C   UNL     1      41.867 -11.349   7.263  1.00  0.00     0.137 A 
HETATM   22  N   UNL     1      42.161 -10.278   8.077  1.00  0.00    -0.244 N 
HETATM   23  N   UNL     1      41.836  -9.106   7.474  1.00  0.00    -0.179 NA
HETATM   24  C   UNL     1      41.328  -9.460   6.294  1.00  0.00     0.157 A 
BRANCH  22  25
HETATM   25  C   UNL     1      42.729 -10.294   9.380  1.00  0.00     0.059 A 
HETATM   26  C   UNL     1      42.184  -9.468  10.377  1.00  0.00     0.055 A 
HETATM   27  C   UNL     1      42.737  -9.468  11.657  1.00  0.00     0.036 A 
HETATM   28 CL   UNL     1      42.079  -8.442  12.872  1.00  0.00    -0.084 Cl
HETATM   29  C   UNL     1      43.819 -10.290  11.962  1.00  0.00     0.024 A 
HETATM   30  C   UNL     1      44.359 -11.117  10.977  1.00  0.00     0.004 A 
HETATM   31  C   UNL     1      43.821 -11.119   9.687  1.00  0.00     0.031 A 
ENDBRANCH  22  25
ENDBRANCH   2  20
TORSDOF 7
ENDMDL
