MODEL 1
REMARK VINA RESULT:      -8.9      0.000      0.000
REMARK  5 active torsions:
REMARK  status: ('A' for Active; 'I' for Inactive)
REMARK       I    between atoms: C_2  and  N_3 
REMARK    1  A    between atoms: N_3  and  C_4 
REMARK    2  A    between atoms: N_7  and  C_8 
REMARK    3  A    between atoms: C_8  and  C_9 
REMARK       I    between atoms: C_9  and  N_10 
REMARK    4  A    between atoms: C_13  and  O_14 
REMARK    5  A    between atoms: C_13  and  C_15 
ROOT
HETATM    1  C   UNL     1      41.440 -14.179   5.241  1.00  0.00     0.238 C 
HETATM    2  N   UNL     1      42.206 -15.187   5.843  1.00  0.00    -0.350 N 
HETATM    3  C   UNL     1      43.608 -15.418   5.501  1.00  0.00     0.129 C 
HETATM    4  C   UNL     1      44.327 -16.251   6.550  1.00  0.00     0.063 C 
HETATM    5  C   UNL     1      43.630 -17.606   6.748  1.00  0.00     0.088 C 
HETATM    6  C   UNL     1      42.199 -17.304   7.224  1.00  0.00     0.063 C 
HETATM    7  C   UNL     1      41.437 -16.331   6.329  1.00  0.00     0.129 C 
HETATM    8  O   UNL     1      40.242 -14.035   5.510  1.00  0.00    -0.272 OA
ENDROOT
BRANCH   1   9
HETATM    9  C   UNL     1      42.078 -13.295   4.181  1.00  0.00     0.231 C 
BRANCH   9  10
HETATM   10  N   UNL     1      41.415 -13.440   2.888  1.00  0.00    -0.347 N 
HETATM   11  C   UNL     1      41.594 -14.473   1.985  1.00  0.00     0.047 A 
HETATM   12  C   UNL     1      40.757 -14.215   0.888  1.00  0.00     0.019 A 
HETATM   13  C   UNL     1      42.415 -15.609   2.030  1.00  0.00     0.031 A 
HETATM   14  C   UNL     1      40.744 -15.107  -0.218  1.00  0.00     0.047 A 
HETATM   15  C   UNL     1      40.088 -12.986   1.163  1.00  0.00     0.033 A 
HETATM   16  C   UNL     1      41.551 -16.249  -0.153  1.00  0.00     0.030 A 
HETATM   17  C   UNL     1      42.372 -16.490   0.950  1.00  0.00     0.005 A 
HETATM   18  C   UNL     1      40.528 -12.524   2.379  1.00  0.00     0.092 A 
BRANCH  14  19
HETATM   19  N   UNL     1      39.881 -14.804  -1.289  1.00  0.00    -0.327 N 
HETATM   20  C   UNL     1      40.085 -14.525  -2.607  1.00  0.00     0.218 C 
HETATM   21  C   UNL     1      41.462 -14.273  -3.148  1.00  0.00     0.117 C 
HETATM   22  O   UNL     1      39.101 -14.430  -3.345  1.00  0.00    -0.274 OA
HETATM   23  H   UNL     1      38.896 -14.762  -1.059  1.00  0.00     0.169 HD
ENDBRANCH  14  19
ENDBRANCH   9  10
ENDBRANCH   1   9
BRANCH   5  24
HETATM   24  O   UNL     1      44.285 -18.267   7.844  1.00  0.00    -0.385 OA
HETATM   25  H   UNL     1      45.245 -18.150   7.726  1.00  0.00     0.211 HD
ENDBRANCH   5  24
BRANCH   5  26
HETATM   26  C   UNL     1      43.801 -18.518   5.528  1.00  0.00    -0.024 A 
HETATM   27  C   UNL     1      44.775 -19.538   5.572  1.00  0.00     0.012 A 
HETATM   28  C   UNL     1      45.017 -20.367   4.473  1.00  0.00     0.024 A 
HETATM   29  C   UNL     1      44.277 -20.199   3.310  1.00  0.00     0.034 A 
HETATM   30 CL   UNL     1      44.582 -21.201   1.947  1.00  0.00    -0.084 Cl
HETATM   31  C   UNL     1      43.285 -19.226   3.250  1.00  0.00     0.024 A 
HETATM   32  C   UNL     1      43.039 -18.400   4.356  1.00  0.00     0.012 A 
ENDBRANCH   5  26
TORSDOF 5
ENDMDL
MODEL 2
REMARK VINA RESULT:      -8.8      1.577      2.550
REMARK  5 active torsions:
REMARK  status: ('A' for Active; 'I' for Inactive)
REMARK       I    between atoms: C_2  and  N_3 
REMARK    1  A    between atoms: N_3  and  C_4 
REMARK    2  A    between atoms: N_7  and  C_8 
REMARK    3  A    between atoms: C_8  and  C_9 
REMARK       I    between atoms: C_9  and  N_10 
REMARK    4  A    between atoms: C_13  and  O_14 
REMARK    5  A    between atoms: C_13  and  C_15 
ROOT
HETATM    1  C   UNL     1      41.077 -14.488   3.263  1.00  0.00     0.238 C 
HETATM    2  N   UNL     1      41.810 -15.345   4.096  1.00  0.00    -0.350 N 
HETATM    3  C   UNL     1      43.239 -15.590   3.910  1.00  0.00     0.129 C 
HETATM    4  C   UNL     1      43.886 -16.194   5.146  1.00  0.00     0.063 C 
HETATM    5  C   UNL     1      43.200 -17.513   5.536  1.00  0.00     0.088 C 
HETATM    6  C   UNL     1      41.730 -17.176   5.837  1.00  0.00     0.063 C 
HETATM    7  C   UNL     1      41.026 -16.406   4.723  1.00  0.00     0.129 C 
HETATM    8  O   UNL     1      39.860 -14.337   3.409  1.00  0.00    -0.272 OA
ENDROOT
BRANCH   1   9
HETATM    9  C   UNL     1      41.784 -13.792   2.110  1.00  0.00     0.231 C 
BRANCH   9  10
HETATM   10  N   UNL     1      41.394 -14.355   0.821  1.00  0.00    -0.347 N 
HETATM   11  C   UNL     1      40.896 -13.655  -0.263  1.00  0.00     0.047 A 
HETATM   12  C   UNL     1      40.665 -14.585  -1.288  1.00  0.00     0.019 A 
HETATM   13  C   UNL     1      40.623 -12.290  -0.437  1.00  0.00     0.031 A 
HETATM   14  C   UNL     1      40.127 -14.153  -2.531  1.00  0.00     0.047 A 
HETATM   15  C   UNL     1      41.029 -15.864  -0.770  1.00  0.00     0.033 A 
HETATM   16  C   UNL     1      39.880 -12.786  -2.701  1.00  0.00     0.030 A 
HETATM   17  C   UNL     1      40.120 -11.875  -1.671  1.00  0.00     0.005 A 
HETATM   18  C   UNL     1      41.447 -15.695   0.526  1.00  0.00     0.092 A 
BRANCH  14  19
HETATM   19  N   UNL     1      39.922 -15.127  -3.527  1.00  0.00    -0.327 N 
HETATM   20  C   UNL     1      38.809 -15.648  -4.114  1.00  0.00     0.218 C 
HETATM   21  C   UNL     1      37.437 -15.361  -3.579  1.00  0.00     0.117 C 
HETATM   22  O   UNL     1      38.955 -16.410  -5.074  1.00  0.00    -0.274 OA
HETATM   23  H   UNL     1      40.761 -15.563  -3.891  1.00  0.00     0.169 HD
ENDBRANCH  14  19
ENDBRANCH   9  10
ENDBRANCH   1   9
BRANCH   5  24
HETATM   24  O   UNL     1      43.776 -17.943   6.781  1.00  0.00    -0.385 OA
HETATM   25  H   UNL     1      43.115 -17.789   7.478  1.00  0.00     0.211 HD
ENDBRANCH   5  24
BRANCH   5  26
HETATM   26  C   UNL     1      43.485 -18.625   4.520  1.00  0.00    -0.024 A 
HETATM   27  C   UNL     1      44.394 -19.648   4.867  1.00  0.00     0.012 A 
HETATM   28  C   UNL     1      44.737 -20.659   3.966  1.00  0.00     0.024 A 
HETATM   29  C   UNL     1      44.166 -20.673   2.700  1.00  0.00     0.034 A 
HETATM   30 CL   UNL     1      44.598 -21.903   1.579  1.00  0.00    -0.084 Cl
HETATM   31  C   UNL     1      43.239 -19.700   2.342  1.00  0.00     0.024 A 
HETATM   32  C   UNL     1      42.891 -18.691   3.251  1.00  0.00     0.012 A 
ENDBRANCH   5  26
TORSDOF 5
ENDMDL
MODEL 3
REMARK VINA RESULT:      -8.6      0.921      1.848
REMARK  5 active torsions:
REMARK  status: ('A' for Active; 'I' for Inactive)
REMARK       I    between atoms: C_2  and  N_3 
REMARK    1  A    between atoms: N_3  and  C_4 
REMARK    2  A    between atoms: N_7  and  C_8 
REMARK    3  A    between atoms: C_8  and  C_9 
REMARK       I    between atoms: C_9  and  N_10 
REMARK    4  A    between atoms: C_13  and  O_14 
REMARK    5  A    between atoms: C_13  and  C_15 
ROOT
HETATM    1  C   UNL     1      41.054 -14.417   4.713  1.00  0.00     0.238 C 
HETATM    2  N   UNL     1      41.845 -15.351   5.396  1.00  0.00    -0.350 N 
HETATM    3  C   UNL     1      43.272 -15.518   5.128  1.00  0.00     0.129 C 
HETATM    4  C   UNL     1      43.985 -16.260   6.247  1.00  0.00     0.063 C 
HETATM    5  C   UNL     1      43.356 -17.642   6.478  1.00  0.00     0.088 C 
HETATM    6  C   UNL     1      41.889 -17.401   6.874  1.00  0.00     0.063 C 
HETATM    7  C   UNL     1      41.119 -16.514   5.901  1.00  0.00     0.129 C 
HETATM    8  O   UNL     1      39.839 -14.330   4.921  1.00  0.00    -0.272 OA
ENDROOT
BRANCH   1   9
HETATM    9  C   UNL     1      41.692 -13.547   3.641  1.00  0.00     0.231 C 
BRANCH   9  10
HETATM   10  N   UNL     1      41.367 -14.020   2.299  1.00  0.00    -0.347 N 
HETATM   11  C   UNL     1      40.292 -13.620   1.526  1.00  0.00     0.047 A 
HETATM   12  C   UNL     1      40.370 -14.320   0.312  1.00  0.00     0.019 A 
HETATM   13  C   UNL     1      39.255 -12.711   1.783  1.00  0.00     0.031 A 
HETATM   14  C   UNL     1      39.374 -14.125  -0.684  1.00  0.00     0.047 A 
HETATM   15  C   UNL     1      41.520 -15.160   0.397  1.00  0.00     0.033 A 
HETATM   16  C   UNL     1      38.358 -13.199  -0.426  1.00  0.00     0.030 A 
HETATM   17  C   UNL     1      38.299 -12.510   0.787  1.00  0.00     0.005 A 
HETATM   18  C   UNL     1      42.094 -14.973   1.629  1.00  0.00     0.092 A 
BRANCH  14  19
HETATM   19  N   UNL     1      39.505 -14.847  -1.886  1.00  0.00    -0.327 N 
HETATM   20  C   UNL     1      40.193 -14.628  -3.040  1.00  0.00     0.218 C 
HETATM   21  C   UNL     1      40.853 -13.309  -3.318  1.00  0.00     0.117 C 
HETATM   22  O   UNL     1      40.221 -15.526  -3.886  1.00  0.00    -0.274 OA
HETATM   23  H   UNL     1      38.974 -15.708  -1.940  1.00  0.00     0.169 HD
ENDBRANCH  14  19
ENDBRANCH   9  10
ENDBRANCH   1   9
BRANCH   5  24
HETATM   24  O   UNL     1      43.994 -18.215   7.633  1.00  0.00    -0.385 OA
HETATM   25  H   UNL     1      43.712 -17.699   8.409  1.00  0.00     0.211 HD
ENDBRANCH   5  24
BRANCH   5  26
HETATM   26  C   UNL     1      43.634 -18.596   5.312  1.00  0.00    -0.024 A 
HETATM   27  C   UNL     1      44.429 -19.740   5.542  1.00  0.00     0.012 A 
HETATM   28  C   UNL     1      44.764 -20.619   4.510  1.00  0.00     0.024 A 
HETATM   29  C   UNL     1      44.298 -20.378   3.224  1.00  0.00     0.034 A 
HETATM   30 CL   UNL     1      44.721 -21.444   1.944  1.00  0.00    -0.084 Cl
HETATM   31  C   UNL     1      43.481 -19.280   2.973  1.00  0.00     0.024 A 
HETATM   32  C   UNL     1      43.141 -18.403   4.013  1.00  0.00     0.012 A 
ENDBRANCH   5  26
TORSDOF 5
ENDMDL
MODEL 4
REMARK VINA RESULT:      -8.6      2.974      6.494
REMARK  5 active torsions:
REMARK  status: ('A' for Active; 'I' for Inactive)
REMARK       I    between atoms: C_2  and  N_3 
REMARK    1  A    between atoms: N_3  and  C_4 
REMARK    2  A    between atoms: N_7  and  C_8 
REMARK    3  A    between atoms: C_8  and  C_9 
REMARK       I    between atoms: C_9  and  N_10 
REMARK    4  A    between atoms: C_13  and  O_14 
REMARK    5  A    between atoms: C_13  and  C_15 
ROOT
HETATM    1  C   UNL     1      43.166 -15.655   6.838  1.00  0.00     0.238 C 
HETATM    2  N   UNL     1      42.376 -14.735   6.135  1.00  0.00    -0.350 N 
HETATM    3  C   UNL     1      41.013 -15.040   5.701  1.00  0.00     0.129 C 
HETATM    4  C   UNL     1      40.228 -13.786   5.349  1.00  0.00     0.063 C 
HETATM    5  C   UNL     1      40.937 -12.986   4.245  1.00  0.00     0.088 C 
HETATM    6  C   UNL     1      42.316 -12.590   4.800  1.00  0.00     0.063 C 
HETATM    7  C   UNL     1      43.127 -13.760   5.348  1.00  0.00     0.129 C 
HETATM    8  O   UNL     1      44.333 -15.394   7.149  1.00  0.00    -0.272 OA
ENDROOT
BRANCH   1   9
HETATM    9  C   UNL     1      42.599 -17.031   7.155  1.00  0.00     0.231 C 
BRANCH   9  10
HETATM   10  N   UNL     1      43.172 -18.061   6.295  1.00  0.00    -0.347 N 
HETATM   11  C   UNL     1      43.286 -18.010   4.917  1.00  0.00     0.047 A 
HETATM   12  C   UNL     1      43.900 -19.204   4.506  1.00  0.00     0.019 A 
HETATM   13  C   UNL     1      42.902 -17.028   3.993  1.00  0.00     0.031 A 
HETATM   14  C   UNL     1      44.130 -19.443   3.124  1.00  0.00     0.047 A 
HETATM   15  C   UNL     1      44.133 -19.971   5.686  1.00  0.00     0.033 A 
HETATM   16  C   UNL     1      43.764 -18.446   2.213  1.00  0.00     0.030 A 
HETATM   17  C   UNL     1      43.158 -17.264   2.642  1.00  0.00     0.005 A 
HETATM   18  C   UNL     1      43.657 -19.259   6.758  1.00  0.00     0.092 A 
BRANCH  14  19
HETATM   19  N   UNL     1      44.757 -20.654   2.768  1.00  0.00    -0.327 N 
HETATM   20  C   UNL     1      44.362 -21.734   2.039  1.00  0.00     0.218 C 
HETATM   21  C   UNL     1      42.935 -21.906   1.607  1.00  0.00     0.117 C 
HETATM   22  O   UNL     1      45.198 -22.605   1.782  1.00  0.00    -0.274 OA
HETATM   23  H   UNL     1      45.693 -20.784   3.130  1.00  0.00     0.169 HD
ENDBRANCH  14  19
ENDBRANCH   9  10
ENDBRANCH   1   9
BRANCH   5  24
HETATM   24  O   UNL     1      40.208 -11.760   4.070  1.00  0.00    -0.385 OA
HETATM   25  H   UNL     1      40.597 -11.292   3.310  1.00  0.00     0.211 HD
ENDBRANCH   5  24
BRANCH   5  26
HETATM   26  C   UNL     1      40.892 -13.713   2.896  1.00  0.00    -0.024 A 
HETATM   27  C   UNL     1      41.997 -13.602   2.025  1.00  0.00     0.012 A 
HETATM   28  C   UNL     1      41.996 -14.194   0.760  1.00  0.00     0.024 A 
HETATM   29  C   UNL     1      40.889 -14.924   0.345  1.00  0.00     0.034 A 
HETATM   30 CL   UNL     1      40.870 -15.640  -1.217  1.00  0.00    -0.084 Cl
HETATM   31  C   UNL     1      39.800 -15.083   1.196  1.00  0.00     0.024 A 
HETATM   32  C   UNL     1      39.807 -14.492   2.467  1.00  0.00     0.012 A 
ENDBRANCH   5  26
TORSDOF 5
ENDMDL
MODEL 5
REMARK VINA RESULT:      -8.6      3.107      7.823
REMARK  5 active torsions:
REMARK  status: ('A' for Active; 'I' for Inactive)
REMARK       I    between atoms: C_2  and  N_3 
REMARK    1  A    between atoms: N_3  and  C_4 
REMARK    2  A    between atoms: N_7  and  C_8 
REMARK    3  A    between atoms: C_8  and  C_9 
REMARK       I    between atoms: C_9  and  N_10 
REMARK    4  A    between atoms: C_13  and  O_14 
REMARK    5  A    between atoms: C_13  and  C_15 
ROOT
HETATM    1  C   UNL     1      42.104 -14.177   3.116  1.00  0.00     0.238 C 
HETATM    2  N   UNL     1      41.340 -13.400   2.234  1.00  0.00    -0.350 N 
HETATM    3  C   UNL     1      39.943 -13.704   1.927  1.00  0.00     0.129 C 
HETATM    4  C   UNL     1      39.220 -12.521   1.304  1.00  0.00     0.063 C 
HETATM    5  C   UNL     1      39.925 -12.061   0.019  1.00  0.00     0.088 C 
HETATM    6  C   UNL     1      41.349 -11.639   0.421  1.00  0.00     0.063 C 
HETATM    7  C   UNL     1      42.112 -12.697   1.212  1.00  0.00     0.129 C 
HETATM    8  O   UNL     1      43.297 -13.930   3.320  1.00  0.00    -0.272 OA
ENDROOT
BRANCH   1   9
HETATM    9  C   UNL     1      41.470 -15.394   3.773  1.00  0.00     0.231 C 
BRANCH   9  10
HETATM   10  N   UNL     1      42.057 -16.638   3.284  1.00  0.00    -0.347 N 
HETATM   11  C   UNL     1      42.970 -17.433   3.954  1.00  0.00     0.047 A 
HETATM   12  C   UNL     1      43.256 -18.527   3.123  1.00  0.00     0.019 A 
HETATM   13  C   UNL     1      43.573 -17.290   5.212  1.00  0.00     0.031 A 
HETATM   14  C   UNL     1      44.189 -19.512   3.545  1.00  0.00     0.047 A 
HETATM   15  C   UNL     1      42.494 -18.346   1.931  1.00  0.00     0.033 A 
HETATM   16  C   UNL     1      44.768 -19.372   4.811  1.00  0.00     0.030 A 
HETATM   17  C   UNL     1      44.467 -18.278   5.625  1.00  0.00     0.005 A 
HETATM   18  C   UNL     1      41.791 -17.173   2.048  1.00  0.00     0.092 A 
BRANCH  14  19
HETATM   19  N   UNL     1      44.434 -20.593   2.675  1.00  0.00    -0.327 N 
HETATM   20  C   UNL     1      44.528 -21.939   2.856  1.00  0.00     0.218 C 
HETATM   21  C   UNL     1      44.584 -22.541   4.230  1.00  0.00     0.117 C 
HETATM   22  O   UNL     1      44.619 -22.660   1.859  1.00  0.00    -0.274 OA
HETATM   23  H   UNL     1      44.594 -20.347   1.705  1.00  0.00     0.169 HD
ENDBRANCH  14  19
ENDBRANCH   9  10
ENDBRANCH   1   9
BRANCH   5  24
HETATM   24  O   UNL     1      39.264 -10.864  -0.426  1.00  0.00    -0.385 OA
HETATM   25  H   UNL     1      39.951 -10.244  -0.727  1.00  0.00     0.211 HD
ENDBRANCH   5  24
BRANCH   5  26
HETATM   26  C   UNL     1      39.775 -13.085  -1.111  1.00  0.00    -0.024 A 
HETATM   27  C   UNL     1      38.480 -13.406  -1.571  1.00  0.00     0.012 A 
HETATM   28  C   UNL     1      38.272 -14.371  -2.560  1.00  0.00     0.024 A 
HETATM   29  C   UNL     1      39.362 -15.026  -3.119  1.00  0.00     0.034 A 
HETATM   30 CL   UNL     1      39.114 -16.229  -4.322  1.00  0.00    -0.084 Cl
HETATM   31  C   UNL     1      40.652 -14.704  -2.713  1.00  0.00     0.024 A 
HETATM   32  C   UNL     1      40.858 -13.731  -1.726  1.00  0.00     0.012 A 
ENDBRANCH   5  26
TORSDOF 5
ENDMDL
MODEL 6
REMARK VINA RESULT:      -8.4      3.297      8.726
REMARK  5 active torsions:
REMARK  status: ('A' for Active; 'I' for Inactive)
REMARK       I    between atoms: C_2  and  N_3 
REMARK    1  A    between atoms: N_3  and  C_4 
REMARK    2  A    between atoms: N_7  and  C_8 
REMARK    3  A    between atoms: C_8  and  C_9 
REMARK       I    between atoms: C_9  and  N_10 
REMARK    4  A    between atoms: C_13  and  O_14 
REMARK    5  A    between atoms: C_13  and  C_15 
ROOT
HETATM    1  C   UNL     1      40.080 -14.239   1.308  1.00  0.00     0.238 C 
HETATM    2  N   UNL     1      40.037 -14.440  -0.078  1.00  0.00    -0.350 N 
HETATM    3  C   UNL     1      41.245 -14.521  -0.898  1.00  0.00     0.129 C 
HETATM    4  C   UNL     1      40.978 -15.148  -2.257  1.00  0.00     0.063 C 
HETATM    5  C   UNL     1      39.905 -14.360  -3.024  1.00  0.00     0.088 C 
HETATM    6  C   UNL     1      38.624 -14.410  -2.174  1.00  0.00     0.063 C 
HETATM    7  C   UNL     1      38.819 -13.963  -0.728  1.00  0.00     0.129 C 
HETATM    8  O   UNL     1      39.044 -14.123   1.972  1.00  0.00    -0.272 OA
ENDROOT
BRANCH   1   9
HETATM    9  C   UNL     1      41.429 -14.085   1.995  1.00  0.00     0.231 C 
BRANCH   9  10
HETATM   10  N   UNL     1      41.729 -15.228   2.853  1.00  0.00    -0.347 N 
HETATM   11  C   UNL     1      42.511 -16.320   2.521  1.00  0.00     0.047 A 
HETATM   12  C   UNL     1      42.537 -17.167   3.640  1.00  0.00     0.019 A 
HETATM   13  C   UNL     1      43.194 -16.644   1.340  1.00  0.00     0.031 A 
HETATM   14  C   UNL     1      43.255 -18.393   3.584  1.00  0.00     0.047 A 
HETATM   15  C   UNL     1      41.731 -16.548   4.641  1.00  0.00     0.033 A 
HETATM   16  C   UNL     1      43.952 -18.695   2.408  1.00  0.00     0.030 A 
HETATM   17  C   UNL     1      43.917 -17.837   1.308  1.00  0.00     0.005 A 
HETATM   18  C   UNL     1      41.233 -15.379   4.124  1.00  0.00     0.092 A 
BRANCH  14  19
HETATM   19  N   UNL     1      43.253 -19.202   4.737  1.00  0.00    -0.327 N 
HETATM   20  C   UNL     1      43.956 -19.172   5.903  1.00  0.00     0.218 C 
HETATM   21  C   UNL     1      45.136 -18.261   6.082  1.00  0.00     0.117 C 
HETATM   22  O   UNL     1      43.633 -19.953   6.802  1.00  0.00    -0.274 OA
HETATM   23  H   UNL     1      42.618 -19.990   4.718  1.00  0.00     0.169 HD
ENDBRANCH  14  19
ENDBRANCH   9  10
ENDBRANCH   1   9
BRANCH   5  24
HETATM   24  O   UNL     1      39.616 -15.092  -4.228  1.00  0.00    -0.385 OA
HETATM   25  H   UNL     1      38.982 -14.565  -4.746  1.00  0.00     0.211 HD
ENDBRANCH   5  24
BRANCH   5  26
HETATM   26  C   UNL     1      40.416 -12.985  -3.466  1.00  0.00    -0.024 A 
HETATM   27  C   UNL     1      41.808 -12.785  -3.597  1.00  0.00     0.012 A 
HETATM   28  C   UNL     1      42.341 -11.541  -3.942  1.00  0.00     0.024 A 
HETATM   29  C   UNL     1      41.487 -10.471  -4.178  1.00  0.00     0.034 A 
HETATM   30 CL   UNL     1      42.134  -8.931  -4.585  1.00  0.00    -0.084 Cl
HETATM   31  C   UNL     1      40.110 -10.645  -4.093  1.00  0.00     0.024 A 
HETATM   32  C   UNL     1      39.578 -11.897  -3.753  1.00  0.00     0.012 A 
ENDBRANCH   5  26
TORSDOF 5
ENDMDL
MODEL 7
REMARK VINA RESULT:      -8.3      1.933      6.416
REMARK  5 active torsions:
REMARK  status: ('A' for Active; 'I' for Inactive)
REMARK       I    between atoms: C_2  and  N_3 
REMARK    1  A    between atoms: N_3  and  C_4 
REMARK    2  A    between atoms: N_7  and  C_8 
REMARK    3  A    between atoms: C_8  and  C_9 
REMARK       I    between atoms: C_9  and  N_10 
REMARK    4  A    between atoms: C_13  and  O_14 
REMARK    5  A    between atoms: C_13  and  C_15 
ROOT
HETATM    1  C   UNL     1      41.007 -12.757   3.789  1.00  0.00     0.238 C 
HETATM    2  N   UNL     1      40.934 -13.583   2.658  1.00  0.00    -0.350 N 
HETATM    3  C   UNL     1      40.156 -14.820   2.637  1.00  0.00     0.129 C 
HETATM    4  C   UNL     1      39.888 -15.308   1.222  1.00  0.00     0.063 C 
HETATM    5  C   UNL     1      41.204 -15.532   0.460  1.00  0.00     0.088 C 
HETATM    6  C   UNL     1      41.923 -14.173   0.408  1.00  0.00     0.063 C 
HETATM    7  C   UNL     1      42.091 -13.505   1.769  1.00  0.00     0.129 C 
HETATM    8  O   UNL     1      41.712 -11.743   3.799  1.00  0.00    -0.272 OA
ENDROOT
BRANCH   1   9
HETATM    9  C   UNL     1      40.261 -13.162   5.051  1.00  0.00     0.231 C 
BRANCH   9  10
HETATM   10  N   UNL     1      40.832 -14.362   5.654  1.00  0.00    -0.347 N 
HETATM   11  C   UNL     1      42.147 -14.536   6.048  1.00  0.00     0.047 A 
HETATM   12  C   UNL     1      42.254 -15.831   6.579  1.00  0.00     0.019 A 
HETATM   13  C   UNL     1      43.254 -13.677   5.983  1.00  0.00     0.031 A 
HETATM   14  C   UNL     1      43.509 -16.302   7.051  1.00  0.00     0.047 A 
HETATM   15  C   UNL     1      40.961 -16.425   6.472  1.00  0.00     0.033 A 
HETATM   16  C   UNL     1      44.601 -15.428   7.002  1.00  0.00     0.030 A 
HETATM   17  C   UNL     1      44.474 -14.142   6.475  1.00  0.00     0.005 A 
HETATM   18  C   UNL     1      40.121 -15.514   5.882  1.00  0.00     0.092 A 
BRANCH  14  19
HETATM   19  N   UNL     1      43.558 -17.607   7.580  1.00  0.00    -0.327 N 
HETATM   20  C   UNL     1      43.658 -18.843   7.018  1.00  0.00     0.218 C 
HETATM   21  C   UNL     1      43.518 -19.042   5.537  1.00  0.00     0.117 C 
HETATM   22  O   UNL     1      43.816 -19.814   7.763  1.00  0.00    -0.274 OA
HETATM   23  H   UNL     1      43.490 -17.672   8.588  1.00  0.00     0.169 HD
ENDBRANCH  14  19
ENDBRANCH   9  10
ENDBRANCH   1   9
BRANCH   5  24
HETATM   24  O   UNL     1      40.861 -15.856  -0.898  1.00  0.00    -0.385 OA
HETATM   25  H   UNL     1      41.503 -15.409  -1.477  1.00  0.00     0.211 HD
ENDBRANCH   5  24
BRANCH   5  26
HETATM   26  C   UNL     1      41.982 -16.733   1.009  1.00  0.00    -0.024 A 
HETATM   27  C   UNL     1      43.387 -16.646   1.107  1.00  0.00     0.012 A 
HETATM   28  C   UNL     1      44.159 -17.724   1.547  1.00  0.00     0.024 A 
HETATM   29  C   UNL     1      43.535 -18.911   1.911  1.00  0.00     0.034 A 
HETATM   30 CL   UNL     1      44.478 -20.249   2.436  1.00  0.00    -0.084 Cl
HETATM   31  C   UNL     1      42.149 -19.014   1.860  1.00  0.00     0.024 A 
HETATM   32  C   UNL     1      41.377 -17.928   1.425  1.00  0.00     0.012 A 
ENDBRANCH   5  26
TORSDOF 5
ENDMDL
MODEL 8
REMARK VINA RESULT:      -8.0      3.325      7.323
REMARK  5 active torsions:
REMARK  status: ('A' for Active; 'I' for Inactive)
REMARK       I    between atoms: C_2  and  N_3 
REMARK    1  A    between atoms: N_3  and  C_4 
REMARK    2  A    between atoms: N_7  and  C_8 
REMARK    3  A    between atoms: C_8  and  C_9 
REMARK       I    between atoms: C_9  and  N_10 
REMARK    4  A    between atoms: C_13  and  O_14 
REMARK    5  A    between atoms: C_13  and  C_15 
ROOT
HETATM    1  C   UNL     1      42.161 -14.571   5.634  1.00  0.00     0.238 C 
HETATM    2  N   UNL     1      41.354 -13.539   5.136  1.00  0.00    -0.350 N 
HETATM    3  C   UNL     1      39.925 -13.714   4.880  1.00  0.00     0.129 C 
HETATM    4  C   UNL     1      39.196 -12.385   4.755  1.00  0.00     0.063 C 
HETATM    5  C   UNL     1      39.804 -11.528   3.634  1.00  0.00     0.088 C 
HETATM    6  C   UNL     1      41.272 -11.275   4.016  1.00  0.00     0.063 C 
HETATM    7  C   UNL     1      42.060 -12.542   4.336  1.00  0.00     0.129 C 
HETATM    8  O   UNL     1      43.376 -14.415   5.794  1.00  0.00    -0.272 OA
ENDROOT
BRANCH   1   9
HETATM    9  C   UNL     1      41.540 -15.933   5.909  1.00  0.00     0.231 C 
BRANCH   9  10
HETATM   10  N   UNL     1      42.003 -16.938   4.957  1.00  0.00    -0.347 N 
HETATM   11  C   UNL     1      43.083 -17.787   5.121  1.00  0.00     0.047 A 
HETATM   12  C   UNL     1      43.160 -18.588   3.971  1.00  0.00     0.019 A 
HETATM   13  C   UNL     1      44.001 -17.924   6.172  1.00  0.00     0.031 A 
HETATM   14  C   UNL     1      44.197 -19.552   3.847  1.00  0.00     0.047 A 
HETATM   15  C   UNL     1      42.098 -18.174   3.112  1.00  0.00     0.033 A 
HETATM   16  C   UNL     1      45.094 -19.695   4.911  1.00  0.00     0.030 A 
HETATM   17  C   UNL     1      44.998 -18.892   6.049  1.00  0.00     0.005 A 
HETATM   18  C   UNL     1      41.425 -17.151   3.730  1.00  0.00     0.092 A 
BRANCH  14  19
HETATM   19  N   UNL     1      44.223 -20.334   2.675  1.00  0.00    -0.327 N 
HETATM   20  C   UNL     1      44.285 -21.675   2.444  1.00  0.00     0.218 C 
HETATM   21  C   UNL     1      44.568 -22.646   3.553  1.00  0.00     0.117 C 
HETATM   22  O   UNL     1      44.154 -22.077   1.285  1.00  0.00    -0.274 OA
HETATM   23  H   UNL     1      44.211 -19.817   1.804  1.00  0.00     0.169 HD
ENDBRANCH  14  19
ENDBRANCH   9  10
ENDBRANCH   1   9
BRANCH   5  24
HETATM   24  O   UNL     1      39.153 -10.247   3.675  1.00  0.00    -0.385 OA
HETATM   25  H   UNL     1      38.664 -10.140   2.840  1.00  0.00     0.211 HD
ENDBRANCH   5  24
BRANCH   5  26
HETATM   26  C   UNL     1      39.517 -12.116   2.248  1.00  0.00    -0.024 A 
HETATM   27  C   UNL     1      38.175 -12.316   1.858  1.00  0.00     0.012 A 
HETATM   28  C   UNL     1      37.848 -12.898   0.631  1.00  0.00     0.024 A 
HETATM   29  C   UNL     1      38.861 -13.281  -0.238  1.00  0.00     0.034 A 
HETATM   30 CL   UNL     1      38.468 -14.016  -1.742  1.00  0.00    -0.084 Cl
HETATM   31  C   UNL     1      40.192 -13.063   0.102  1.00  0.00     0.024 A 
HETATM   32  C   UNL     1      40.517 -12.472   1.331  1.00  0.00     0.012 A 
ENDBRANCH   5  26
TORSDOF 5
ENDMDL
MODEL 9
REMARK VINA RESULT:      -8.0      1.898      2.837
REMARK  5 active torsions:
REMARK  status: ('A' for Active; 'I' for Inactive)
REMARK       I    between atoms: C_2  and  N_3 
REMARK    1  A    between atoms: N_3  and  C_4 
REMARK    2  A    between atoms: N_7  and  C_8 
REMARK    3  A    between atoms: C_8  and  C_9 
REMARK       I    between atoms: C_9  and  N_10 
REMARK    4  A    between atoms: C_13  and  O_14 
REMARK    5  A    between atoms: C_13  and  C_15 
ROOT
HETATM    1  C   UNL     1      40.820 -14.884   2.465  1.00  0.00     0.238 C 
HETATM    2  N   UNL     1      41.505 -15.628   3.436  1.00  0.00    -0.350 N 
HETATM    3  C   UNL     1      42.963 -15.732   3.461  1.00  0.00     0.129 C 
HETATM    4  C   UNL     1      43.482 -16.218   4.805  1.00  0.00     0.063 C 
HETATM    5  C   UNL     1      42.877 -17.584   5.166  1.00  0.00     0.088 C 
HETATM    6  C   UNL     1      41.354 -17.388   5.243  1.00  0.00     0.063 C 
HETATM    7  C   UNL     1      40.745 -16.739   4.004  1.00  0.00     0.129 C 
HETATM    8  O   UNL     1      39.586 -14.853   2.433  1.00  0.00    -0.272 OA
ENDROOT
BRANCH   1   9
HETATM    9  C   UNL     1      41.614 -14.164   1.385  1.00  0.00     0.231 C 
BRANCH   9  10
HETATM   10  N   UNL     1      40.758 -13.737   0.282  1.00  0.00    -0.347 N 
HETATM   11  C   UNL     1      40.628 -14.362  -0.945  1.00  0.00     0.047 A 
HETATM   12  C   UNL     1      39.700 -13.621  -1.693  1.00  0.00     0.019 A 
HETATM   13  C   UNL     1      41.244 -15.508  -1.469  1.00  0.00     0.031 A 
HETATM   14  C   UNL     1      39.378 -14.019  -3.019  1.00  0.00     0.047 A 
HETATM   15  C   UNL     1      39.294 -12.526  -0.873  1.00  0.00     0.033 A 
HETATM   16  C   UNL     1      39.981 -15.177  -3.523  1.00  0.00     0.030 A 
HETATM   17  C   UNL     1      40.899 -15.903  -2.762  1.00  0.00     0.005 A 
HETATM   18  C   UNL     1      39.974 -12.610   0.316  1.00  0.00     0.092 A 
BRANCH  14  19
HETATM   19  N   UNL     1      38.435 -13.244  -3.721  1.00  0.00    -0.327 N 
HETATM   20  C   UNL     1      37.132 -13.439  -4.067  1.00  0.00     0.218 C 
HETATM   21  C   UNL     1      36.471 -14.775  -3.896  1.00  0.00     0.117 C 
HETATM   22  O   UNL     1      36.514 -12.501  -4.577  1.00  0.00    -0.274 OA
HETATM   23  H   UNL     1      38.772 -12.355  -4.070  1.00  0.00     0.169 HD
ENDBRANCH  14  19
ENDBRANCH   9  10
ENDBRANCH   1   9
BRANCH   5  24
HETATM   24  O   UNL     1      43.308 -17.904   6.500  1.00  0.00    -0.385 OA
HETATM   25  H   UNL     1      44.162 -18.366   6.429  1.00  0.00     0.211 HD
ENDBRANCH   5  24
BRANCH   5  26
HETATM   26  C   UNL     1      43.409 -18.699   4.260  1.00  0.00    -0.024 A 
HETATM   27  C   UNL     1      42.870 -18.838   2.962  1.00  0.00     0.012 A 
HETATM   28  C   UNL     1      43.273 -19.867   2.108  1.00  0.00     0.024 A 
HETATM   29  C   UNL     1      44.236 -20.774   2.531  1.00  0.00     0.034 A 
HETATM   30 CL   UNL     1      44.724 -22.055   1.494  1.00  0.00    -0.084 Cl
HETATM   31  C   UNL     1      44.812 -20.641   3.790  1.00  0.00     0.024 A 
HETATM   32  C   UNL     1      44.411 -19.603   4.643  1.00  0.00     0.012 A 
ENDBRANCH   5  26
TORSDOF 5
ENDMDL
MODEL 10
REMARK VINA RESULT:      -7.9      2.778      7.707
REMARK  5 active torsions:
REMARK  status: ('A' for Active; 'I' for Inactive)
REMARK       I    between atoms: C_2  and  N_3 
REMARK    1  A    between atoms: N_3  and  C_4 
REMARK    2  A    between atoms: N_7  and  C_8 
REMARK    3  A    between atoms: C_8  and  C_9 
REMARK       I    between atoms: C_9  and  N_10 
REMARK    4  A    between atoms: C_13  and  O_14 
REMARK    5  A    between atoms: C_13  and  C_15 
ROOT
HETATM    1  C   UNL     1      41.710 -14.287   3.751  1.00  0.00     0.238 C 
HETATM    2  N   UNL     1      41.140 -13.448   2.783  1.00  0.00    -0.350 N 
HETATM    3  C   UNL     1      39.768 -13.615   2.308  1.00  0.00     0.129 C 
HETATM    4  C   UNL     1      39.248 -12.374   1.602  1.00  0.00     0.063 C 
HETATM    5  C   UNL     1      40.147 -12.002   0.412  1.00  0.00     0.088 C 
HETATM    6  C   UNL     1      41.546 -11.719   0.985  1.00  0.00     0.063 C 
HETATM    7  C   UNL     1      42.097 -12.838   1.863  1.00  0.00     0.129 C 
HETATM    8  O   UNL     1      42.888 -14.158   4.100  1.00  0.00    -0.272 OA
ENDROOT
BRANCH   1   9
HETATM    9  C   UNL     1      40.882 -15.425   4.327  1.00  0.00     0.231 C 
BRANCH   9  10
HETATM   10  N   UNL     1      41.704 -16.595   4.620  1.00  0.00    -0.347 N 
HETATM   11  C   UNL     1      42.420 -17.346   3.704  1.00  0.00     0.047 A 
HETATM   12  C   UNL     1      43.068 -18.365   4.418  1.00  0.00     0.019 A 
HETATM   13  C   UNL     1      42.554 -17.225   2.313  1.00  0.00     0.031 A 
HETATM   14  C   UNL     1      43.870 -19.315   3.728  1.00  0.00     0.047 A 
HETATM   15  C   UNL     1      42.701 -18.203   5.787  1.00  0.00     0.033 A 
HETATM   16  C   UNL     1      44.015 -19.171   2.343  1.00  0.00     0.030 A 
HETATM   17  C   UNL     1      43.365 -18.148   1.652  1.00  0.00     0.005 A 
HETATM   18  C   UNL     1      41.850 -17.131   5.876  1.00  0.00     0.092 A 
BRANCH  14  19
HETATM   19  N   UNL     1      44.504 -20.312   4.494  1.00  0.00    -0.327 N 
HETATM   20  C   UNL     1      44.848 -21.606   4.248  1.00  0.00     0.218 C 
HETATM   21  C   UNL     1      44.364 -22.323   3.021  1.00  0.00     0.117 C 
HETATM   22  O   UNL     1      45.529 -22.202   5.087  1.00  0.00    -0.274 OA
HETATM   23  H   UNL     1      44.753 -20.045   5.439  1.00  0.00     0.169 HD
ENDBRANCH  14  19
ENDBRANCH   9  10
ENDBRANCH   1   9
BRANCH   5  24
HETATM   24  O   UNL     1      39.668 -10.751  -0.110  1.00  0.00    -0.385 OA
HETATM   25  H   UNL     1      38.711 -10.706   0.067  1.00  0.00     0.211 HD
ENDBRANCH   5  24
BRANCH   5  26
HETATM   26  C   UNL     1      40.033 -13.019  -0.728  1.00  0.00    -0.024 A 
HETATM   27  C   UNL     1      38.792 -13.170  -1.384  1.00  0.00     0.012 A 
HETATM   28  C   UNL     1      38.608 -14.119  -2.394  1.00  0.00     0.024 A 
HETATM   29  C   UNL     1      39.669 -14.929  -2.776  1.00  0.00     0.034 A 
HETATM   30 CL   UNL     1      39.446 -16.111  -4.004  1.00  0.00    -0.084 Cl
HETATM   31  C   UNL     1      40.914 -14.778  -2.173  1.00  0.00     0.024 A 
HETATM   32  C   UNL     1      41.097 -13.821  -1.166  1.00  0.00     0.012 A 
ENDBRANCH   5  26
TORSDOF 5
ENDMDL
