MODEL 1
REMARK VINA RESULT:      -8.1      0.000      0.000
REMARK  2 active torsions:
REMARK  status: ('A' for Active; 'I' for Inactive)
REMARK    1  A    between atoms: N_8  and  C_9 
REMARK    2  A    between atoms: C_11  and  C_12 
ROOT
HETATM    1  C   UNL     1      39.998 -13.647   5.879  1.00  0.00     0.269 C 
HETATM    2  N   UNL     1      41.287 -14.424   5.851  1.00  0.00    -0.075 N 
HETATM    3  H   UNL     1      41.532 -14.560   6.842  1.00  0.00     0.279 HD
HETATM    4  C   UNL     1      41.138 -15.819   5.294  1.00  0.00     0.235 C 
HETATM    5  C   UNL     1      41.029 -15.779   3.775  1.00  0.00     0.039 C 
HETATM    6  C   UNL     1      42.229 -15.062   3.101  1.00  0.00    -0.021 C 
HETATM    7  C   UNL     1      43.541 -15.865   3.297  1.00  0.00     0.151 C 
HETATM    8  N   UNL     1      43.376 -17.150   2.649  1.00  0.00    -0.213 N 
HETATM    9  C   UNL     1      43.255 -17.129   1.198  1.00  0.00     0.141 C 
HETATM   10  C   UNL     1      42.030 -16.279   0.832  1.00  0.00     0.021 C 
HETATM   11  C   UNL     1      41.996 -14.931   1.569  1.00  0.00     0.013 C 
HETATM   12  C   UNL     1      42.361 -13.653   3.724  1.00  0.00     0.039 C 
HETATM   13  C   UNL     1      42.439 -13.666   5.249  1.00  0.00     0.235 C 
ENDROOT
BRANCH   8  14
HETATM   14  C   UNL     1      43.796 -18.287   3.295  1.00  0.00     0.724 A 
HETATM   15  N   UNL     1      43.778 -19.436   2.600  1.00  0.00    -0.058 NA
HETATM   16  C   UNL     1      44.276 -20.560   3.184  1.00  0.00     0.160 A 
HETATM   17  C   UNL     1      44.773 -20.551   4.470  1.00  0.00     0.057 A 
HETATM   18  C   UNL     1      44.752 -19.337   5.105  1.00  0.00     0.139 A 
HETATM   19  N   UNL     1      44.286 -18.211   4.537  1.00  0.00    -0.075 NA
BRANCH  16  20
HETATM   20  C   UNL     1      44.282 -21.848   2.384  1.00  0.00     0.435 C 
HETATM   21  F   UNL     1      43.117 -22.057   1.696  1.00  0.00    -0.165 F 
HETATM   22  F   UNL     1      45.270 -21.884   1.446  1.00  0.00    -0.165 F 
HETATM   23  F   UNL     1      44.459 -22.953   3.160  1.00  0.00    -0.165 F 
ENDBRANCH  16  20
ENDBRANCH   8  14
TORSDOF 2
ENDMDL
MODEL 2
REMARK VINA RESULT:      -7.8      1.718      3.232
REMARK  2 active torsions:
REMARK  status: ('A' for Active; 'I' for Inactive)
REMARK    1  A    between atoms: N_8  and  C_9 
REMARK    2  A    between atoms: C_11  and  C_12 
ROOT
HETATM    1  C   UNL     1      40.264 -14.462  -0.103  1.00  0.00     0.269 C 
HETATM    2  N   UNL     1      40.365 -15.603   0.873  1.00  0.00    -0.075 N 
HETATM    3  H   UNL     1      40.044 -16.427   0.346  1.00  0.00     0.279 HD
HETATM    4  C   UNL     1      41.782 -15.927   1.277  1.00  0.00     0.235 C 
HETATM    5  C   UNL     1      42.298 -14.908   2.284  1.00  0.00     0.039 C 
HETATM    6  C   UNL     1      41.398 -14.793   3.544  1.00  0.00    -0.021 C 
HETATM    7  C   UNL     1      41.436 -16.099   4.378  1.00  0.00     0.151 C 
HETATM    8  N   UNL     1      42.799 -16.300   4.827  1.00  0.00    -0.213 N 
HETATM    9  C   UNL     1      43.314 -15.325   5.779  1.00  0.00     0.141 C 
HETATM   10  C   UNL     1      43.254 -13.939   5.123  1.00  0.00     0.021 C 
HETATM   11  C   UNL     1      41.897 -13.644   4.467  1.00  0.00     0.013 C 
HETATM   12  C   UNL     1      39.955 -14.491   3.080  1.00  0.00     0.039 C 
HETATM   13  C   UNL     1      39.427 -15.482   2.045  1.00  0.00     0.235 C 
ENDROOT
BRANCH   8  14
HETATM   14  C   UNL     1      43.356 -17.553   4.746  1.00  0.00     0.724 A 
HETATM   15  N   UNL     1      43.252 -18.201   3.574  1.00  0.00    -0.058 NA
HETATM   16  C   UNL     1      43.874 -19.403   3.436  1.00  0.00     0.160 A 
HETATM   17  C   UNL     1      44.584 -19.977   4.470  1.00  0.00     0.057 A 
HETATM   18  C   UNL     1      44.637 -19.248   5.628  1.00  0.00     0.139 A 
HETATM   19  N   UNL     1      44.049 -18.047   5.777  1.00  0.00    -0.075 NA
BRANCH  16  20
HETATM   20  C   UNL     1      43.779 -20.118   2.102  1.00  0.00     0.435 C 
HETATM   21  F   UNL     1      44.793 -21.016   1.902  1.00  0.00    -0.165 F 
HETATM   22  F   UNL     1      42.627 -20.833   1.965  1.00  0.00    -0.165 F 
HETATM   23  F   UNL     1      43.823 -19.267   1.040  1.00  0.00    -0.165 F 
ENDBRANCH  16  20
ENDBRANCH   8  14
TORSDOF 2
ENDMDL
MODEL 3
REMARK VINA RESULT:      -7.7      1.884      3.330
REMARK  2 active torsions:
REMARK  status: ('A' for Active; 'I' for Inactive)
REMARK    1  A    between atoms: N_8  and  C_9 
REMARK    2  A    between atoms: C_11  and  C_12 
ROOT
HETATM    1  C   UNL     1      41.305 -12.892   2.122  1.00  0.00     0.269 C 
HETATM    2  N   UNL     1      41.247 -14.374   2.379  1.00  0.00    -0.075 N 
HETATM    3  H   UNL     1      40.797 -14.768   1.540  1.00  0.00     0.279 HD
HETATM    4  C   UNL     1      42.604 -15.031   2.436  1.00  0.00     0.235 C 
HETATM    5  C   UNL     1      43.283 -14.740   3.768  1.00  0.00     0.039 C 
HETATM    6  C   UNL     1      42.430 -15.174   4.990  1.00  0.00    -0.021 C 
HETATM    7  C   UNL     1      42.282 -16.717   5.047  1.00  0.00     0.151 C 
HETATM    8  N   UNL     1      43.606 -17.284   5.210  1.00  0.00    -0.213 N 
HETATM    9  C   UNL     1      44.275 -17.003   6.473  1.00  0.00     0.141 C 
HETATM   10  C   UNL     1      44.417 -15.480   6.611  1.00  0.00     0.021 C 
HETATM   11  C   UNL     1      43.109 -14.729   6.316  1.00  0.00     0.013 C 
HETATM   12  C   UNL     1      41.042 -14.504   4.872  1.00  0.00     0.039 C 
HETATM   13  C   UNL     1      40.355 -14.755   3.531  1.00  0.00     0.235 C 
ENDROOT
BRANCH   8  14
HETATM   14  C   UNL     1      43.965 -18.378   4.461  1.00  0.00     0.724 A 
HETATM   15  N   UNL     1      44.226 -19.519   5.118  1.00  0.00    -0.058 NA
HETATM   16  C   UNL     1      44.493 -20.641   4.396  1.00  0.00     0.160 A 
HETATM   17  C   UNL     1      44.523 -20.628   3.017  1.00  0.00     0.057 A 
HETATM   18  C   UNL     1      44.246 -19.422   2.430  1.00  0.00     0.139 A 
HETATM   19  N   UNL     1      43.956 -18.307   3.125  1.00  0.00    -0.075 NA
BRANCH  16  20
HETATM   20  C   UNL     1      44.757 -21.935   5.141  1.00  0.00     0.435 C 
HETATM   21  F   UNL     1      46.088 -22.251   5.209  1.00  0.00    -0.165 F 
HETATM   22  F   UNL     1      44.326 -21.899   6.433  1.00  0.00    -0.165 F 
HETATM   23  F   UNL     1      44.148 -23.010   4.571  1.00  0.00    -0.165 F 
ENDBRANCH  16  20
ENDBRANCH   8  14
TORSDOF 2
ENDMDL
MODEL 4
REMARK VINA RESULT:      -7.6      2.030      3.321
REMARK  2 active torsions:
REMARK  status: ('A' for Active; 'I' for Inactive)
REMARK    1  A    between atoms: N_8  and  C_9 
REMARK    2  A    between atoms: C_11  and  C_12 
ROOT
HETATM    1  C   UNL     1      41.412 -12.484   2.001  1.00  0.00     0.269 C 
HETATM    2  N   UNL     1      41.279 -13.882   2.540  1.00  0.00    -0.075 N 
HETATM    3  H   UNL     1      40.749 -14.392   1.819  1.00  0.00     0.279 HD
HETATM    4  C   UNL     1      42.594 -14.616   2.646  1.00  0.00     0.235 C 
HETATM    5  C   UNL     1      43.381 -14.131   3.857  1.00  0.00     0.039 C 
HETATM    6  C   UNL     1      42.589 -14.264   5.185  1.00  0.00    -0.021 C 
HETATM    7  C   UNL     1      42.350 -15.753   5.546  1.00  0.00     0.151 C 
HETATM    8  N   UNL     1      43.644 -16.377   5.740  1.00  0.00    -0.213 N 
HETATM    9  C   UNL     1      44.416 -15.914   6.885  1.00  0.00     0.141 C 
HETATM   10  C   UNL     1      44.661 -14.408   6.720  1.00  0.00     0.021 C 
HETATM   11  C   UNL     1      43.386 -13.629   6.361  1.00  0.00     0.013 C 
HETATM   12  C   UNL     1      41.241 -13.526   5.020  1.00  0.00     0.039 C 
HETATM   13  C   UNL     1      40.448 -13.973   3.793  1.00  0.00     0.235 C 
ENDROOT
BRANCH   8  14
HETATM   14  C   UNL     1      43.881 -17.615   5.195  1.00  0.00     0.724 A 
HETATM   15  N   UNL     1      43.501 -17.814   3.923  1.00  0.00    -0.058 NA
HETATM   16  C   UNL     1      43.807 -18.999   3.328  1.00  0.00     0.160 A 
HETATM   17  C   UNL     1      44.474 -20.000   4.003  1.00  0.00     0.057 A 
HETATM   18  C   UNL     1      44.823 -19.711   5.296  1.00  0.00     0.139 A 
HETATM   19  N   UNL     1      44.551 -18.538   5.894  1.00  0.00    -0.075 NA
BRANCH  16  20
HETATM   20  C   UNL     1      43.402 -19.208   1.881  1.00  0.00     0.435 C 
HETATM   21  F   UNL     1      42.064 -19.018   1.667  1.00  0.00    -0.165 F 
HETATM   22  F   UNL     1      44.032 -18.354   1.027  1.00  0.00    -0.165 F 
HETATM   23  F   UNL     1      43.676 -20.462   1.430  1.00  0.00    -0.165 F 
ENDBRANCH  16  20
ENDBRANCH   8  14
TORSDOF 2
ENDMDL
MODEL 5
REMARK VINA RESULT:      -7.5      2.422      2.981
REMARK  2 active torsions:
REMARK  status: ('A' for Active; 'I' for Inactive)
REMARK    1  A    between atoms: N_8  and  C_9 
REMARK    2  A    between atoms: C_11  and  C_12 
ROOT
HETATM    1  C   UNL     1      39.866 -13.603   5.753  1.00  0.00     0.269 C 
HETATM    2  N   UNL     1      41.188 -14.322   5.791  1.00  0.00    -0.075 N 
HETATM    3  H   UNL     1      41.465 -14.309   6.783  1.00  0.00     0.279 HD
HETATM    4  C   UNL     1      41.090 -15.785   5.435  1.00  0.00     0.235 C 
HETATM    5  C   UNL     1      40.940 -15.960   3.929  1.00  0.00     0.039 C 
HETATM    6  C   UNL     1      42.089 -15.293   3.126  1.00  0.00    -0.021 C 
HETATM    7  C   UNL     1      43.441 -16.005   3.388  1.00  0.00     0.151 C 
HETATM    8  N   UNL     1      43.318 -17.374   2.928  1.00  0.00    -0.213 N 
HETATM    9  C   UNL     1      43.159 -17.558   1.492  1.00  0.00     0.141 C 
HETATM   10  C   UNL     1      41.888 -16.819   1.053  1.00  0.00     0.021 C 
HETATM   11  C   UNL     1      41.810 -15.385   1.598  1.00  0.00     0.013 C 
HETATM   12  C   UNL     1      42.171 -13.807   3.546  1.00  0.00     0.039 C 
HETATM   13  C   UNL     1      42.289 -13.606   5.055  1.00  0.00     0.235 C 
ENDROOT
BRANCH   8  14
HETATM   14  C   UNL     1      43.807 -18.392   3.710  1.00  0.00     0.724 A 
HETATM   15  N   UNL     1      43.668 -18.270   5.040  1.00  0.00    -0.058 NA
HETATM   16  C   UNL     1      44.057 -19.305   5.834  1.00  0.00     0.160 A 
HETATM   17  C   UNL     1      44.607 -20.456   5.310  1.00  0.00     0.057 A 
HETATM   18  C   UNL     1      44.712 -20.494   3.944  1.00  0.00     0.139 A 
HETATM   19  N   UNL     1      44.311 -19.492   3.141  1.00  0.00    -0.075 NA
BRANCH  16  20
HETATM   20  C   UNL     1      43.871 -19.176   7.334  1.00  0.00     0.435 C 
HETATM   21  F   UNL     1      43.629 -20.375   7.948  1.00  0.00    -0.165 F 
HETATM   22  F   UNL     1      44.966 -18.660   7.960  1.00  0.00    -0.165 F 
HETATM   23  F   UNL     1      42.828 -18.369   7.671  1.00  0.00    -0.165 F 
ENDBRANCH  16  20
ENDBRANCH   8  14
TORSDOF 2
ENDMDL
MODEL 6
REMARK VINA RESULT:      -7.4      3.742      5.164
REMARK  2 active torsions:
REMARK  status: ('A' for Active; 'I' for Inactive)
REMARK    1  A    between atoms: N_8  and  C_9 
REMARK    2  A    between atoms: C_11  and  C_12 
ROOT
HETATM    1  C   UNL     1      41.120 -16.309   1.014  1.00  0.00     0.269 C 
HETATM    2  N   UNL     1      42.063 -16.454   2.178  1.00  0.00    -0.075 N 
HETATM    3  H   UNL     1      41.888 -15.624   2.762  1.00  0.00     0.279 HD
HETATM    4  C   UNL     1      41.746 -17.630   3.069  1.00  0.00     0.235 C 
HETATM    5  C   UNL     1      42.207 -18.930   2.423  1.00  0.00     0.039 C 
HETATM    6  C   UNL     1      43.717 -18.926   2.065  1.00  0.00    -0.021 C 
HETATM    7  C   UNL     1      44.593 -18.887   3.343  1.00  0.00     0.151 C 
HETATM    8  N   UNL     1      44.324 -20.091   4.103  1.00  0.00    -0.213 N 
HETATM    9  C   UNL     1      44.744 -21.345   3.492  1.00  0.00     0.141 C 
HETATM   10  C   UNL     1      44.020 -21.489   2.147  1.00  0.00     0.021 C 
HETATM   11  C   UNL     1      44.096 -20.218   1.287  1.00  0.00     0.013 C 
HETATM   12  C   UNL     1      43.999 -17.690   1.180  1.00  0.00     0.039 C 
HETATM   13  C   UNL     1      43.517 -16.378   1.793  1.00  0.00     0.235 C 
ENDROOT
BRANCH   8  14
HETATM   14  C   UNL     1      44.151 -20.003   5.463  1.00  0.00     0.724 A 
HETATM   15  N   UNL     1      43.937 -18.783   5.981  1.00  0.00    -0.058 NA
HETATM   16  C   UNL     1      43.670 -18.677   7.311  1.00  0.00     0.160 A 
HETATM   17  C   UNL     1      43.637 -19.782   8.136  1.00  0.00     0.057 A 
HETATM   18  C   UNL     1      43.866 -20.985   7.524  1.00  0.00     0.139 A 
HETATM   19  N   UNL     1      44.109 -21.114   6.207  1.00  0.00    -0.075 NA
BRANCH  16  20
HETATM   20  C   UNL     1      43.399 -17.300   7.887  1.00  0.00     0.435 C 
HETATM   21  F   UNL     1      44.240 -16.339   7.395  1.00  0.00    -0.165 F 
HETATM   22  F   UNL     1      42.140 -16.854   7.619  1.00  0.00    -0.165 F 
HETATM   23  F   UNL     1      43.535 -17.255   9.240  1.00  0.00    -0.165 F 
ENDBRANCH  16  20
ENDBRANCH   8  14
TORSDOF 2
ENDMDL
MODEL 7
REMARK VINA RESULT:      -7.2      4.262      5.312
REMARK  2 active torsions:
REMARK  status: ('A' for Active; 'I' for Inactive)
REMARK    1  A    between atoms: N_8  and  C_9 
REMARK    2  A    between atoms: C_11  and  C_12 
ROOT
HETATM    1  C   UNL     1      39.134 -14.631   1.121  1.00  0.00     0.269 C 
HETATM    2  N   UNL     1      40.309 -14.469   2.047  1.00  0.00    -0.075 N 
HETATM    3  H   UNL     1      40.139 -13.577   2.532  1.00  0.00     0.279 HD
HETATM    4  C   UNL     1      40.358 -15.504   3.145  1.00  0.00     0.235 C 
HETATM    5  C   UNL     1      40.860 -16.836   2.602  1.00  0.00     0.039 C 
HETATM    6  C   UNL     1      42.246 -16.725   1.913  1.00  0.00    -0.021 C 
HETATM    7  C   UNL     1      43.354 -16.371   2.939  1.00  0.00     0.151 C 
HETATM    8  N   UNL     1      43.426 -17.451   3.903  1.00  0.00    -0.213 N 
HETATM    9  C   UNL     1      43.890 -18.735   3.397  1.00  0.00     0.141 C 
HETATM   10  C   UNL     1      42.931 -19.186   2.286  1.00  0.00     0.021 C 
HETATM   11  C   UNL     1      42.641 -18.080   1.260  1.00  0.00     0.013 C 
HETATM   12  C   UNL     1      42.156 -15.634   0.820  1.00  0.00     0.039 C 
HETATM   13  C   UNL     1      41.624 -14.298   1.335  1.00  0.00     0.235 C 
ENDROOT
BRANCH   8  14
HETATM   14  C   UNL     1      43.528 -17.152   5.240  1.00  0.00     0.724 A 
HETATM   15  N   UNL     1      43.950 -15.920   5.567  1.00  0.00    -0.058 NA
HETATM   16  C   UNL     1      43.971 -15.565   6.881  1.00  0.00     0.160 A 
HETATM   17  C   UNL     1      43.594 -16.442   7.876  1.00  0.00     0.057 A 
HETATM   18  C   UNL     1      43.178 -17.676   7.452  1.00  0.00     0.139 A 
HETATM   19  N   UNL     1      43.127 -18.037   6.157  1.00  0.00    -0.075 NA
BRANCH  16  20
HETATM   20  C   UNL     1      44.420 -14.163   7.244  1.00  0.00     0.435 C 
HETATM   21  F   UNL     1      45.680 -13.870   6.794  1.00  0.00    -0.165 F 
HETATM   22  F   UNL     1      43.614 -13.197   6.722  1.00  0.00    -0.165 F 
HETATM   23  F   UNL     1      44.446 -13.946   8.588  1.00  0.00    -0.165 F 
ENDBRANCH  16  20
ENDBRANCH   8  14
TORSDOF 2
ENDMDL
MODEL 8
REMARK VINA RESULT:      -7.2      3.962      5.942
REMARK  2 active torsions:
REMARK  status: ('A' for Active; 'I' for Inactive)
REMARK    1  A    between atoms: N_8  and  C_9 
REMARK    2  A    between atoms: C_11  and  C_12 
ROOT
HETATM    1  C   UNL     1      43.956 -15.519   7.360  1.00  0.00     0.269 C 
HETATM    2  N   UNL     1      42.691 -15.504   6.545  1.00  0.00    -0.075 N 
HETATM    3  H   UNL     1      42.129 -14.741   6.948  1.00  0.00     0.279 HD
HETATM    4  C   UNL     1      42.907 -15.109   5.105  1.00  0.00     0.235 C 
HETATM    5  C   UNL     1      43.502 -16.268   4.316  1.00  0.00     0.039 C 
HETATM    6  C   UNL     1      42.642 -17.557   4.391  1.00  0.00    -0.021 C 
HETATM    7  C   UNL     1      41.280 -17.363   3.676  1.00  0.00     0.151 C 
HETATM    8  N   UNL     1      41.549 -17.093   2.277  1.00  0.00    -0.213 N 
HETATM    9  C   UNL     1      42.133 -18.186   1.512  1.00  0.00     0.141 C 
HETATM   10  C   UNL     1      43.471 -18.564   2.163  1.00  0.00     0.021 C 
HETATM   11  C   UNL     1      43.367 -18.739   3.686  1.00  0.00     0.013 C 
HETATM   12  C   UNL     1      42.422 -17.905   5.882  1.00  0.00     0.039 C 
HETATM   13  C   UNL     1      41.855 -16.747   6.701  1.00  0.00     0.235 C 
ENDROOT
BRANCH   8  14
HETATM   14  C   UNL     1      40.858 -16.090   1.642  1.00  0.00     0.724 A 
HETATM   15  N   UNL     1      41.283 -15.724   0.422  1.00  0.00    -0.058 NA
HETATM   16  C   UNL     1      40.562 -14.799  -0.270  1.00  0.00     0.160 A 
HETATM   17  C   UNL     1      39.429 -14.218   0.259  1.00  0.00     0.057 A 
HETATM   18  C   UNL     1      39.069 -14.650   1.508  1.00  0.00     0.139 A 
HETATM   19  N   UNL     1      39.754 -15.580   2.197  1.00  0.00    -0.075 NA
BRANCH  16  20
HETATM   20  C   UNL     1      41.029 -14.411  -1.660  1.00  0.00     0.435 C 
HETATM   21  F   UNL     1      41.275 -15.491  -2.464  1.00  0.00    -0.165 F 
HETATM   22  F   UNL     1      40.114 -13.657  -2.333  1.00  0.00    -0.165 F 
HETATM   23  F   UNL     1      42.180 -13.686  -1.649  1.00  0.00    -0.165 F 
ENDBRANCH  16  20
ENDBRANCH   8  14
TORSDOF 2
ENDMDL
MODEL 9
REMARK VINA RESULT:      -7.1      2.464      3.910
REMARK  2 active torsions:
REMARK  status: ('A' for Active; 'I' for Inactive)
REMARK    1  A    between atoms: N_8  and  C_9 
REMARK    2  A    between atoms: C_11  and  C_12 
ROOT
HETATM    1  C   UNL     1      40.777 -12.233  -0.091  1.00  0.00     0.269 C 
HETATM    2  N   UNL     1      40.800 -13.730   0.063  1.00  0.00    -0.075 N 
HETATM    3  H   UNL     1      41.019 -14.087  -0.877  1.00  0.00     0.279 HD
HETATM    4  C   UNL     1      41.923 -14.229   0.939  1.00  0.00     0.235 C 
HETATM    5  C   UNL     1      41.599 -13.996   2.409  1.00  0.00     0.039 C 
HETATM    6  C   UNL     1      40.258 -14.645   2.843  1.00  0.00    -0.021 C 
HETATM    7  C   UNL     1      40.342 -16.192   2.785  1.00  0.00     0.151 C 
HETATM    8  N   UNL     1      41.361 -16.617   3.724  1.00  0.00    -0.213 N 
HETATM    9  C   UNL     1      41.074 -16.388   5.133  1.00  0.00     0.141 C 
HETATM   10  C   UNL     1      40.870 -14.881   5.341  1.00  0.00     0.021 C 
HETATM   11  C   UNL     1      39.915 -14.259   4.310  1.00  0.00     0.013 C 
HETATM   12  C   UNL     1      39.146 -14.130   1.901  1.00  0.00     0.039 C 
HETATM   13  C   UNL     1      39.463 -14.324   0.420  1.00  0.00     0.235 C 
ENDROOT
BRANCH   8  14
HETATM   14  C   UNL     1      42.263 -17.582   3.346  1.00  0.00     0.724 A 
HETATM   15  N   UNL     1      43.091 -18.058   4.289  1.00  0.00    -0.058 NA
HETATM   16  C   UNL     1      43.929 -19.080   3.966  1.00  0.00     0.160 A 
HETATM   17  C   UNL     1      43.964 -19.617   2.696  1.00  0.00     0.057 A 
HETATM   18  C   UNL     1      43.087 -19.071   1.798  1.00  0.00     0.139 A 
HETATM   19  N   UNL     1      42.233 -18.077   2.104  1.00  0.00    -0.075 NA
BRANCH  16  20
HETATM   20  C   UNL     1      44.842 -19.635   5.043  1.00  0.00     0.435 C 
HETATM   21  F   UNL     1      45.763 -20.524   4.558  1.00  0.00    -0.165 F 
HETATM   22  F   UNL     1      45.566 -18.668   5.672  1.00  0.00    -0.165 F 
HETATM   23  F   UNL     1      44.166 -20.298   6.021  1.00  0.00    -0.165 F 
ENDBRANCH  16  20
ENDBRANCH   8  14
TORSDOF 2
ENDMDL
MODEL 10
REMARK VINA RESULT:      -7.1      4.487      6.578
REMARK  2 active torsions:
REMARK  status: ('A' for Active; 'I' for Inactive)
REMARK    1  A    between atoms: N_8  and  C_9 
REMARK    2  A    between atoms: C_11  and  C_12 
ROOT
HETATM    1  C   UNL     1      43.560 -16.309   7.470  1.00  0.00     0.269 C 
HETATM    2  N   UNL     1      42.402 -15.912   6.595  1.00  0.00    -0.075 N 
HETATM    3  H   UNL     1      41.905 -15.187   7.132  1.00  0.00     0.279 HD
HETATM    4  C   UNL     1      42.818 -15.230   5.315  1.00  0.00     0.235 C 
HETATM    5  C   UNL     1      43.338 -16.251   4.310  1.00  0.00     0.039 C 
HETATM    6  C   UNL     1      42.314 -17.376   4.005  1.00  0.00    -0.021 C 
HETATM    7  C   UNL     1      41.073 -16.815   3.263  1.00  0.00     0.151 C 
HETATM    8  N   UNL     1      41.521 -16.271   1.997  1.00  0.00    -0.213 N 
HETATM    9  C   UNL     1      42.036 -17.232   1.031  1.00  0.00     0.141 C 
HETATM   10  C   UNL     1      43.235 -17.951   1.663  1.00  0.00     0.021 C 
HETATM   11  C   UNL     1      42.949 -18.457   3.084  1.00  0.00     0.013 C 
HETATM   12  C   UNL     1      41.894 -18.023   5.345  1.00  0.00     0.039 C 
HETATM   13  C   UNL     1      41.399 -17.014   6.380  1.00  0.00     0.235 C 
ENDROOT
BRANCH   8  14
HETATM   14  C   UNL     1      41.039 -15.055   1.579  1.00  0.00     0.724 A 
HETATM   15  N   UNL     1      39.740 -14.987   1.243  1.00  0.00    -0.058 NA
HETATM   16  C   UNL     1      39.214 -13.775   0.916  1.00  0.00     0.160 A 
HETATM   17  C   UNL     1      39.981 -12.630   0.900  1.00  0.00     0.057 A 
HETATM   18  C   UNL     1      41.294 -12.791   1.256  1.00  0.00     0.139 A 
HETATM   19  N   UNL     1      41.828 -13.976   1.606  1.00  0.00    -0.075 NA
BRANCH  16  20
HETATM   20  C   UNL     1      37.740 -13.698   0.566  1.00  0.00     0.435 C 
HETATM   21  F   UNL     1      37.511 -13.679  -0.783  1.00  0.00    -0.165 F 
HETATM   22  F   UNL     1      37.028 -14.758   1.041  1.00  0.00    -0.165 F 
HETATM   23  F   UNL     1      37.135 -12.584   1.061  1.00  0.00    -0.165 F 
ENDBRANCH  16  20
ENDBRANCH   8  14
TORSDOF 2
ENDMDL
