MODEL 1
REMARK VINA RESULT:      -9.1      0.000      0.000
REMARK  6 active torsions:
REMARK  status: ('A' for Active; 'I' for Inactive)
REMARK    1  A    between atoms: C_3  and  C_4 
REMARK    2  A    between atoms: C_9  and  N_10 
REMARK       I    between atoms: N_10  and  C_11 
REMARK       I    between atoms: C_11  and  N_12 
REMARK    3  A    between atoms: N_12  and  C_13 
REMARK    4  A    between atoms: C_13  and  C_14 
REMARK    5  A    between atoms: C_14  and  C_15 
REMARK    6  A    between atoms: C_18  and  N_19 
ROOT
HETATM    1  N   UNL     1      43.986 -12.504   8.799  1.00  0.00    -0.309 N 
HETATM    2  C   UNL     1      45.241 -12.684   8.286  1.00  0.00     0.320 C 
HETATM    3  N   UNL     1      45.342 -13.595   7.276  1.00  0.00    -0.343 N 
HETATM    4  O   UNL     1      46.262 -12.097   8.629  1.00  0.00    -0.247 OA
HETATM    5  H   UNL     1      43.242 -13.000   8.340  1.00  0.00     0.170 HD
HETATM    6  H   UNL     1      46.282 -13.644   6.900  1.00  0.00     0.164 HD
ENDROOT
BRANCH   3   7
HETATM    7  C   UNL     1      44.324 -14.408   6.629  1.00  0.00     0.129 C 
BRANCH   7   8
HETATM    8  C   UNL     1      44.112 -15.772   7.294  1.00  0.00     0.058 C 
BRANCH   8   9
HETATM    9  C   UNL     1      44.108 -16.924   6.317  1.00  0.00    -0.057 A 
HETATM   10  C   UNL     1      43.185 -16.959   5.267  1.00  0.00     0.009 A 
HETATM   11  C   UNL     1      43.192 -18.014   4.351  1.00  0.00     0.032 A 
HETATM   12  C   UNL     1      44.121 -19.058   4.477  1.00  0.00     0.058 A 
HETATM   13  C   UNL     1      45.037 -19.034   5.536  1.00  0.00     0.032 A 
HETATM   14  C   UNL     1      45.029 -17.971   6.446  1.00  0.00     0.009 A 
BRANCH  12  15
HETATM   15  N   UNL     1      44.119 -20.114   3.524  1.00  0.00    -0.246 N 
HETATM   16  N   UNL     1      44.686 -21.317   3.811  1.00  0.00    -0.180 NA
HETATM   17  C   UNL     1      44.490 -22.057   2.719  1.00  0.00     0.140 A 
HETATM   18  C   UNL     1      43.811 -21.358   1.713  1.00  0.00     0.040 A 
HETATM   19  C   UNL     1      43.584 -20.114   2.250  1.00  0.00     0.120 A 
ENDBRANCH  12  15
ENDBRANCH   8   9
ENDBRANCH   7   8
ENDBRANCH   3   7
BRANCH   1  20
HETATM   20  C   UNL     1      43.595 -11.644   9.844  1.00  0.00     0.036 A 
HETATM   21  C   UNL     1      44.063 -11.740  11.152  1.00  0.00     0.030 A 
HETATM   22  C   UNL     1      43.612 -10.852  12.133  1.00  0.00     0.018 A 
HETATM   23  C   UNL     1      42.692  -9.840  11.820  1.00  0.00     0.015 A 
HETATM   24  C   UNL     1      42.217  -9.721  10.500  1.00  0.00    -0.046 A 
HETATM   25  C   UNL     1      41.238  -8.656  10.083  1.00  0.00     0.049 C 
HETATM   26  C   UNL     1      42.665 -10.641   9.532  1.00  0.00     0.037 A 
BRANCH  23  27
HETATM   27  C   UNL     1      42.222  -8.928  12.905  1.00  0.00     0.156 C 
HETATM   28  C   UNL     1      41.030  -9.348  13.727  1.00  0.00     0.097 C 
HETATM   29  O   UNL     1      42.778  -7.852  13.102  1.00  0.00    -0.293 OA
ENDBRANCH  23  27
ENDBRANCH   1  20
TORSDOF 6
ENDMDL
MODEL 2
REMARK VINA RESULT:      -8.8      3.086     11.374
REMARK  6 active torsions:
REMARK  status: ('A' for Active; 'I' for Inactive)
REMARK    1  A    between atoms: C_3  and  C_4 
REMARK    2  A    between atoms: C_9  and  N_10 
REMARK       I    between atoms: N_10  and  C_11 
REMARK       I    between atoms: C_11  and  N_12 
REMARK    3  A    between atoms: N_12  and  C_13 
REMARK    4  A    between atoms: C_13  and  C_14 
REMARK    5  A    between atoms: C_14  and  C_15 
REMARK    6  A    between atoms: C_18  and  N_19 
ROOT
HETATM    1  N   UNL     1      44.218 -16.547   6.009  1.00  0.00    -0.309 N 
HETATM    2  C   UNL     1      43.711 -16.320   7.258  1.00  0.00     0.320 C 
HETATM    3  N   UNL     1      43.777 -15.031   7.698  1.00  0.00    -0.343 N 
HETATM    4  O   UNL     1      43.192 -17.150   7.997  1.00  0.00    -0.247 OA
HETATM    5  H   UNL     1      44.525 -15.736   5.498  1.00  0.00     0.170 HD
HETATM    6  H   UNL     1      43.337 -14.915   8.604  1.00  0.00     0.164 HD
ENDROOT
BRANCH   3   7
HETATM    7  C   UNL     1      44.287 -13.834   7.048  1.00  0.00     0.129 C 
BRANCH   7   8
HETATM    8  C   UNL     1      45.351 -13.095   7.867  1.00  0.00     0.058 C 
BRANCH   8   9
HETATM    9  C   UNL     1      44.774 -12.187   8.926  1.00  0.00    -0.057 A 
HETATM   10  C   UNL     1      45.431 -12.020  10.150  1.00  0.00     0.009 A 
HETATM   11  C   UNL     1      44.907 -11.165  11.124  1.00  0.00     0.032 A 
HETATM   12  C   UNL     1      43.712 -10.469  10.891  1.00  0.00     0.058 A 
HETATM   13  C   UNL     1      43.045 -10.645   9.673  1.00  0.00     0.032 A 
HETATM   14  C   UNL     1      43.576 -11.497   8.699  1.00  0.00     0.009 A 
BRANCH  12  15
HETATM   15  N   UNL     1      43.208  -9.592  11.891  1.00  0.00    -0.246 N 
HETATM   16  N   UNL     1      42.354  -8.582  11.571  1.00  0.00    -0.180 NA
HETATM   17  C   UNL     1      42.078  -7.986  12.731  1.00  0.00     0.140 A 
HETATM   18  C   UNL     1      42.743  -8.580  13.811  1.00  0.00     0.040 A 
HETATM   19  C   UNL     1      43.463  -9.607  13.248  1.00  0.00     0.120 A 
ENDBRANCH  12  15
ENDBRANCH   8   9
ENDBRANCH   7   8
ENDBRANCH   3   7
BRANCH   1  20
HETATM   20  C   UNL     1      44.290 -17.770   5.313  1.00  0.00     0.036 A 
HETATM   21  C   UNL     1      44.965 -18.895   5.780  1.00  0.00     0.030 A 
HETATM   22  C   UNL     1      44.998 -20.068   5.019  1.00  0.00     0.018 A 
HETATM   23  C   UNL     1      44.343 -20.141   3.782  1.00  0.00     0.015 A 
HETATM   24  C   UNL     1      43.646 -19.017   3.300  1.00  0.00    -0.046 A 
HETATM   25  C   UNL     1      42.909 -19.020   1.987  1.00  0.00     0.049 C 
HETATM   26  C   UNL     1      43.645 -17.838   4.070  1.00  0.00     0.037 A 
BRANCH  23  27
HETATM   27  C   UNL     1      44.424 -21.408   2.993  1.00  0.00     0.156 C 
HETATM   28  C   UNL     1      44.594 -22.706   3.739  1.00  0.00     0.097 C 
HETATM   29  O   UNL     1      44.380 -21.384   1.766  1.00  0.00    -0.293 OA
ENDBRANCH  23  27
ENDBRANCH   1  20
TORSDOF 6
ENDMDL
MODEL 3
REMARK VINA RESULT:      -8.5      4.566      7.774
REMARK  6 active torsions:
REMARK  status: ('A' for Active; 'I' for Inactive)
REMARK    1  A    between atoms: C_3  and  C_4 
REMARK    2  A    between atoms: C_9  and  N_10 
REMARK       I    between atoms: N_10  and  C_11 
REMARK       I    between atoms: C_11  and  N_12 
REMARK    3  A    between atoms: N_12  and  C_13 
REMARK    4  A    between atoms: C_13  and  C_14 
REMARK    5  A    between atoms: C_14  and  C_15 
REMARK    6  A    between atoms: C_18  and  N_19 
ROOT
HETATM    1  N   UNL     1      42.976 -14.111   4.139  1.00  0.00    -0.309 N 
HETATM    2  C   UNL     1      42.462 -13.503   5.251  1.00  0.00     0.320 C 
HETATM    3  N   UNL     1      43.115 -13.760   6.421  1.00  0.00    -0.343 N 
HETATM    4  O   UNL     1      41.500 -12.744   5.290  1.00  0.00    -0.247 OA
HETATM    5  H   UNL     1      43.827 -14.630   4.268  1.00  0.00     0.170 HD
HETATM    6  H   UNL     1      42.724 -13.240   7.197  1.00  0.00     0.164 HD
ENDROOT
BRANCH   3   7
HETATM    7  C   UNL     1      44.294 -14.570   6.688  1.00  0.00     0.129 C 
BRANCH   7   8
HETATM    8  C   UNL     1      43.975 -15.929   7.320  1.00  0.00     0.058 C 
BRANCH   8   9
HETATM    9  C   UNL     1      44.009 -17.074   6.335  1.00  0.00    -0.057 A 
HETATM   10  C   UNL     1      43.000 -17.211   5.375  1.00  0.00     0.009 A 
HETATM   11  C   UNL     1      43.040 -18.258   4.450  1.00  0.00     0.032 A 
HETATM   12  C   UNL     1      44.087 -19.191   4.478  1.00  0.00     0.058 A 
HETATM   13  C   UNL     1      45.091 -19.065   5.447  1.00  0.00     0.032 A 
HETATM   14  C   UNL     1      45.049 -18.011   6.366  1.00  0.00     0.009 A 
BRANCH  12  15
HETATM   15  N   UNL     1      44.114 -20.240   3.517  1.00  0.00    -0.246 N 
HETATM   16  N   UNL     1      44.678 -21.444   3.810  1.00  0.00    -0.180 NA
HETATM   17  C   UNL     1      44.514 -22.175   2.707  1.00  0.00     0.140 A 
HETATM   18  C   UNL     1      43.859 -21.471   1.689  1.00  0.00     0.040 A 
HETATM   19  C   UNL     1      43.614 -20.232   2.230  1.00  0.00     0.120 A 
ENDBRANCH  12  15
ENDBRANCH   8   9
ENDBRANCH   7   8
ENDBRANCH   3   7
BRANCH   1  20
HETATM   20  C   UNL     1      42.502 -14.032   2.814  1.00  0.00     0.036 A 
HETATM   21  C   UNL     1      42.269 -12.838   2.138  1.00  0.00     0.030 A 
HETATM   22  C   UNL     1      41.785 -12.849   0.826  1.00  0.00     0.018 A 
HETATM   23  C   UNL     1      41.539 -14.058   0.161  1.00  0.00     0.015 A 
HETATM   24  C   UNL     1      41.781 -15.276   0.825  1.00  0.00    -0.046 A 
HETATM   25  C   UNL     1      41.551 -16.614   0.176  1.00  0.00     0.049 C 
HETATM   26  C   UNL     1      42.244 -15.243   2.155  1.00  0.00     0.037 A 
BRANCH  23  27
HETATM   27  C   UNL     1      41.002 -14.021  -1.233  1.00  0.00     0.156 C 
HETATM   28  C   UNL     1      39.507 -14.031  -1.425  1.00  0.00     0.097 C 
HETATM   29  O   UNL     1      41.763 -14.011  -2.196  1.00  0.00    -0.293 OA
ENDBRANCH  23  27
ENDBRANCH   1  20
TORSDOF 6
ENDMDL
MODEL 4
REMARK VINA RESULT:      -8.3      4.656      9.322
REMARK  6 active torsions:
REMARK  status: ('A' for Active; 'I' for Inactive)
REMARK    1  A    between atoms: C_3  and  C_4 
REMARK    2  A    between atoms: C_9  and  N_10 
REMARK       I    between atoms: N_10  and  C_11 
REMARK       I    between atoms: C_11  and  N_12 
REMARK    3  A    between atoms: N_12  and  C_13 
REMARK    4  A    between atoms: C_13  and  C_14 
REMARK    5  A    between atoms: C_14  and  C_15 
REMARK    6  A    between atoms: C_18  and  N_19 
ROOT
HETATM    1  N   UNL     1      44.209 -17.180   6.034  1.00  0.00    -0.309 N 
HETATM    2  C   UNL     1      43.525 -16.942   7.194  1.00  0.00     0.320 C 
HETATM    3  N   UNL     1      43.654 -15.686   7.710  1.00  0.00    -0.343 N 
HETATM    4  O   UNL     1      42.801 -17.732   7.790  1.00  0.00    -0.247 OA
HETATM    5  H   UNL     1      44.684 -16.393   5.627  1.00  0.00     0.170 HD
HETATM    6  H   UNL     1      43.082 -15.553   8.536  1.00  0.00     0.164 HD
ENDROOT
BRANCH   3   7
HETATM    7  C   UNL     1      44.394 -14.533   7.220  1.00  0.00     0.129 C 
BRANCH   7   8
HETATM    8  C   UNL     1      43.507 -13.462   6.576  1.00  0.00     0.058 C 
BRANCH   8   9
HETATM    9  C   UNL     1      43.007 -13.840   5.202  1.00  0.00    -0.057 A 
HETATM   10  C   UNL     1      41.636 -13.983   4.962  1.00  0.00     0.009 A 
HETATM   11  C   UNL     1      41.171 -14.315   3.686  1.00  0.00     0.032 A 
HETATM   12  C   UNL     1      42.072 -14.517   2.631  1.00  0.00     0.058 A 
HETATM   13  C   UNL     1      43.446 -14.389   2.871  1.00  0.00     0.032 A 
HETATM   14  C   UNL     1      43.906 -14.050   4.149  1.00  0.00     0.009 A 
BRANCH  12  15
HETATM   15  N   UNL     1      41.574 -14.838   1.338  1.00  0.00    -0.246 N 
HETATM   16  N   UNL     1      40.672 -14.031   0.715  1.00  0.00    -0.180 NA
HETATM   17  C   UNL     1      40.443 -14.617  -0.460  1.00  0.00     0.140 A 
HETATM   18  C   UNL     1      41.173 -15.802  -0.620  1.00  0.00     0.040 A 
HETATM   19  C   UNL     1      41.890 -15.925   0.547  1.00  0.00     0.120 A 
ENDBRANCH  12  15
ENDBRANCH   8   9
ENDBRANCH   7   8
ENDBRANCH   3   7
BRANCH   1  20
HETATM   20  C   UNL     1      44.264 -18.377   5.293  1.00  0.00     0.036 A 
HETATM   21  C   UNL     1      44.690 -19.597   5.812  1.00  0.00     0.030 A 
HETATM   22  C   UNL     1      44.728 -20.737   5.003  1.00  0.00     0.018 A 
HETATM   23  C   UNL     1      44.325 -20.680   3.661  1.00  0.00     0.015 A 
HETATM   24  C   UNL     1      43.881 -19.457   3.123  1.00  0.00    -0.046 A 
HETATM   25  C   UNL     1      43.423 -19.316   1.696  1.00  0.00     0.049 C 
HETATM   26  C   UNL     1      43.874 -18.315   3.948  1.00  0.00     0.037 A 
BRANCH  23  27
HETATM   27  C   UNL     1      44.402 -21.918   2.828  1.00  0.00     0.156 C 
HETATM   28  C   UNL     1      44.040 -21.824   1.368  1.00  0.00     0.097 C 
HETATM   29  O   UNL     1      44.729 -22.990   3.331  1.00  0.00    -0.293 OA
ENDBRANCH  23  27
ENDBRANCH   1  20
TORSDOF 6
ENDMDL
MODEL 5
REMARK VINA RESULT:      -8.2      6.204     10.083
REMARK  6 active torsions:
REMARK  status: ('A' for Active; 'I' for Inactive)
REMARK    1  A    between atoms: C_3  and  C_4 
REMARK    2  A    between atoms: C_9  and  N_10 
REMARK       I    between atoms: N_10  and  C_11 
REMARK       I    between atoms: C_11  and  N_12 
REMARK    3  A    between atoms: N_12  and  C_13 
REMARK    4  A    between atoms: C_13  and  C_14 
REMARK    5  A    between atoms: C_14  and  C_15 
REMARK    6  A    between atoms: C_18  and  N_19 
ROOT
HETATM    1  N   UNL     1      42.530 -14.747   3.084  1.00  0.00    -0.309 N 
HETATM    2  C   UNL     1      43.174 -13.682   3.651  1.00  0.00     0.320 C 
HETATM    3  N   UNL     1      42.471 -12.514   3.683  1.00  0.00    -0.343 N 
HETATM    4  O   UNL     1      44.298 -13.686   4.143  1.00  0.00    -0.247 OA
HETATM    5  H   UNL     1      41.574 -14.595   2.811  1.00  0.00     0.170 HD
HETATM    6  H   UNL     1      42.978 -11.778   4.163  1.00  0.00     0.164 HD
ENDROOT
BRANCH   3   7
HETATM    7  C   UNL     1      41.124 -12.207   3.227  1.00  0.00     0.129 C 
BRANCH   7   8
HETATM    8  C   UNL     1      41.083 -11.486   1.875  1.00  0.00     0.058 C 
BRANCH   8   9
HETATM    9  C   UNL     1      40.624 -12.366   0.737  1.00  0.00    -0.057 A 
HETATM   10  C   UNL     1      39.263 -12.477   0.433  1.00  0.00     0.009 A 
HETATM   11  C   UNL     1      38.838 -13.277  -0.632  1.00  0.00     0.032 A 
HETATM   12  C   UNL     1      39.770 -13.985  -1.405  1.00  0.00     0.058 A 
HETATM   13  C   UNL     1      41.132 -13.887  -1.095  1.00  0.00     0.032 A 
HETATM   14  C   UNL     1      41.552 -13.080  -0.031  1.00  0.00     0.009 A 
BRANCH  12  15
HETATM   15  N   UNL     1      39.315 -14.779  -2.494  1.00  0.00    -0.246 N 
HETATM   16  N   UNL     1      38.045 -14.656  -2.968  1.00  0.00    -0.180 NA
HETATM   17  C   UNL     1      37.971 -15.523  -3.978  1.00  0.00     0.140 A 
HETATM   18  C   UNL     1      39.169 -16.222  -4.174  1.00  0.00     0.040 A 
HETATM   19  C   UNL     1      40.016 -15.730  -3.210  1.00  0.00     0.120 A 
ENDBRANCH  12  15
ENDBRANCH   8   9
ENDBRANCH   7   8
ENDBRANCH   3   7
BRANCH   1  20
HETATM   20  C   UNL     1      43.015 -16.058   2.909  1.00  0.00     0.036 A 
HETATM   21  C   UNL     1      43.481 -16.562   1.698  1.00  0.00     0.030 A 
HETATM   22  C   UNL     1      43.934 -17.883   1.608  1.00  0.00     0.018 A 
HETATM   23  C   UNL     1      43.941 -18.719   2.733  1.00  0.00     0.015 A 
HETATM   24  C   UNL     1      43.484 -18.222   3.968  1.00  0.00    -0.046 A 
HETATM   25  C   UNL     1      43.470 -19.053   5.223  1.00  0.00     0.049 C 
HETATM   26  C   UNL     1      43.009 -16.897   4.033  1.00  0.00     0.037 A 
BRANCH  23  27
HETATM   27  C   UNL     1      44.412 -20.129   2.584  1.00  0.00     0.156 C 
HETATM   28  C   UNL     1      43.595 -21.073   1.741  1.00  0.00     0.097 C 
HETATM   29  O   UNL     1      45.428 -20.512   3.159  1.00  0.00    -0.293 OA
ENDBRANCH  23  27
ENDBRANCH   1  20
TORSDOF 6
ENDMDL
MODEL 6
REMARK VINA RESULT:      -8.0      5.053      9.329
REMARK  6 active torsions:
REMARK  status: ('A' for Active; 'I' for Inactive)
REMARK    1  A    between atoms: C_3  and  C_4 
REMARK    2  A    between atoms: C_9  and  N_10 
REMARK       I    between atoms: N_10  and  C_11 
REMARK       I    between atoms: C_11  and  N_12 
REMARK    3  A    between atoms: N_12  and  C_13 
REMARK    4  A    between atoms: C_13  and  C_14 
REMARK    5  A    between atoms: C_14  and  C_15 
REMARK    6  A    between atoms: C_18  and  N_19 
ROOT
HETATM    1  N   UNL     1      42.427 -15.348   5.041  1.00  0.00    -0.309 N 
HETATM    2  C   UNL     1      43.106 -14.524   5.894  1.00  0.00     0.320 C 
HETATM    3  N   UNL     1      42.455 -13.382   6.258  1.00  0.00    -0.343 N 
HETATM    4  O   UNL     1      44.219 -14.723   6.371  1.00  0.00    -0.247 OA
HETATM    5  H   UNL     1      41.484 -15.079   4.818  1.00  0.00     0.170 HD
HETATM    6  H   UNL     1      42.984 -12.841   6.933  1.00  0.00     0.164 HD
ENDROOT
BRANCH   3   7
HETATM    7  C   UNL     1      41.133 -12.892   5.902  1.00  0.00     0.129 C 
BRANCH   7   8
HETATM    8  C   UNL     1      41.143 -11.869   4.761  1.00  0.00     0.058 C 
BRANCH   8   9
HETATM    9  C   UNL     1      40.982 -12.490   3.394  1.00  0.00    -0.057 A 
HETATM   10  C   UNL     1      42.107 -12.826   2.632  1.00  0.00     0.009 A 
HETATM   11  C   UNL     1      41.960 -13.418   1.375  1.00  0.00     0.032 A 
HETATM   12  C   UNL     1      40.683 -13.676   0.856  1.00  0.00     0.058 A 
HETATM   13  C   UNL     1      39.555 -13.328   1.609  1.00  0.00     0.032 A 
HETATM   14  C   UNL     1      39.708 -12.741   2.870  1.00  0.00     0.009 A 
BRANCH  12  15
HETATM   15  N   UNL     1      40.559 -14.294  -0.420  1.00  0.00    -0.246 N 
HETATM   16  N   UNL     1      39.646 -13.851  -1.327  1.00  0.00    -0.180 NA
HETATM   17  C   UNL     1      39.815 -14.633  -2.393  1.00  0.00     0.140 A 
HETATM   18  C   UNL     1      40.820 -15.590  -2.202  1.00  0.00     0.040 A 
HETATM   19  C   UNL     1      41.282 -15.355  -0.929  1.00  0.00     0.120 A 
ENDBRANCH  12  15
ENDBRANCH   8   9
ENDBRANCH   7   8
ENDBRANCH   3   7
BRANCH   1  20
HETATM   20  C   UNL     1      42.857 -16.575   4.498  1.00  0.00     0.036 A 
HETATM   21  C   UNL     1      43.021 -17.742   5.240  1.00  0.00     0.030 A 
HETATM   22  C   UNL     1      43.466 -18.916   4.624  1.00  0.00     0.018 A 
HETATM   23  C   UNL     1      43.740 -18.948   3.249  1.00  0.00     0.015 A 
HETATM   24  C   UNL     1      43.568 -17.780   2.482  1.00  0.00    -0.046 A 
HETATM   25  C   UNL     1      43.832 -17.736   1.000  1.00  0.00     0.049 C 
HETATM   26  C   UNL     1      43.143 -16.601   3.125  1.00  0.00     0.037 A 
BRANCH  23  27
HETATM   27  C   UNL     1      44.234 -20.219   2.639  1.00  0.00     0.156 C 
HETATM   28  C   UNL     1      43.259 -21.068   1.864  1.00  0.00     0.097 C 
HETATM   29  O   UNL     1      45.400 -20.573   2.790  1.00  0.00    -0.293 OA
ENDBRANCH  23  27
ENDBRANCH   1  20
TORSDOF 6
ENDMDL
MODEL 7
REMARK VINA RESULT:      -8.0      8.541     11.755
REMARK  6 active torsions:
REMARK  status: ('A' for Active; 'I' for Inactive)
REMARK    1  A    between atoms: C_3  and  C_4 
REMARK    2  A    between atoms: C_9  and  N_10 
REMARK       I    between atoms: N_10  and  C_11 
REMARK       I    between atoms: C_11  and  N_12 
REMARK    3  A    between atoms: N_12  and  C_13 
REMARK    4  A    between atoms: C_13  and  C_14 
REMARK    5  A    between atoms: C_14  and  C_15 
REMARK    6  A    between atoms: C_18  and  N_19 
ROOT
HETATM    1  N   UNL     1      39.395 -14.896  -1.917  1.00  0.00    -0.309 N 
HETATM    2  C   UNL     1      40.676 -15.222  -2.268  1.00  0.00     0.320 C 
HETATM    3  N   UNL     1      41.469 -15.678  -1.256  1.00  0.00    -0.343 N 
HETATM    4  O   UNL     1      41.162 -15.165  -3.392  1.00  0.00    -0.247 OA
HETATM    5  H   UNL     1      39.130 -15.090  -0.966  1.00  0.00     0.170 HD
HETATM    6  H   UNL     1      42.386 -15.955  -1.586  1.00  0.00     0.164 HD
ENDROOT
BRANCH   3   7
HETATM    7  C   UNL     1      41.174 -15.896   0.152  1.00  0.00     0.129 C 
BRANCH   7   8
HETATM    8  C   UNL     1      42.388 -15.709   1.070  1.00  0.00     0.058 C 
BRANCH   8   9
HETATM    9  C   UNL     1      42.841 -16.986   1.737  1.00  0.00    -0.057 A 
HETATM   10  C   UNL     1      43.761 -17.828   1.103  1.00  0.00     0.009 A 
HETATM   11  C   UNL     1      44.196 -19.000   1.727  1.00  0.00     0.032 A 
HETATM   12  C   UNL     1      43.709 -19.353   2.994  1.00  0.00     0.058 A 
HETATM   13  C   UNL     1      42.777 -18.521   3.625  1.00  0.00     0.032 A 
HETATM   14  C   UNL     1      42.350 -17.345   2.998  1.00  0.00     0.009 A 
BRANCH  12  15
HETATM   15  N   UNL     1      44.178 -20.544   3.616  1.00  0.00    -0.246 N 
HETATM   16  N   UNL     1      44.481 -20.568   4.943  1.00  0.00    -0.180 NA
HETATM   17  C   UNL     1      44.865 -21.822   5.183  1.00  0.00     0.140 A 
HETATM   18  C   UNL     1      44.829 -22.623   4.035  1.00  0.00     0.040 A 
HETATM   19  C   UNL     1      44.387 -21.782   3.041  1.00  0.00     0.120 A 
ENDBRANCH  12  15
ENDBRANCH   8   9
ENDBRANCH   7   8
ENDBRANCH   3   7
BRANCH   1  20
HETATM   20  C   UNL     1      38.372 -14.396  -2.747  1.00  0.00     0.036 A 
HETATM   21  C   UNL     1      37.632 -15.177  -3.631  1.00  0.00     0.030 A 
HETATM   22  C   UNL     1      36.641 -14.597  -4.430  1.00  0.00     0.018 A 
HETATM   23  C   UNL     1      36.362 -13.226  -4.348  1.00  0.00     0.015 A 
HETATM   24  C   UNL     1      37.093 -12.423  -3.451  1.00  0.00    -0.046 A 
HETATM   25  C   UNL     1      36.846 -10.946  -3.297  1.00  0.00     0.049 C 
HETATM   26  C   UNL     1      38.103 -13.021  -2.673  1.00  0.00     0.037 A 
BRANCH  23  27
HETATM   27  C   UNL     1      35.310 -12.646  -5.236  1.00  0.00     0.156 C 
HETATM   28  C   UNL     1      35.672 -12.336  -6.666  1.00  0.00     0.097 C 
HETATM   29  O   UNL     1      34.188 -12.406  -4.800  1.00  0.00    -0.293 OA
ENDBRANCH  23  27
ENDBRANCH   1  20
TORSDOF 6
ENDMDL
MODEL 8
REMARK VINA RESULT:      -7.9      3.728     11.188
REMARK  6 active torsions:
REMARK  status: ('A' for Active; 'I' for Inactive)
REMARK    1  A    between atoms: C_3  and  C_4 
REMARK    2  A    between atoms: C_9  and  N_10 
REMARK       I    between atoms: N_10  and  C_11 
REMARK       I    between atoms: C_11  and  N_12 
REMARK    3  A    between atoms: N_12  and  C_13 
REMARK    4  A    between atoms: C_13  and  C_14 
REMARK    5  A    between atoms: C_14  and  C_15 
REMARK    6  A    between atoms: C_18  and  N_19 
ROOT
HETATM    1  N   UNL     1      42.302 -14.902   5.108  1.00  0.00    -0.309 N 
HETATM    2  C   UNL     1      41.041 -14.372   5.098  1.00  0.00     0.320 C 
HETATM    3  N   UNL     1      40.918 -13.129   5.646  1.00  0.00    -0.343 N 
HETATM    4  O   UNL     1      40.034 -14.892   4.631  1.00  0.00    -0.247 OA
HETATM    5  H   UNL     1      43.034 -14.303   5.448  1.00  0.00     0.170 HD
HETATM    6  H   UNL     1      39.975 -12.767   5.559  1.00  0.00     0.164 HD
ENDROOT
BRANCH   3   7
HETATM    7  C   UNL     1      41.918 -12.249   6.232  1.00  0.00     0.129 C 
BRANCH   7   8
HETATM    8  C   UNL     1      41.349 -10.913   6.722  1.00  0.00     0.058 C 
BRANCH   8   9
HETATM    9  C   UNL     1      41.552 -10.677   8.199  1.00  0.00    -0.057 A 
HETATM   10  C   UNL     1      40.463 -10.372   9.024  1.00  0.00     0.009 A 
HETATM   11  C   UNL     1      40.647 -10.173  10.395  1.00  0.00     0.032 A 
HETATM   12  C   UNL     1      41.926 -10.268  10.962  1.00  0.00     0.058 A 
HETATM   13  C   UNL     1      43.020 -10.559  10.138  1.00  0.00     0.032 A 
HETATM   14  C   UNL     1      42.830 -10.764   8.766  1.00  0.00     0.009 A 
BRANCH  12  15
HETATM   15  N   UNL     1      42.086 -10.076  12.363  1.00  0.00    -0.246 N 
HETATM   16  N   UNL     1      41.101 -10.428  13.234  1.00  0.00    -0.180 NA
HETATM   17  C   UNL     1      41.588 -10.130  14.439  1.00  0.00     0.140 A 
HETATM   18  C   UNL     1      42.874  -9.578  14.376  1.00  0.00     0.040 A 
HETATM   19  C   UNL     1      43.172  -9.552  13.035  1.00  0.00     0.120 A 
ENDBRANCH  12  15
ENDBRANCH   8   9
ENDBRANCH   7   8
ENDBRANCH   3   7
BRANCH   1  20
HETATM   20  C   UNL     1      42.715 -16.159   4.624  1.00  0.00     0.036 A 
HETATM   21  C   UNL     1      42.612 -17.346   5.346  1.00  0.00     0.030 A 
HETATM   22  C   UNL     1      43.060 -18.551   4.795  1.00  0.00     0.018 A 
HETATM   23  C   UNL     1      43.606 -18.593   3.504  1.00  0.00     0.015 A 
HETATM   24  C   UNL     1      43.706 -17.404   2.756  1.00  0.00    -0.046 A 
HETATM   25  C   UNL     1      44.271 -17.369   1.361  1.00  0.00     0.049 C 
HETATM   26  C   UNL     1      43.273 -16.197   3.338  1.00  0.00     0.037 A 
BRANCH  23  27
HETATM   27  C   UNL     1      44.091 -19.899   2.966  1.00  0.00     0.156 C 
HETATM   28  C   UNL     1      43.266 -20.590   1.910  1.00  0.00     0.097 C 
HETATM   29  O   UNL     1      45.123 -20.407   3.396  1.00  0.00    -0.293 OA
ENDBRANCH  23  27
ENDBRANCH   1  20
TORSDOF 6
ENDMDL
MODEL 9
REMARK VINA RESULT:      -7.8      8.498     12.226
REMARK  6 active torsions:
REMARK  status: ('A' for Active; 'I' for Inactive)
REMARK    1  A    between atoms: C_3  and  C_4 
REMARK    2  A    between atoms: C_9  and  N_10 
REMARK       I    between atoms: N_10  and  C_11 
REMARK       I    between atoms: C_11  and  N_12 
REMARK    3  A    between atoms: N_12  and  C_13 
REMARK    4  A    between atoms: C_13  and  C_14 
REMARK    5  A    between atoms: C_14  and  C_15 
REMARK    6  A    between atoms: C_18  and  N_19 
ROOT
HETATM    1  N   UNL     1      42.143 -16.707   0.889  1.00  0.00    -0.309 N 
HETATM    2  C   UNL     1      40.873 -16.199   0.886  1.00  0.00     0.320 C 
HETATM    3  N   UNL     1      40.540 -15.444  -0.200  1.00  0.00    -0.343 N 
HETATM    4  O   UNL     1      40.014 -16.375   1.744  1.00  0.00    -0.247 OA
HETATM    5  H   UNL     1      42.690 -16.542   0.061  1.00  0.00     0.170 HD
HETATM    6  H   UNL     1      39.572 -15.143  -0.172  1.00  0.00     0.164 HD
ENDROOT
BRANCH   3   7
HETATM    7  C   UNL     1      41.312 -15.096  -1.383  1.00  0.00     0.129 C 
BRANCH   7   8
HETATM    8  C   UNL     1      40.714 -15.635  -2.688  1.00  0.00     0.058 C 
BRANCH   8   9
HETATM    9  C   UNL     1      39.472 -14.900  -3.130  1.00  0.00    -0.057 A 
HETATM   10  C   UNL     1      38.388 -15.602  -3.670  1.00  0.00     0.009 A 
HETATM   11  C   UNL     1      37.230 -14.925  -4.062  1.00  0.00     0.032 A 
HETATM   12  C   UNL     1      37.141 -13.532  -3.928  1.00  0.00     0.058 A 
HETATM   13  C   UNL     1      38.229 -12.824  -3.402  1.00  0.00     0.032 A 
HETATM   14  C   UNL     1      39.384 -13.508  -3.004  1.00  0.00     0.009 A 
BRANCH  12  15
HETATM   15  N   UNL     1      35.946 -12.867  -4.319  1.00  0.00    -0.246 N 
HETATM   16  N   UNL     1      35.717 -11.573  -3.967  1.00  0.00    -0.180 NA
HETATM   17  C   UNL     1      34.534 -11.275  -4.506  1.00  0.00     0.140 A 
HETATM   18  C   UNL     1      33.975 -12.355  -5.201  1.00  0.00     0.040 A 
HETATM   19  C   UNL     1      34.897 -13.366  -5.067  1.00  0.00     0.120 A 
ENDBRANCH  12  15
ENDBRANCH   8   9
ENDBRANCH   7   8
ENDBRANCH   3   7
BRANCH   1  20
HETATM   20  C   UNL     1      42.753 -17.504   1.877  1.00  0.00     0.036 A 
HETATM   21  C   UNL     1      43.130 -17.037   3.133  1.00  0.00     0.030 A 
HETATM   22  C   UNL     1      43.744 -17.894   4.053  1.00  0.00     0.018 A 
HETATM   23  C   UNL     1      43.979 -19.240   3.736  1.00  0.00     0.015 A 
HETATM   24  C   UNL     1      43.593 -19.731   2.474  1.00  0.00    -0.046 A 
HETATM   25  C   UNL     1      43.801 -21.164   2.064  1.00  0.00     0.049 C 
HETATM   26  C   UNL     1      42.999 -18.846   1.554  1.00  0.00     0.037 A 
BRANCH  23  27
HETATM   27  C   UNL     1      44.657 -20.112   4.741  1.00  0.00     0.156 C 
HETATM   28  C   UNL     1      44.083 -20.183   6.132  1.00  0.00     0.097 C 
HETATM   29  O   UNL     1      45.674 -20.733   4.444  1.00  0.00    -0.293 OA
ENDBRANCH  23  27
ENDBRANCH   1  20
TORSDOF 6
ENDMDL
MODEL 10
REMARK VINA RESULT:      -7.8      5.593      9.863
REMARK  6 active torsions:
REMARK  status: ('A' for Active; 'I' for Inactive)
REMARK    1  A    between atoms: C_3  and  C_4 
REMARK    2  A    between atoms: C_9  and  N_10 
REMARK       I    between atoms: N_10  and  C_11 
REMARK       I    between atoms: C_11  and  N_12 
REMARK    3  A    between atoms: N_12  and  C_13 
REMARK    4  A    between atoms: C_13  and  C_14 
REMARK    5  A    between atoms: C_14  and  C_15 
REMARK    6  A    between atoms: C_18  and  N_19 
ROOT
HETATM    1  N   UNL     1      41.653 -15.903   4.800  1.00  0.00    -0.309 N 
HETATM    2  C   UNL     1      40.753 -15.907   5.830  1.00  0.00     0.320 C 
HETATM    3  N   UNL     1      40.328 -14.680   6.248  1.00  0.00    -0.343 N 
HETATM    4  O   UNL     1      40.284 -16.894   6.386  1.00  0.00    -0.247 OA
HETATM    5  H   UNL     1      41.864 -15.007   4.396  1.00  0.00     0.170 HD
HETATM    6  H   UNL     1      39.623 -14.749   6.973  1.00  0.00     0.164 HD
ENDROOT
BRANCH   3   7
HETATM    7  C   UNL     1      40.661 -13.348   5.768  1.00  0.00     0.129 C 
BRANCH   7   8
HETATM    8  C   UNL     1      39.656 -12.792   4.753  1.00  0.00     0.058 C 
BRANCH   8   9
HETATM    9  C   UNL     1      40.124 -12.899   3.321  1.00  0.00    -0.057 A 
HETATM   10  C   UNL     1      41.486 -12.812   3.012  1.00  0.00     0.009 A 
HETATM   11  C   UNL     1      41.921 -12.931   1.690  1.00  0.00     0.032 A 
HETATM   12  C   UNL     1      40.998 -13.131   0.653  1.00  0.00     0.058 A 
HETATM   13  C   UNL     1      39.633 -13.204   0.956  1.00  0.00     0.032 A 
HETATM   14  C   UNL     1      39.203 -13.091   2.283  1.00  0.00     0.009 A 
BRANCH  12  15
HETATM   15  N   UNL     1      41.467 -13.264  -0.684  1.00  0.00    -0.246 N 
HETATM   16  N   UNL     1      42.427 -12.433  -1.175  1.00  0.00    -0.180 NA
HETATM   17  C   UNL     1      42.630 -12.847  -2.426  1.00  0.00     0.140 A 
HETATM   18  C   UNL     1      41.813 -13.932  -2.771  1.00  0.00     0.040 A 
HETATM   19  C   UNL     1      41.075 -14.181  -1.639  1.00  0.00     0.120 A 
ENDBRANCH  12  15
ENDBRANCH   8   9
ENDBRANCH   7   8
ENDBRANCH   3   7
BRANCH   1  20
HETATM   20  C   UNL     1      42.261 -17.012   4.180  1.00  0.00     0.036 A 
HETATM   21  C   UNL     1      42.080 -17.356   2.843  1.00  0.00     0.030 A 
HETATM   22  C   UNL     1      42.712 -18.483   2.308  1.00  0.00     0.018 A 
HETATM   23  C   UNL     1      43.551 -19.280   3.100  1.00  0.00     0.015 A 
HETATM   24  C   UNL     1      43.755 -18.941   4.451  1.00  0.00    -0.046 A 
HETATM   25  C   UNL     1      44.648 -19.740   5.362  1.00  0.00     0.049 C 
HETATM   26  C   UNL     1      43.090 -17.816   4.976  1.00  0.00     0.037 A 
BRANCH  23  27
HETATM   27  C   UNL     1      44.187 -20.487   2.492  1.00  0.00     0.156 C 
HETATM   28  C   UNL     1      43.308 -21.474   1.769  1.00  0.00     0.097 C 
HETATM   29  O   UNL     1      45.395 -20.680   2.605  1.00  0.00    -0.293 OA
ENDBRANCH  23  27
ENDBRANCH   1  20
TORSDOF 6
ENDMDL
