MODEL 1
REMARK VINA RESULT:      -8.4      0.000      0.000
REMARK  4 active torsions:
REMARK  status: ('A' for Active; 'I' for Inactive)
REMARK    1  A    between atoms: C_9  and  C_10 
REMARK    2  A    between atoms: C_13  and  O_14 
REMARK    3  A    between atoms: C_18  and  C_19 
REMARK       I    between atoms: C_19  and  N_20 
REMARK    4  A    between atoms: N_20  and  C_21 
ROOT
HETATM    1  C   UNL     1      40.787 -16.591   6.692  1.00  0.00     0.070 C 
HETATM    2  C   UNL     1      40.678 -15.343   5.853  1.00  0.00     0.037 C 
HETATM    3  N   UNL     1      39.785 -14.383   6.322  1.00  0.00    -0.192 N 
HETATM    4  C   UNL     1      39.757 -13.119   5.853  1.00  0.00     0.725 A 
HETATM    5  N   UNL     1      40.513 -12.790   4.761  1.00  0.00    -0.084 N 
HETATM    6  N   UNL     1      40.432 -11.470   4.490  1.00  0.00    -0.149 NA
HETATM    7  C   UNL     1      39.568 -11.078   5.432  1.00  0.00     0.275 A 
HETATM    8  N   UNL     1      39.128 -12.057   6.286  1.00  0.00    -0.054 NA
HETATM    9  C   UNL     1      41.343 -13.746   4.019  1.00  0.00     0.202 C 
HETATM   10  C   UNL     1      41.422 -15.084   4.749  1.00  0.00     0.062 C 
HETATM   11  H   UNL     1      39.313 -14.570   7.203  1.00  0.00     0.184 HD
ENDROOT
BRANCH  10  12
HETATM   12  C   UNL     1      42.461 -16.001   4.210  1.00  0.00     0.256 C 
HETATM   13  N   UNL     1      42.000 -17.280   3.981  1.00  0.00    -0.323 N 
HETATM   14  H   UNL     1      41.019 -17.451   4.163  1.00  0.00     0.169 HD
HETATM   15  O   UNL     1      43.578 -15.556   3.987  1.00  0.00    -0.267 OA
BRANCH  13  16
HETATM   16  C   UNL     1      42.749 -18.389   3.540  1.00  0.00     0.035 A 
HETATM   17  C   UNL     1      43.679 -19.069   4.332  1.00  0.00     0.031 A 
HETATM   18  C   UNL     1      44.368 -20.177   3.825  1.00  0.00     0.026 A 
HETATM   19  C   UNL     1      44.127 -20.611   2.525  1.00  0.00     0.034 A 
HETATM   20 CL   UNL     1      44.967 -21.979   1.907  1.00  0.00    -0.084 Cl
HETATM   21  C   UNL     1      43.207 -19.944   1.723  1.00  0.00     0.026 A 
HETATM   22  C   UNL     1      42.524 -18.832   2.229  1.00  0.00     0.031 A 
ENDBRANCH  13  16
ENDBRANCH  10  12
BRANCH   9  23
HETATM   23  C   UNL     1      40.824 -13.903   2.591  1.00  0.00    -0.028 A 
HETATM   24  C   UNL     1      41.677 -13.641   1.509  1.00  0.00     0.012 A 
HETATM   25  C   UNL     1      41.218 -13.772   0.196  1.00  0.00     0.037 A 
HETATM   26  C   UNL     1      39.905 -14.166  -0.066  1.00  0.00     0.068 A 
HETATM   27  C   UNL     1      39.056 -14.452   1.001  1.00  0.00     0.037 A 
HETATM   28  C   UNL     1      39.511 -14.327   2.319  1.00  0.00     0.012 A 
BRANCH  26  29
HETATM   29  O   UNL     1      39.582 -14.238  -1.392  1.00  0.00    -0.356 OA
HETATM   30  C   UNL     1      40.507 -14.901  -2.243  1.00  0.00     0.210 C 
ENDBRANCH  26  29
ENDBRANCH   9  23
TORSDOF 4
ENDMDL
MODEL 2
REMARK VINA RESULT:      -8.1      2.883      4.462
REMARK  4 active torsions:
REMARK  status: ('A' for Active; 'I' for Inactive)
REMARK    1  A    between atoms: C_9  and  C_10 
REMARK    2  A    between atoms: C_13  and  O_14 
REMARK    3  A    between atoms: C_18  and  C_19 
REMARK       I    between atoms: C_19  and  N_20 
REMARK    4  A    between atoms: N_20  and  C_21 
ROOT
HETATM    1  C   UNL     1      41.480 -12.736   3.343  1.00  0.00     0.070 C 
HETATM    2  C   UNL     1      41.668 -12.615   1.852  1.00  0.00     0.037 C 
HETATM    3  N   UNL     1      41.786 -11.315   1.367  1.00  0.00    -0.192 N 
HETATM    4  C   UNL     1      42.216 -11.036   0.121  1.00  0.00     0.725 A 
HETATM    5  N   UNL     1      42.395 -12.056  -0.774  1.00  0.00    -0.084 N 
HETATM    6  N   UNL     1      42.914 -11.603  -1.935  1.00  0.00    -0.149 NA
HETATM    7  C   UNL     1      42.974 -10.291  -1.682  1.00  0.00     0.275 A 
HETATM    8  N   UNL     1      42.554  -9.901  -0.436  1.00  0.00    -0.054 NA
HETATM    9  C   UNL     1      42.105 -13.465  -0.482  1.00  0.00     0.202 C 
HETATM   10  C   UNL     1      41.795 -13.663   0.999  1.00  0.00     0.062 C 
HETATM   11  H   UNL     1      41.779 -10.558   2.046  1.00  0.00     0.184 HD
ENDROOT
BRANCH  10  12
HETATM   12  C   UNL     1      41.769 -15.088   1.421  1.00  0.00     0.256 C 
HETATM   13  N   UNL     1      43.010 -15.582   1.762  1.00  0.00    -0.323 N 
HETATM   14  H   UNL     1      43.786 -14.933   1.727  1.00  0.00     0.169 HD
HETATM   15  O   UNL     1      40.694 -15.669   1.467  1.00  0.00    -0.267 OA
BRANCH  13  16
HETATM   16  C   UNL     1      43.328 -16.904   2.136  1.00  0.00     0.035 A 
HETATM   17  C   UNL     1      43.512 -17.950   1.227  1.00  0.00     0.031 A 
HETATM   18  C   UNL     1      43.848 -19.232   1.679  1.00  0.00     0.026 A 
HETATM   19  C   UNL     1      44.003 -19.472   3.040  1.00  0.00     0.034 A 
HETATM   20 CL   UNL     1      44.426 -21.045   3.593  1.00  0.00    -0.084 Cl
HETATM   21  C   UNL     1      43.821 -18.442   3.957  1.00  0.00     0.026 A 
HETATM   22  C   UNL     1      43.479 -17.162   3.505  1.00  0.00     0.031 A 
ENDBRANCH  13  16
ENDBRANCH  10  12
BRANCH   9  23
HETATM   23  C   UNL     1      40.976 -13.971  -1.375  1.00  0.00    -0.028 A 
HETATM   24  C   UNL     1      41.237 -14.963  -2.331  1.00  0.00     0.012 A 
HETATM   25  C   UNL     1      40.218 -15.434  -3.162  1.00  0.00     0.037 A 
HETATM   26  C   UNL     1      38.921 -14.928  -3.061  1.00  0.00     0.068 A 
HETATM   27  C   UNL     1      38.644 -13.959  -2.099  1.00  0.00     0.037 A 
HETATM   28  C   UNL     1      39.660 -13.486  -1.259  1.00  0.00     0.012 A 
BRANCH  26  29
HETATM   29  O   UNL     1      38.026 -15.463  -3.944  1.00  0.00    -0.356 OA
HETATM   30  C   UNL     1      36.827 -14.731  -4.165  1.00  0.00     0.210 C 
ENDBRANCH  26  29
ENDBRANCH   9  23
TORSDOF 4
ENDMDL
MODEL 3
REMARK VINA RESULT:      -8.0      2.212      4.649
REMARK  4 active torsions:
REMARK  status: ('A' for Active; 'I' for Inactive)
REMARK    1  A    between atoms: C_9  and  C_10 
REMARK    2  A    between atoms: C_13  and  O_14 
REMARK    3  A    between atoms: C_18  and  C_19 
REMARK       I    between atoms: C_19  and  N_20 
REMARK    4  A    between atoms: N_20  and  C_21 
ROOT
HETATM    1  C   UNL     1      41.329 -15.446  -0.500  1.00  0.00     0.070 C 
HETATM    2  C   UNL     1      41.040 -14.795   0.829  1.00  0.00     0.037 C 
HETATM    3  N   UNL     1      40.735 -13.437   0.777  1.00  0.00    -0.192 N 
HETATM    4  C   UNL     1      40.202 -12.767   1.818  1.00  0.00     0.725 A 
HETATM    5  N   UNL     1      40.096 -13.386   3.034  1.00  0.00    -0.084 N 
HETATM    6  N   UNL     1      39.458 -12.601   3.928  1.00  0.00    -0.149 NA
HETATM    7  C   UNL     1      39.254 -11.504   3.191  1.00  0.00     0.275 A 
HETATM    8  N   UNL     1      39.695 -11.563   1.894  1.00  0.00    -0.054 NA
HETATM    9  C   UNL     1      40.572 -14.747   3.306  1.00  0.00     0.202 C 
HETATM   10  C   UNL     1      40.992 -15.448   2.017  1.00  0.00     0.062 C 
HETATM   11  H   UNL     1      40.690 -13.001  -0.140  1.00  0.00     0.184 HD
ENDROOT
BRANCH  10  12
HETATM   12  C   UNL     1      41.215 -16.909   2.175  1.00  0.00     0.256 C 
HETATM   13  N   UNL     1      42.519 -17.235   2.480  1.00  0.00    -0.323 N 
HETATM   14  H   UNL     1      43.167 -16.467   2.599  1.00  0.00     0.169 HD
HETATM   15  O   UNL     1      40.260 -17.665   2.065  1.00  0.00    -0.267 OA
BRANCH  13  16
HETATM   16  C   UNL     1      43.062 -18.528   2.626  1.00  0.00     0.035 A 
HETATM   17  C   UNL     1      42.997 -19.518   1.642  1.00  0.00     0.031 A 
HETATM   18  C   UNL     1      43.581 -20.773   1.856  1.00  0.00     0.026 A 
HETATM   19  C   UNL     1      44.236 -21.040   3.055  1.00  0.00     0.034 A 
HETATM   20 CL   UNL     1      44.962 -22.577   3.313  1.00  0.00    -0.084 Cl
HETATM   21  C   UNL     1      44.308 -20.065   4.045  1.00  0.00     0.026 A 
HETATM   22  C   UNL     1      43.718 -18.814   3.832  1.00  0.00     0.031 A 
ENDBRANCH  13  16
ENDBRANCH  10  12
BRANCH   9  23
HETATM   23  C   UNL     1      41.701 -14.719   4.335  1.00  0.00    -0.028 A 
HETATM   24  C   UNL     1      42.830 -13.921   4.106  1.00  0.00     0.012 A 
HETATM   25  C   UNL     1      43.876 -13.888   5.031  1.00  0.00     0.037 A 
HETATM   26  C   UNL     1      43.820 -14.646   6.201  1.00  0.00     0.068 A 
HETATM   27  C   UNL     1      42.691 -15.425   6.451  1.00  0.00     0.037 A 
HETATM   28  C   UNL     1      41.638 -15.459   5.529  1.00  0.00     0.012 A 
BRANCH  26  29
HETATM   29  O   UNL     1      44.915 -14.535   7.011  1.00  0.00    -0.356 OA
HETATM   30  C   UNL     1      45.015 -13.356   7.797  1.00  0.00     0.210 C 
ENDBRANCH  26  29
ENDBRANCH   9  23
TORSDOF 4
ENDMDL
MODEL 4
REMARK VINA RESULT:      -7.8      3.530      6.316
REMARK  4 active torsions:
REMARK  status: ('A' for Active; 'I' for Inactive)
REMARK    1  A    between atoms: C_9  and  C_10 
REMARK    2  A    between atoms: C_13  and  O_14 
REMARK    3  A    between atoms: C_18  and  C_19 
REMARK       I    between atoms: C_19  and  N_20 
REMARK    4  A    between atoms: N_20  and  C_21 
ROOT
HETATM    1  C   UNL     1      43.044 -19.694   2.096  1.00  0.00     0.070 C 
HETATM    2  C   UNL     1      43.236 -18.822   3.311  1.00  0.00     0.037 C 
HETATM    3  N   UNL     1      43.347 -19.499   4.523  1.00  0.00    -0.192 N 
HETATM    4  C   UNL     1      43.779 -18.908   5.654  1.00  0.00     0.725 A 
HETATM    5  N   UNL     1      43.967 -17.553   5.676  1.00  0.00    -0.084 N 
HETATM    6  N   UNL     1      44.486 -17.149   6.855  1.00  0.00    -0.149 NA
HETATM    7  C   UNL     1      44.537 -18.313   7.512  1.00  0.00     0.275 A 
HETATM    8  N   UNL     1      44.112 -19.415   6.814  1.00  0.00    -0.054 NA
HETATM    9  C   UNL     1      43.685 -16.666   4.541  1.00  0.00     0.202 C 
HETATM   10  C   UNL     1      43.371 -17.472   3.283  1.00  0.00     0.062 C 
HETATM   11  H   UNL     1      43.334 -20.516   4.496  1.00  0.00     0.184 HD
ENDROOT
BRANCH  10  12
HETATM   12  C   UNL     1      43.354 -16.659   2.039  1.00  0.00     0.256 C 
HETATM   13  N   UNL     1      42.108 -16.158   1.728  1.00  0.00    -0.323 N 
HETATM   14  H   UNL     1      41.359 -16.358   2.379  1.00  0.00     0.169 HD
HETATM   15  O   UNL     1      44.405 -16.475   1.441  1.00  0.00    -0.267 OA
BRANCH  13  16
HETATM   16  C   UNL     1      41.750 -15.411   0.587  1.00  0.00     0.035 A 
HETATM   17  C   UNL     1      41.785 -14.014   0.525  1.00  0.00     0.031 A 
HETATM   18  C   UNL     1      41.434 -13.347  -0.654  1.00  0.00     0.026 A 
HETATM   19  C   UNL     1      41.052 -14.074  -1.778  1.00  0.00     0.034 A 
HETATM   20 CL   UNL     1      40.632 -13.252  -3.230  1.00  0.00    -0.084 Cl
HETATM   21  C   UNL     1      41.010 -15.463  -1.731  1.00  0.00     0.026 A 
HETATM   22  C   UNL     1      41.354 -16.129  -0.550  1.00  0.00     0.031 A 
ENDBRANCH  13  16
ENDBRANCH  10  12
BRANCH   9  23
HETATM   23  C   UNL     1      42.561 -15.695   4.892  1.00  0.00    -0.028 A 
HETATM   24  C   UNL     1      41.321 -16.191   5.320  1.00  0.00     0.012 A 
HETATM   25  C   UNL     1      40.278 -15.318   5.638  1.00  0.00     0.037 A 
HETATM   26  C   UNL     1      40.447 -13.936   5.538  1.00  0.00     0.068 A 
HETATM   27  C   UNL     1      41.682 -13.431   5.137  1.00  0.00     0.037 A 
HETATM   28  C   UNL     1      42.732 -14.300   4.821  1.00  0.00     0.012 A 
BRANCH  26  29
HETATM   29  O   UNL     1      39.343 -13.198   5.863  1.00  0.00    -0.356 OA
HETATM   30  C   UNL     1      39.481 -12.277   6.936  1.00  0.00     0.210 C 
ENDBRANCH  26  29
ENDBRANCH   9  23
TORSDOF 4
ENDMDL
MODEL 5
REMARK VINA RESULT:      -7.8      1.302      1.847
REMARK  4 active torsions:
REMARK  status: ('A' for Active; 'I' for Inactive)
REMARK    1  A    between atoms: C_9  and  C_10 
REMARK    2  A    between atoms: C_13  and  O_14 
REMARK    3  A    between atoms: C_18  and  C_19 
REMARK       I    between atoms: C_19  and  N_20 
REMARK    4  A    between atoms: N_20  and  C_21 
ROOT
HETATM    1  C   UNL     1      40.398 -16.684   6.537  1.00  0.00     0.070 C 
HETATM    2  C   UNL     1      40.645 -15.502   5.634  1.00  0.00     0.037 C 
HETATM    3  N   UNL     1      40.478 -14.252   6.224  1.00  0.00    -0.192 N 
HETATM    4  C   UNL     1      40.906 -13.109   5.651  1.00  0.00     0.725 A 
HETATM    5  N   UNL     1      41.382 -13.137   4.368  1.00  0.00    -0.084 N 
HETATM    6  N   UNL     1      41.849 -11.928   3.993  1.00  0.00    -0.149 NA
HETATM    7  C   UNL     1      41.576 -11.209   5.087  1.00  0.00     0.275 A 
HETATM    8  N   UNL     1      40.997 -11.893   6.124  1.00  0.00    -0.054 NA
HETATM    9  C   UNL     1      41.421 -14.344   3.533  1.00  0.00     0.202 C 
HETATM   10  C   UNL     1      41.074 -15.585   4.349  1.00  0.00     0.062 C 
HETATM   11  H   UNL     1      40.247 -14.226   7.213  1.00  0.00     0.184 HD
ENDROOT
BRANCH  10  12
HETATM   12  C   UNL     1      41.365 -16.864   3.649  1.00  0.00     0.256 C 
HETATM   13  N   UNL     1      42.543 -17.456   4.054  1.00  0.00    -0.323 N 
HETATM   14  H   UNL     1      43.057 -16.993   4.793  1.00  0.00     0.169 HD
HETATM   15  O   UNL     1      40.555 -17.287   2.837  1.00  0.00    -0.267 OA
BRANCH  13  16
HETATM   16  C   UNL     1      43.126 -18.631   3.539  1.00  0.00     0.035 A 
HETATM   17  C   UNL     1      42.965 -19.071   2.222  1.00  0.00     0.031 A 
HETATM   18  C   UNL     1      43.597 -20.239   1.781  1.00  0.00     0.026 A 
HETATM   19  C   UNL     1      44.396 -20.971   2.654  1.00  0.00     0.034 A 
HETATM   20 CL   UNL     1      45.181 -22.400   2.108  1.00  0.00    -0.084 Cl
HETATM   21  C   UNL     1      44.565 -20.547   3.968  1.00  0.00     0.026 A 
HETATM   22  C   UNL     1      43.927 -19.383   4.410  1.00  0.00     0.031 A 
ENDBRANCH  13  16
ENDBRANCH  10  12
BRANCH   9  23
HETATM   23  C   UNL     1      40.505 -14.181   2.322  1.00  0.00    -0.028 A 
HETATM   24  C   UNL     1      39.132 -13.970   2.512  1.00  0.00     0.012 A 
HETATM   25  C   UNL     1      38.277 -13.827   1.417  1.00  0.00     0.037 A 
HETATM   26  C   UNL     1      38.770 -13.891   0.112  1.00  0.00     0.068 A 
HETATM   27  C   UNL     1      40.136 -14.077  -0.089  1.00  0.00     0.037 A 
HETATM   28  C   UNL     1      40.998 -14.217   1.005  1.00  0.00     0.012 A 
BRANCH  26  29
HETATM   29  O   UNL     1      37.825 -13.752  -0.866  1.00  0.00    -0.356 OA
HETATM   30  C   UNL     1      38.050 -12.739  -1.836  1.00  0.00     0.210 C 
ENDBRANCH  26  29
ENDBRANCH   9  23
TORSDOF 4
ENDMDL
MODEL 6
REMARK VINA RESULT:      -7.7      2.586      4.790
REMARK  4 active torsions:
REMARK  status: ('A' for Active; 'I' for Inactive)
REMARK    1  A    between atoms: C_9  and  C_10 
REMARK    2  A    between atoms: C_13  and  O_14 
REMARK    3  A    between atoms: C_18  and  C_19 
REMARK       I    between atoms: C_19  and  N_20 
REMARK    4  A    between atoms: N_20  and  C_21 
ROOT
HETATM    1  C   UNL     1      41.346 -15.890  -1.018  1.00  0.00     0.070 C 
HETATM    2  C   UNL     1      40.597 -14.990  -0.068  1.00  0.00     0.037 C 
HETATM    3  N   UNL     1      40.084 -13.823  -0.627  1.00  0.00    -0.192 N 
HETATM    4  C   UNL     1      39.179 -13.047   0.000  1.00  0.00     0.725 A 
HETATM    5  N   UNL     1      38.857 -13.308   1.305  1.00  0.00    -0.084 N 
HETATM    6  N   UNL     1      37.872 -12.494   1.739  1.00  0.00    -0.149 NA
HETATM    7  C   UNL     1      37.686 -11.734   0.654  1.00  0.00     0.275 A 
HETATM    8  N   UNL     1      38.467 -12.037  -0.431  1.00  0.00    -0.054 NA
HETATM    9  C   UNL     1      39.472 -14.374   2.104  1.00  0.00     0.202 C 
HETATM   10  C   UNL     1      40.343 -15.277   1.234  1.00  0.00     0.062 C 
HETATM   11  H   UNL     1      40.214 -13.684  -1.627  1.00  0.00     0.184 HD
ENDROOT
BRANCH  10  12
HETATM   12  C   UNL     1      40.768 -16.531   1.909  1.00  0.00     0.256 C 
HETATM   13  N   UNL     1      42.098 -16.536   2.272  1.00  0.00    -0.323 N 
HETATM   14  H   UNL     1      42.627 -15.694   2.080  1.00  0.00     0.169 HD
HETATM   15  O   UNL     1      39.933 -17.401   2.114  1.00  0.00    -0.267 OA
BRANCH  13  16
HETATM   16  C   UNL     1      42.816 -17.594   2.864  1.00  0.00     0.035 A 
HETATM   17  C   UNL     1      42.994 -17.742   4.243  1.00  0.00     0.031 A 
HETATM   18  C   UNL     1      43.704 -18.836   4.754  1.00  0.00     0.026 A 
HETATM   19  C   UNL     1      44.234 -19.787   3.888  1.00  0.00     0.034 A 
HETATM   20 CL   UNL     1      45.096 -21.136   4.518  1.00  0.00    -0.084 Cl
HETATM   21  C   UNL     1      44.067 -19.653   2.514  1.00  0.00     0.026 A 
HETATM   22  C   UNL     1      43.364 -18.556   2.004  1.00  0.00     0.031 A 
ENDBRANCH  13  16
ENDBRANCH  10  12
BRANCH   9  23
HETATM   23  C   UNL     1      40.256 -13.778   3.271  1.00  0.00    -0.028 A 
HETATM   24  C   UNL     1      39.844 -14.034   4.587  1.00  0.00     0.012 A 
HETATM   25  C   UNL     1      40.543 -13.491   5.668  1.00  0.00     0.037 A 
HETATM   26  C   UNL     1      41.664 -12.685   5.462  1.00  0.00     0.068 A 
HETATM   27  C   UNL     1      42.096 -12.443   4.159  1.00  0.00     0.037 A 
HETATM   28  C   UNL     1      41.402 -12.988   3.072  1.00  0.00     0.012 A 
BRANCH  26  29
HETATM   29  O   UNL     1      42.244 -12.205   6.603  1.00  0.00    -0.356 OA
HETATM   30  C   UNL     1      41.681 -11.026   7.162  1.00  0.00     0.210 C 
ENDBRANCH  26  29
ENDBRANCH   9  23
TORSDOF 4
ENDMDL
MODEL 7
REMARK VINA RESULT:      -7.7      3.214      5.177
REMARK  4 active torsions:
REMARK  status: ('A' for Active; 'I' for Inactive)
REMARK    1  A    between atoms: C_9  and  C_10 
REMARK    2  A    between atoms: C_13  and  O_14 
REMARK    3  A    between atoms: C_18  and  C_19 
REMARK       I    between atoms: C_19  and  N_20 
REMARK    4  A    between atoms: N_20  and  C_21 
ROOT
HETATM    1  C   UNL     1      43.515 -17.448   1.026  1.00  0.00     0.070 C 
HETATM    2  C   UNL     1      42.390 -16.449   1.126  1.00  0.00     0.037 C 
HETATM    3  N   UNL     1      42.117 -15.737  -0.039  1.00  0.00    -0.192 N 
HETATM    4  C   UNL     1      40.996 -15.008  -0.204  1.00  0.00     0.725 A 
HETATM    5  N   UNL     1      40.156 -14.814   0.859  1.00  0.00    -0.084 N 
HETATM    6  N   UNL     1      39.045 -14.142   0.489  1.00  0.00    -0.149 NA
HETATM    7  C   UNL     1      39.310 -13.922  -0.803  1.00  0.00     0.275 A 
HETATM    8  N   UNL     1      40.495 -14.433  -1.268  1.00  0.00    -0.054 NA
HETATM    9  C   UNL     1      40.415 -15.320   2.212  1.00  0.00     0.202 C 
HETATM   10  C   UNL     1      41.614 -16.263   2.223  1.00  0.00     0.062 C 
HETATM   11  H   UNL     1      42.658 -15.968  -0.869  1.00  0.00     0.184 HD
ENDROOT
BRANCH  10  12
HETATM   12  C   UNL     1      41.763 -17.028   3.489  1.00  0.00     0.256 C 
HETATM   13  N   UNL     1      42.760 -16.544   4.309  1.00  0.00    -0.323 N 
HETATM   14  H   UNL     1      43.252 -15.718   3.993  1.00  0.00     0.169 HD
HETATM   15  O   UNL     1      40.999 -17.958   3.708  1.00  0.00    -0.267 OA
BRANCH  13  16
HETATM   16  C   UNL     1      43.190 -17.086   5.537  1.00  0.00     0.035 A 
HETATM   17  C   UNL     1      42.658 -16.726   6.779  1.00  0.00     0.031 A 
HETATM   18  C   UNL     1      43.126 -17.327   7.954  1.00  0.00     0.026 A 
HETATM   19  C   UNL     1      44.125 -18.293   7.890  1.00  0.00     0.034 A 
HETATM   20 CL   UNL     1      44.692 -19.039   9.333  1.00  0.00    -0.084 Cl
HETATM   21  C   UNL     1      44.666 -18.661   6.663  1.00  0.00     0.026 A 
HETATM   22  C   UNL     1      44.202 -18.055   5.490  1.00  0.00     0.031 A 
ENDBRANCH  13  16
ENDBRANCH  10  12
BRANCH   9  23
HETATM   23  C   UNL     1      40.592 -14.159   3.188  1.00  0.00    -0.028 A 
HETATM   24  C   UNL     1      41.563 -13.180   2.935  1.00  0.00     0.012 A 
HETATM   25  C   UNL     1      41.745 -12.115   3.820  1.00  0.00     0.037 A 
HETATM   26  C   UNL     1      40.965 -12.001   4.973  1.00  0.00     0.068 A 
HETATM   27  C   UNL     1      39.981 -12.956   5.222  1.00  0.00     0.037 A 
HETATM   28  C   UNL     1      39.791 -14.023   4.336  1.00  0.00     0.012 A 
BRANCH  26  29
HETATM   29  O   UNL     1      41.257 -10.923   5.760  1.00  0.00    -0.356 OA
HETATM   30  C   UNL     1      41.378  -9.666   5.107  1.00  0.00     0.210 C 
ENDBRANCH  26  29
ENDBRANCH   9  23
TORSDOF 4
ENDMDL
MODEL 8
REMARK VINA RESULT:      -7.6      2.055      2.871
REMARK  4 active torsions:
REMARK  status: ('A' for Active; 'I' for Inactive)
REMARK    1  A    between atoms: C_9  and  C_10 
REMARK    2  A    between atoms: C_13  and  O_14 
REMARK    3  A    between atoms: C_18  and  C_19 
REMARK       I    between atoms: C_19  and  N_20 
REMARK    4  A    between atoms: N_20  and  C_21 
ROOT
HETATM    1  C   UNL     1      39.621 -14.248   4.763  1.00  0.00     0.070 C 
HETATM    2  C   UNL     1      40.061 -13.587   3.481  1.00  0.00     0.037 C 
HETATM    3  N   UNL     1      39.897 -12.205   3.432  1.00  0.00    -0.192 N 
HETATM    4  C   UNL     1      40.469 -11.433   2.487  1.00  0.00     0.725 A 
HETATM    5  N   UNL     1      41.108 -12.024   1.431  1.00  0.00    -0.084 N 
HETATM    6  N   UNL     1      41.697 -11.105   0.638  1.00  0.00    -0.149 NA
HETATM    7  C   UNL     1      41.327  -9.977   1.254  1.00  0.00     0.275 A 
HETATM    8  N   UNL     1      40.573 -10.133   2.388  1.00  0.00    -0.054 NA
HETATM    9  C   UNL     1      41.181 -13.476   1.224  1.00  0.00     0.202 C 
HETATM   10  C   UNL     1      40.651 -14.229   2.441  1.00  0.00     0.062 C 
HETATM   11  H   UNL     1      39.538 -11.745   4.265  1.00  0.00     0.184 HD
ENDROOT
BRANCH  10  12
HETATM   12  C   UNL     1      40.951 -15.685   2.422  1.00  0.00     0.256 C 
HETATM   13  N   UNL     1      42.233 -15.987   2.830  1.00  0.00    -0.323 N 
HETATM   14  H   UNL     1      42.812 -15.212   3.127  1.00  0.00     0.169 HD
HETATM   15  O   UNL     1      40.065 -16.464   2.099  1.00  0.00    -0.267 OA
BRANCH  13  16
HETATM   16  C   UNL     1      42.840 -17.258   2.860  1.00  0.00     0.035 A 
HETATM   17  C   UNL     1      43.221 -17.915   4.034  1.00  0.00     0.031 A 
HETATM   18  C   UNL     1      43.800 -19.188   3.980  1.00  0.00     0.026 A 
HETATM   19  C   UNL     1      43.995 -19.812   2.752  1.00  0.00     0.034 A 
HETATM   20 CL   UNL     1      44.697 -21.381   2.688  1.00  0.00    -0.084 Cl
HETATM   21  C   UNL     1      43.623 -19.172   1.575  1.00  0.00     0.026 A 
HETATM   22  C   UNL     1      43.051 -17.896   1.629  1.00  0.00     0.031 A 
ENDBRANCH  13  16
ENDBRANCH  10  12
BRANCH   9  23
HETATM   23  C   UNL     1      40.446 -13.867  -0.056  1.00  0.00    -0.028 A 
HETATM   24  C   UNL     1      41.120 -14.590  -1.051  1.00  0.00     0.012 A 
HETATM   25  C   UNL     1      40.467 -14.951  -2.231  1.00  0.00     0.037 A 
HETATM   26  C   UNL     1      39.133 -14.602  -2.446  1.00  0.00     0.068 A 
HETATM   27  C   UNL     1      38.446 -13.904  -1.454  1.00  0.00     0.037 A 
HETATM   28  C   UNL     1      39.094 -13.543  -0.267  1.00  0.00     0.012 A 
BRANCH  26  29
HETATM   29  O   UNL     1      38.621 -15.002  -3.649  1.00  0.00    -0.356 OA
HETATM   30  C   UNL     1      37.205 -15.012  -3.772  1.00  0.00     0.210 C 
ENDBRANCH  26  29
ENDBRANCH   9  23
TORSDOF 4
ENDMDL
MODEL 9
REMARK VINA RESULT:      -7.2      3.123      3.905
REMARK  4 active torsions:
REMARK  status: ('A' for Active; 'I' for Inactive)
REMARK    1  A    between atoms: C_9  and  C_10 
REMARK    2  A    between atoms: C_13  and  O_14 
REMARK    3  A    between atoms: C_18  and  C_19 
REMARK       I    between atoms: C_19  and  N_20 
REMARK    4  A    between atoms: N_20  and  C_21 
ROOT
HETATM    1  C   UNL     1      42.955 -17.339   8.250  1.00  0.00     0.070 C 
HETATM    2  C   UNL     1      43.527 -16.130   7.555  1.00  0.00     0.037 C 
HETATM    3  N   UNL     1      43.995 -15.122   8.394  1.00  0.00    -0.192 N 
HETATM    4  C   UNL     1      44.765 -14.105   7.958  1.00  0.00     0.725 A 
HETATM    5  N   UNL     1      44.974 -13.947   6.615  1.00  0.00    -0.084 N 
HETATM    6  N   UNL     1      45.838 -12.940   6.368  1.00  0.00    -0.149 NA
HETATM    7  C   UNL     1      46.069 -12.506   7.612  1.00  0.00     0.275 A 
HETATM    8  N   UNL     1      45.430 -13.189   8.614  1.00  0.00    -0.054 NA
HETATM    9  C   UNL     1      44.371 -14.801   5.584  1.00  0.00     0.202 C 
HETATM   10  C   UNL     1      43.671 -16.003   6.211  1.00  0.00     0.062 C 
HETATM   11  H   UNL     1      43.956 -15.289   9.396  1.00  0.00     0.184 HD
ENDROOT
BRANCH  10  12
HETATM   12  C   UNL     1      43.285 -17.051   5.230  1.00  0.00     0.256 C 
HETATM   13  N   UNL     1      44.289 -17.960   4.973  1.00  0.00    -0.323 N 
HETATM   14  H   UNL     1      45.152 -17.846   5.490  1.00  0.00     0.169 HD
HETATM   15  O   UNL     1      42.147 -17.046   4.782  1.00  0.00    -0.267 OA
BRANCH  13  16
HETATM   16  C   UNL     1      44.259 -19.023   4.048  1.00  0.00     0.035 A 
HETATM   17  C   UNL     1      44.690 -20.322   4.337  1.00  0.00     0.031 A 
HETATM   18  C   UNL     1      44.607 -21.329   3.368  1.00  0.00     0.026 A 
HETATM   19  C   UNL     1      44.090 -21.043   2.109  1.00  0.00     0.034 A 
HETATM   20 CL   UNL     1      43.979 -22.284   0.923  1.00  0.00    -0.084 Cl
HETATM   21  C   UNL     1      43.660 -19.756   1.805  1.00  0.00     0.026 A 
HETATM   22  C   UNL     1      43.749 -18.748   2.772  1.00  0.00     0.031 A 
ENDBRANCH  13  16
ENDBRANCH  10  12
BRANCH   9  23
HETATM   23  C   UNL     1      43.427 -13.986   4.704  1.00  0.00    -0.028 A 
HETATM   24  C   UNL     1      42.441 -13.185   5.298  1.00  0.00     0.012 A 
HETATM   25  C   UNL     1      41.563 -12.437   4.509  1.00  0.00     0.037 A 
HETATM   26  C   UNL     1      41.648 -12.471   3.116  1.00  0.00     0.068 A 
HETATM   27  C   UNL     1      42.639 -13.245   2.516  1.00  0.00     0.037 A 
HETATM   28  C   UNL     1      43.525 -13.992   3.301  1.00  0.00     0.012 A 
BRANCH  26  29
HETATM   29  O   UNL     1      40.720 -11.707   2.466  1.00  0.00    -0.356 OA
HETATM   30  C   UNL     1      39.355 -12.052   2.661  1.00  0.00     0.210 C 
ENDBRANCH  26  29
ENDBRANCH   9  23
TORSDOF 4
ENDMDL
MODEL 10
REMARK VINA RESULT:      -6.9      3.792      6.354
REMARK  4 active torsions:
REMARK  status: ('A' for Active; 'I' for Inactive)
REMARK    1  A    between atoms: C_9  and  C_10 
REMARK    2  A    between atoms: C_13  and  O_14 
REMARK    3  A    between atoms: C_18  and  C_19 
REMARK       I    between atoms: C_19  and  N_20 
REMARK    4  A    between atoms: N_20  and  C_21 
ROOT
HETATM    1  C   UNL     1      39.186 -12.293   1.844  1.00  0.00     0.070 C 
HETATM    2  C   UNL     1      39.806 -13.322   0.933  1.00  0.00     0.037 C 
HETATM    3  N   UNL     1      39.029 -13.700  -0.160  1.00  0.00    -0.192 N 
HETATM    4  C   UNL     1      39.523 -14.397  -1.202  1.00  0.00     0.725 A 
HETATM    5  N   UNL     1      40.792 -14.904  -1.132  1.00  0.00    -0.084 N 
HETATM    6  N   UNL     1      41.150 -15.490  -2.294  1.00  0.00    -0.149 NA
HETATM    7  C   UNL     1      40.026 -15.340  -3.002  1.00  0.00     0.275 A 
HETATM    8  N   UNL     1      39.004 -14.678  -2.370  1.00  0.00    -0.054 NA
HETATM    9  C   UNL     1      41.663 -14.777   0.043  1.00  0.00     0.202 C 
HETATM   10  C   UNL     1      41.056 -13.829   1.073  1.00  0.00     0.062 C 
HETATM   11  H   UNL     1      38.135 -13.231  -0.286  1.00  0.00     0.184 HD
ENDROOT
BRANCH  10  12
HETATM   12  C   UNL     1      41.999 -13.433   2.152  1.00  0.00     0.256 C 
HETATM   13  N   UNL     1      41.823 -14.139   3.323  1.00  0.00    -0.323 N 
HETATM   14  H   UNL     1      41.113 -14.861   3.318  1.00  0.00     0.169 HD
HETATM   15  O   UNL     1      42.842 -12.580   1.912  1.00  0.00    -0.267 OA
BRANCH  13  16
HETATM   16  C   UNL     1      42.508 -13.955   4.540  1.00  0.00     0.035 A 
HETATM   17  C   UNL     1      43.565 -14.762   4.972  1.00  0.00     0.031 A 
HETATM   18  C   UNL     1      44.209 -14.499   6.187  1.00  0.00     0.026 A 
HETATM   19  C   UNL     1      43.801 -13.426   6.973  1.00  0.00     0.034 A 
HETATM   20 CL   UNL     1      44.601 -13.097   8.460  1.00  0.00    -0.084 Cl
HETATM   21  C   UNL     1      42.750 -12.615   6.558  1.00  0.00     0.026 A 
HETATM   22  C   UNL     1      42.103 -12.882   5.347  1.00  0.00     0.031 A 
ENDBRANCH  13  16
ENDBRANCH  10  12
BRANCH   9  23
HETATM   23  C   UNL     1      41.958 -16.153   0.636  1.00  0.00    -0.028 A 
HETATM   24  C   UNL     1      43.287 -16.559   0.824  1.00  0.00     0.012 A 
HETATM   25  C   UNL     1      43.577 -17.816   1.358  1.00  0.00     0.037 A 
HETATM   26  C   UNL     1      42.552 -18.694   1.717  1.00  0.00     0.068 A 
HETATM   27  C   UNL     1      41.228 -18.292   1.557  1.00  0.00     0.037 A 
HETATM   28  C   UNL     1      40.931 -17.032   1.026  1.00  0.00     0.012 A 
BRANCH  26  29
HETATM   29  O   UNL     1      42.974 -19.897   2.211  1.00  0.00    -0.356 OA
HETATM   30  C   UNL     1      44.240 -19.917   2.855  1.00  0.00     0.210 C 
ENDBRANCH  26  29
ENDBRANCH   9  23
TORSDOF 4
ENDMDL
