MODEL 1
REMARK VINA RESULT:      -8.9      0.000      0.000
REMARK  9 active torsions:
REMARK  status: ('A' for Active; 'I' for Inactive)
REMARK    1  A    between atoms: C_3  and  C_4 
REMARK    2  A    between atoms: C_4  and  C_5 
REMARK    3  A    between atoms: C_5  and  N_6 
REMARK       I    between atoms: N_6  and  C_7 
REMARK    4  A    between atoms: C_7  and  C_8 
REMARK    5  A    between atoms: C_8  and  C_9 
REMARK    6  A    between atoms: C_9  and  C_10 
REMARK    7  A    between atoms: C_9  and  C_26 
REMARK    8  A    between atoms: C_14  and  C_15 
REMARK    9  A    between atoms: C_28  and  N_29 
ROOT
HETATM    1  C   UNL     1      40.554 -13.198   0.574  1.00  0.00     0.062 C 
ENDROOT
BRANCH   1   2
HETATM    2  C   UNL     1      41.632 -12.303   1.227  1.00  0.00     0.116 C 
BRANCH   2   3
HETATM    3  C   UNL     1      41.269 -11.743   2.594  1.00  0.00     0.218 C 
HETATM    4  N   UNL     1      42.027 -12.221   3.636  1.00  0.00    -0.361 N 
HETATM    5  H   UNL     1      42.778 -12.875   3.443  1.00  0.00     0.162 HD
HETATM    6  O   UNL     1      40.348 -10.944   2.748  1.00  0.00    -0.274 OA
BRANCH   4   7
HETATM    7  C   UNL     1      41.796 -11.864   5.023  1.00  0.00     0.128 C 
BRANCH   7   8
HETATM    8  C   UNL     1      40.889 -12.850   5.765  1.00  0.00     0.079 C 
BRANCH   8   9
HETATM    9  C   UNL     1      41.360 -14.276   5.926  1.00  0.00     0.035 A 
HETATM   10  C   UNL     1      40.485 -15.357   5.987  1.00  0.00     0.027 A 
HETATM   11  C   UNL     1      41.001 -16.650   6.043  1.00  0.00     0.003 A 
HETATM   12  C   UNL     1      42.374 -16.841   6.015  1.00  0.00     0.019 A 
HETATM   13  C   UNL     1      43.182 -15.722   5.937  1.00  0.00     0.117 A 
HETATM   14  N   UNL     1      42.711 -14.454   5.903  1.00  0.00    -0.266 NA
ENDBRANCH   8   9
ENDBRANCH   7   8
ENDBRANCH   4   7
ENDBRANCH   2   3
ENDBRANCH   1   2
BRANCH   1  15
HETATM   15  C   UNL     1      40.176 -14.403   1.417  1.00  0.00    -0.021 C 
HETATM   16  C   UNL     1      41.150 -15.324   1.958  1.00  0.00    -0.001 A 
HETATM   17  C   UNL     1      40.480 -16.489   2.309  1.00  0.00     0.043 A 
HETATM   18  C   UNL     1      42.554 -15.320   2.036  1.00  0.00     0.015 A 
HETATM   19  C   UNL     1      41.144 -17.692   2.610  1.00  0.00     0.044 A 
HETATM   20  N   UNL     1      39.137 -16.214   2.223  1.00  0.00    -0.365 N 
HETATM   21  C   UNL     1      42.553 -17.725   2.565  1.00  0.00    -0.005 A 
HETATM   22  C   UNL     1      43.228 -16.512   2.332  1.00  0.00     0.015 A 
HETATM   23  H   UNL     1      38.401 -16.892   2.371  1.00  0.00     0.165 HD
HETATM   24  C   UNL     1      38.944 -14.941   1.745  1.00  0.00     0.097 C 
BRANCH  21  25
HETATM   25  C   UNL     1      43.326 -18.989   2.677  1.00  0.00     0.066 A 
HETATM   26  N   UNL     1      43.004 -19.944   1.764  1.00  0.00    -0.260 NA
HETATM   27  C   UNL     1      43.612 -21.147   1.847  1.00  0.00     0.117 A 
HETATM   28  C   UNL     1      44.545 -21.469   2.811  1.00  0.00     0.019 A 
HETATM   29  C   UNL     1      44.884 -20.492   3.738  1.00  0.00     0.004 A 
HETATM   30  C   UNL     1      44.273 -19.239   3.671  1.00  0.00     0.032 A 
ENDBRANCH  21  25
ENDBRANCH   1  15
BRANCH   1  31
HETATM   31  C   UNL     1      40.953 -13.549  -0.856  1.00  0.00    -0.047 A 
HETATM   32  C   UNL     1      40.024 -14.250  -1.652  1.00  0.00     0.043 A 
HETATM   33  C   UNL     1      40.246 -14.426  -3.029  1.00  0.00     0.103 A 
HETATM   34  C   UNL     1      41.411 -13.943  -3.632  1.00  0.00     0.036 A 
HETATM   35  C   UNL     1      42.339 -13.254  -2.857  1.00  0.00     0.003 A 
HETATM   36  C   UNL     1      42.096 -13.040  -1.495  1.00  0.00     0.008 A 
BRANCH  33  37
HETATM   37  N   UNL     1      39.215 -15.066  -3.855  1.00  0.00    -0.116 N 
HETATM   38  O   UNL     1      39.544 -16.055  -4.526  1.00  0.00    -0.532 OA
HETATM   39  O   UNL     1      38.071 -14.588  -3.826  1.00  0.00    -0.532 OA
ENDBRANCH  33  37
ENDBRANCH   1  31
TORSDOF 9
ENDMDL
MODEL 2
REMARK VINA RESULT:      -8.9      5.120      8.702
REMARK  9 active torsions:
REMARK  status: ('A' for Active; 'I' for Inactive)
REMARK    1  A    between atoms: C_3  and  C_4 
REMARK    2  A    between atoms: C_4  and  C_5 
REMARK    3  A    between atoms: C_5  and  N_6 
REMARK       I    between atoms: N_6  and  C_7 
REMARK    4  A    between atoms: C_7  and  C_8 
REMARK    5  A    between atoms: C_8  and  C_9 
REMARK    6  A    between atoms: C_9  and  C_10 
REMARK    7  A    between atoms: C_9  and  C_26 
REMARK    8  A    between atoms: C_14  and  C_15 
REMARK    9  A    between atoms: C_28  and  N_29 
ROOT
HETATM    1  C   UNL     1      43.449 -15.655   5.362  1.00  0.00     0.062 C 
ENDROOT
BRANCH   1   2
HETATM    2  C   UNL     1      44.170 -15.552   6.725  1.00  0.00     0.116 C 
BRANCH   2   3
HETATM    3  C   UNL     1      44.737 -14.181   7.058  1.00  0.00     0.218 C 
HETATM    4  N   UNL     1      44.340 -13.668   8.270  1.00  0.00    -0.361 N 
HETATM    5  H   UNL     1      43.738 -14.222   8.869  1.00  0.00     0.162 HD
HETATM    6  O   UNL     1      45.471 -13.573   6.282  1.00  0.00    -0.274 OA
BRANCH   4   7
HETATM    7  C   UNL     1      44.715 -12.348   8.741  1.00  0.00     0.128 C 
BRANCH   7   8
HETATM    8  C   UNL     1      43.526 -11.396   8.902  1.00  0.00     0.079 C 
BRANCH   8   9
HETATM    9  C   UNL     1      43.159 -10.935  10.292  1.00  0.00     0.035 A 
HETATM   10  C   UNL     1      44.107 -10.521  11.223  1.00  0.00     0.027 A 
HETATM   11  C   UNL     1      43.682 -10.022  12.453  1.00  0.00     0.003 A 
HETATM   12  C   UNL     1      42.325  -9.926  12.721  1.00  0.00     0.019 A 
HETATM   13  C   UNL     1      41.441 -10.340  11.742  1.00  0.00     0.117 A 
HETATM   14  N   UNL     1      41.823 -10.849  10.549  1.00  0.00    -0.266 NA
ENDBRANCH   8   9
ENDBRANCH   7   8
ENDBRANCH   4   7
ENDBRANCH   2   3
ENDBRANCH   1   2
BRANCH   1  15
HETATM   15  C   UNL     1      41.967 -15.334   5.435  1.00  0.00    -0.021 C 
HETATM   16  C   UNL     1      41.449 -13.986   5.382  1.00  0.00    -0.001 A 
HETATM   17  C   UNL     1      40.149 -14.014   5.871  1.00  0.00     0.043 A 
HETATM   18  C   UNL     1      42.024 -12.733   5.106  1.00  0.00     0.015 A 
HETATM   19  C   UNL     1      39.438 -12.851   6.221  1.00  0.00     0.044 A 
HETATM   20  N   UNL     1      39.797 -15.336   5.984  1.00  0.00    -0.365 N 
HETATM   21  C   UNL     1      40.061 -11.596   6.064  1.00  0.00    -0.005 A 
HETATM   22  C   UNL     1      41.328 -11.567   5.452  1.00  0.00     0.015 A 
HETATM   23  H   UNL     1      38.922 -15.668   6.366  1.00  0.00     0.165 HD
HETATM   24  C   UNL     1      40.866 -16.139   5.666  1.00  0.00     0.097 C 
BRANCH  21  25
HETATM   25  C   UNL     1      39.465 -10.338   6.584  1.00  0.00     0.066 A 
HETATM   26  N   UNL     1      38.858  -9.559   5.648  1.00  0.00    -0.260 NA
HETATM   27  C   UNL     1      38.355  -8.365   6.029  1.00  0.00     0.117 A 
HETATM   28  C   UNL     1      38.423  -7.883   7.321  1.00  0.00     0.019 A 
HETATM   29  C   UNL     1      39.033  -8.681   8.280  1.00  0.00     0.004 A 
HETATM   30  C   UNL     1      39.556  -9.921   7.912  1.00  0.00     0.032 A 
ENDBRANCH  21  25
ENDBRANCH   1  15
BRANCH   1  31
HETATM   31  C   UNL     1      43.756 -16.996   4.701  1.00  0.00    -0.047 A 
HETATM   32  C   UNL     1      43.981 -18.112   5.533  1.00  0.00     0.043 A 
HETATM   33  C   UNL     1      44.067 -19.406   4.992  1.00  0.00     0.103 A 
HETATM   34  C   UNL     1      43.971 -19.611   3.613  1.00  0.00     0.036 A 
HETATM   35  C   UNL     1      43.755 -18.518   2.779  1.00  0.00     0.003 A 
HETATM   36  C   UNL     1      43.623 -17.234   3.322  1.00  0.00     0.008 A 
BRANCH  33  37
HETATM   37  N   UNL     1      44.195 -20.561   5.889  1.00  0.00    -0.116 N 
HETATM   38  O   UNL     1      44.741 -21.581   5.443  1.00  0.00    -0.532 OA
HETATM   39  O   UNL     1      43.761 -20.447   7.045  1.00  0.00    -0.532 OA
ENDBRANCH  33  37
ENDBRANCH   1  31
TORSDOF 9
ENDMDL
MODEL 3
REMARK VINA RESULT:      -8.7      4.193      7.620
REMARK  9 active torsions:
REMARK  status: ('A' for Active; 'I' for Inactive)
REMARK    1  A    between atoms: C_3  and  C_4 
REMARK    2  A    between atoms: C_4  and  C_5 
REMARK    3  A    between atoms: C_5  and  N_6 
REMARK       I    between atoms: N_6  and  C_7 
REMARK    4  A    between atoms: C_7  and  C_8 
REMARK    5  A    between atoms: C_8  and  C_9 
REMARK    6  A    between atoms: C_9  and  C_10 
REMARK    7  A    between atoms: C_9  and  C_26 
REMARK    8  A    between atoms: C_14  and  C_15 
REMARK    9  A    between atoms: C_28  and  N_29 
ROOT
HETATM    1  C   UNL     1      43.312 -16.675   5.570  1.00  0.00     0.062 C 
ENDROOT
BRANCH   1   2
HETATM    2  C   UNL     1      43.534 -15.758   6.795  1.00  0.00     0.116 C 
BRANCH   2   3
HETATM    3  C   UNL     1      44.302 -14.476   6.515  1.00  0.00     0.218 C 
HETATM    4  N   UNL     1      45.008 -13.977   7.584  1.00  0.00    -0.361 N 
HETATM    5  H   UNL     1      45.003 -14.486   8.461  1.00  0.00     0.162 HD
HETATM    6  O   UNL     1      44.266 -13.919   5.419  1.00  0.00    -0.274 OA
BRANCH   4   7
HETATM    7  C   UNL     1      45.749 -12.731   7.542  1.00  0.00     0.128 C 
BRANCH   7   8
HETATM    8  C   UNL     1      45.987 -12.116   8.924  1.00  0.00     0.079 C 
BRANCH   8   9
HETATM    9  C   UNL     1      44.830 -11.431   9.613  1.00  0.00     0.035 A 
HETATM   10  C   UNL     1      44.908 -10.952  10.918  1.00  0.00     0.027 A 
HETATM   11  C   UNL     1      43.828 -10.250  11.451  1.00  0.00     0.003 A 
HETATM   12  C   UNL     1      42.706 -10.021  10.669  1.00  0.00     0.019 A 
HETATM   13  C   UNL     1      42.708 -10.512   9.377  1.00  0.00     0.117 A 
HETATM   14  N   UNL     1      43.730 -11.215   8.839  1.00  0.00    -0.266 NA
ENDBRANCH   8   9
ENDBRANCH   7   8
ENDBRANCH   4   7
ENDBRANCH   2   3
ENDBRANCH   1   2
BRANCH   1  15
HETATM   15  C   UNL     1      42.039 -16.364   4.803  1.00  0.00    -0.021 C 
HETATM   16  C   UNL     1      41.957 -16.410   3.361  1.00  0.00    -0.001 A 
HETATM   17  C   UNL     1      40.825 -15.700   2.979  1.00  0.00     0.043 A 
HETATM   18  C   UNL     1      42.825 -16.860   2.351  1.00  0.00     0.015 A 
HETATM   19  C   UNL     1      40.582 -15.304   1.652  1.00  0.00     0.044 A 
HETATM   20  N   UNL     1      40.114 -15.443   4.126  1.00  0.00    -0.365 N 
HETATM   21  C   UNL     1      41.517 -15.647   0.654  1.00  0.00    -0.005 A 
HETATM   22  C   UNL     1      42.595 -16.472   1.025  1.00  0.00     0.015 A 
HETATM   23  H   UNL     1      39.267 -14.894   4.166  1.00  0.00     0.165 HD
HETATM   24  C   UNL     1      40.808 -15.893   5.223  1.00  0.00     0.097 C 
BRANCH  21  25
HETATM   25  C   UNL     1      41.441 -15.111  -0.730  1.00  0.00     0.066 A 
HETATM   26  N   UNL     1      41.823 -13.813  -0.866  1.00  0.00    -0.260 NA
HETATM   27  C   UNL     1      41.714 -13.232  -2.080  1.00  0.00     0.117 A 
HETATM   28  C   UNL     1      41.231 -13.880  -3.199  1.00  0.00     0.019 A 
HETATM   29  C   UNL     1      40.850 -15.209  -3.065  1.00  0.00     0.004 A 
HETATM   30  C   UNL     1      40.958 -15.834  -1.822  1.00  0.00     0.032 A 
ENDBRANCH  21  25
ENDBRANCH   1  15
BRANCH   1  31
HETATM   31  C   UNL     1      43.443 -18.140   5.976  1.00  0.00    -0.047 A 
HETATM   32  C   UNL     1      43.876 -19.063   5.001  1.00  0.00     0.043 A 
HETATM   33  C   UNL     1      44.210 -20.380   5.358  1.00  0.00     0.103 A 
HETATM   34  C   UNL     1      44.083 -20.816   6.679  1.00  0.00     0.036 A 
HETATM   35  C   UNL     1      43.651 -19.918   7.651  1.00  0.00     0.003 A 
HETATM   36  C   UNL     1      43.363 -18.593   7.303  1.00  0.00     0.008 A 
BRANCH  33  37
HETATM   37  N   UNL     1      44.758 -21.290   4.345  1.00  0.00    -0.116 N 
HETATM   38  O   UNL     1      45.160 -22.401   4.722  1.00  0.00    -0.532 OA
HETATM   39  O   UNL     1      44.777 -20.902   3.167  1.00  0.00    -0.532 OA
ENDBRANCH  33  37
ENDBRANCH   1  31
TORSDOF 9
ENDMDL
MODEL 4
REMARK VINA RESULT:      -8.6      2.874      7.018
REMARK  9 active torsions:
REMARK  status: ('A' for Active; 'I' for Inactive)
REMARK    1  A    between atoms: C_3  and  C_4 
REMARK    2  A    between atoms: C_4  and  C_5 
REMARK    3  A    between atoms: C_5  and  N_6 
REMARK       I    between atoms: N_6  and  C_7 
REMARK    4  A    between atoms: C_7  and  C_8 
REMARK    5  A    between atoms: C_8  and  C_9 
REMARK    6  A    between atoms: C_9  and  C_10 
REMARK    7  A    between atoms: C_9  and  C_26 
REMARK    8  A    between atoms: C_14  and  C_15 
REMARK    9  A    between atoms: C_28  and  N_29 
ROOT
HETATM    1  C   UNL     1      42.233 -13.124   5.454  1.00  0.00     0.062 C 
ENDROOT
BRANCH   1   2
HETATM    2  C   UNL     1      41.588 -12.357   4.277  1.00  0.00     0.116 C 
BRANCH   2   3
HETATM    3  C   UNL     1      42.246 -12.573   2.923  1.00  0.00     0.218 C 
HETATM    4  N   UNL     1      41.625 -11.943   1.870  1.00  0.00    -0.361 N 
HETATM    5  H   UNL     1      40.811 -11.366   2.049  1.00  0.00     0.162 HD
HETATM    6  O   UNL     1      43.241 -13.282   2.787  1.00  0.00    -0.274 OA
BRANCH   4   7
HETATM    7  C   UNL     1      42.056 -12.078   0.492  1.00  0.00     0.128 C 
BRANCH   7   8
HETATM    8  C   UNL     1      41.301 -13.165  -0.280  1.00  0.00     0.079 C 
BRANCH   8   9
HETATM    9  C   UNL     1      40.890 -14.416   0.459  1.00  0.00     0.035 A 
HETATM   10  C   UNL     1      41.679 -15.563   0.497  1.00  0.00     0.027 A 
HETATM   11  C   UNL     1      41.273 -16.644   1.277  1.00  0.00     0.003 A 
HETATM   12  C   UNL     1      40.104 -16.553   2.018  1.00  0.00     0.019 A 
HETATM   13  C   UNL     1      39.381 -15.378   1.945  1.00  0.00     0.117 A 
HETATM   14  N   UNL     1      39.738 -14.320   1.181  1.00  0.00    -0.266 NA
ENDBRANCH   8   9
ENDBRANCH   7   8
ENDBRANCH   4   7
ENDBRANCH   2   3
ENDBRANCH   1   2
BRANCH   1  15
HETATM   15  C   UNL     1      41.643 -14.505   5.672  1.00  0.00    -0.021 C 
HETATM   16  C   UNL     1      42.378 -15.725   5.423  1.00  0.00    -0.001 A 
HETATM   17  C   UNL     1      41.457 -16.760   5.327  1.00  0.00     0.043 A 
HETATM   18  C   UNL     1      43.722 -16.006   5.121  1.00  0.00     0.015 A 
HETATM   19  C   UNL     1      41.784 -18.031   4.821  1.00  0.00     0.044 A 
HETATM   20  N   UNL     1      40.248 -16.255   5.741  1.00  0.00    -0.365 N 
HETATM   21  C   UNL     1      43.107 -18.278   4.398  1.00  0.00    -0.005 A 
HETATM   22  C   UNL     1      44.061 -17.268   4.615  1.00  0.00     0.015 A 
HETATM   23  H   UNL     1      39.377 -16.767   5.729  1.00  0.00     0.165 HD
HETATM   24  C   UNL     1      40.364 -14.913   6.008  1.00  0.00     0.097 C 
BRANCH  21  25
HETATM   25  C   UNL     1      43.496 -19.518   3.677  1.00  0.00     0.066 A 
HETATM   26  N   UNL     1      44.291 -20.368   4.381  1.00  0.00    -0.260 NA
HETATM   27  C   UNL     1      44.747 -21.482   3.769  1.00  0.00     0.117 A 
HETATM   28  C   UNL     1      44.455 -21.811   2.462  1.00  0.00     0.019 A 
HETATM   29  C   UNL     1      43.635 -20.951   1.744  1.00  0.00     0.004 A 
HETATM   30  C   UNL     1      43.147 -19.795   2.355  1.00  0.00     0.032 A 
ENDBRANCH  21  25
ENDBRANCH   1  15
BRANCH   1  31
HETATM   31  C   UNL     1      42.246 -12.255   6.709  1.00  0.00    -0.047 A 
HETATM   32  C   UNL     1      43.352 -12.360   7.578  1.00  0.00     0.043 A 
HETATM   33  C   UNL     1      43.522 -11.451   8.635  1.00  0.00     0.103 A 
HETATM   34  C   UNL     1      42.580 -10.447   8.873  1.00  0.00     0.036 A 
HETATM   35  C   UNL     1      41.481 -10.335   8.026  1.00  0.00     0.003 A 
HETATM   36  C   UNL     1      41.335 -11.212   6.945  1.00  0.00     0.008 A 
BRANCH  33  37
HETATM   37  N   UNL     1      44.735 -11.515   9.461  1.00  0.00    -0.116 N 
HETATM   38  O   UNL     1      44.871 -12.492  10.212  1.00  0.00    -0.532 OA
HETATM   39  O   UNL     1      45.559 -10.596   9.351  1.00  0.00    -0.532 OA
ENDBRANCH  33  37
ENDBRANCH   1  31
TORSDOF 9
ENDMDL
MODEL 5
REMARK VINA RESULT:      -8.5      1.687      2.676
REMARK  9 active torsions:
REMARK  status: ('A' for Active; 'I' for Inactive)
REMARK    1  A    between atoms: C_3  and  C_4 
REMARK    2  A    between atoms: C_4  and  C_5 
REMARK    3  A    between atoms: C_5  and  N_6 
REMARK       I    between atoms: N_6  and  C_7 
REMARK    4  A    between atoms: C_7  and  C_8 
REMARK    5  A    between atoms: C_8  and  C_9 
REMARK    6  A    between atoms: C_9  and  C_10 
REMARK    7  A    between atoms: C_9  and  C_26 
REMARK    8  A    between atoms: C_14  and  C_15 
REMARK    9  A    between atoms: C_28  and  N_29 
ROOT
HETATM    1  C   UNL     1      39.918 -14.515   1.563  1.00  0.00     0.062 C 
ENDROOT
BRANCH   1   2
HETATM    2  C   UNL     1      39.338 -13.529   2.601  1.00  0.00     0.116 C 
BRANCH   2   3
HETATM    3  C   UNL     1      39.922 -13.642   4.001  1.00  0.00     0.218 C 
HETATM    4  N   UNL     1      39.854 -14.897   4.558  1.00  0.00    -0.361 N 
HETATM    5  H   UNL     1      39.461 -15.659   4.016  1.00  0.00     0.162 HD
HETATM    6  O   UNL     1      40.391 -12.672   4.592  1.00  0.00    -0.274 OA
BRANCH   4   7
HETATM    7  C   UNL     1      40.294 -15.198   5.907  1.00  0.00     0.128 C 
BRANCH   7   8
HETATM    8  C   UNL     1      40.727 -16.655   6.097  1.00  0.00     0.079 C 
BRANCH   8   9
HETATM    9  C   UNL     1      42.184 -16.940   6.376  1.00  0.00     0.035 A 
HETATM   10  C   UNL     1      43.199 -16.034   6.080  1.00  0.00     0.027 A 
HETATM   11  C   UNL     1      44.508 -16.332   6.453  1.00  0.00     0.003 A 
HETATM   12  C   UNL     1      44.775 -17.513   7.130  1.00  0.00     0.019 A 
HETATM   13  C   UNL     1      43.715 -18.356   7.404  1.00  0.00     0.117 A 
HETATM   14  N   UNL     1      42.438 -18.104   7.036  1.00  0.00    -0.266 NA
ENDBRANCH   8   9
ENDBRANCH   7   8
ENDBRANCH   4   7
ENDBRANCH   2   3
ENDBRANCH   1   2
BRANCH   1  15
HETATM   15  C   UNL     1      41.395 -14.804   1.761  1.00  0.00    -0.021 C 
HETATM   16  C   UNL     1      41.952 -16.138   1.710  1.00  0.00    -0.001 A 
HETATM   17  C   UNL     1      43.200 -16.098   2.318  1.00  0.00     0.043 A 
HETATM   18  C   UNL     1      41.438 -17.392   1.339  1.00  0.00     0.015 A 
HETATM   19  C   UNL     1      43.906 -17.255   2.692  1.00  0.00     0.044 A 
HETATM   20  N   UNL     1      43.505 -14.772   2.509  1.00  0.00    -0.365 N 
HETATM   21  C   UNL     1      43.334 -18.518   2.434  1.00  0.00    -0.005 A 
HETATM   22  C   UNL     1      42.130 -18.553   1.706  1.00  0.00     0.015 A 
HETATM   23  H   UNL     1      44.332 -14.435   2.982  1.00  0.00     0.165 HD
HETATM   24  C   UNL     1      42.449 -13.983   2.121  1.00  0.00     0.097 C 
BRANCH  21  25
HETATM   25  C   UNL     1      43.913 -19.780   2.963  1.00  0.00     0.066 A 
HETATM   26  N   UNL     1      43.845 -20.843   2.117  1.00  0.00    -0.260 NA
HETATM   27  C   UNL     1      44.285 -22.043   2.552  1.00  0.00     0.117 A 
HETATM   28  C   UNL     1      44.801 -22.258   3.814  1.00  0.00     0.019 A 
HETATM   29  C   UNL     1      44.882 -21.173   4.676  1.00  0.00     0.004 A 
HETATM   30  C   UNL     1      44.438 -19.920   4.248  1.00  0.00     0.032 A 
ENDBRANCH  21  25
ENDBRANCH   1  15
BRANCH   1  31
HETATM   31  C   UNL     1      39.565 -14.064   0.148  1.00  0.00    -0.047 A 
HETATM   32  C   UNL     1      40.227 -14.683  -0.932  1.00  0.00     0.043 A 
HETATM   33  C   UNL     1      39.807 -14.461  -2.254  1.00  0.00     0.103 A 
HETATM   34  C   UNL     1      38.749 -13.591  -2.531  1.00  0.00     0.036 A 
HETATM   35  C   UNL     1      38.090 -12.969  -1.475  1.00  0.00     0.003 A 
HETATM   36  C   UNL     1      38.478 -13.226  -0.155  1.00  0.00     0.008 A 
BRANCH  33  37
HETATM   37  N   UNL     1      40.444 -15.198  -3.352  1.00  0.00    -0.116 N 
HETATM   38  O   UNL     1      39.716 -15.877  -4.092  1.00  0.00    -0.532 OA
HETATM   39  O   UNL     1      41.672 -15.091  -3.486  1.00  0.00    -0.532 OA
ENDBRANCH  33  37
ENDBRANCH   1  31
TORSDOF 9
ENDMDL
MODEL 6
REMARK VINA RESULT:      -8.5      3.042      4.107
REMARK  9 active torsions:
REMARK  status: ('A' for Active; 'I' for Inactive)
REMARK    1  A    between atoms: C_3  and  C_4 
REMARK    2  A    between atoms: C_4  and  C_5 
REMARK    3  A    between atoms: C_5  and  N_6 
REMARK       I    between atoms: N_6  and  C_7 
REMARK    4  A    between atoms: C_7  and  C_8 
REMARK    5  A    between atoms: C_8  and  C_9 
REMARK    6  A    between atoms: C_9  and  C_10 
REMARK    7  A    between atoms: C_9  and  C_26 
REMARK    8  A    between atoms: C_14  and  C_15 
REMARK    9  A    between atoms: C_28  and  N_29 
ROOT
HETATM    1  C   UNL     1      40.715 -13.115   4.412  1.00  0.00     0.062 C 
ENDROOT
BRANCH   1   2
HETATM    2  C   UNL     1      41.769 -12.098   4.905  1.00  0.00     0.116 C 
BRANCH   2   3
HETATM    3  C   UNL     1      41.264 -11.073   5.909  1.00  0.00     0.218 C 
HETATM    4  N   UNL     1      41.170 -11.526   7.203  1.00  0.00    -0.361 N 
HETATM    5  H   UNL     1      41.460 -12.474   7.418  1.00  0.00     0.162 HD
HETATM    6  O   UNL     1      40.938  -9.936   5.572  1.00  0.00    -0.274 OA
BRANCH   4   7
HETATM    7  C   UNL     1      40.648 -10.727   8.294  1.00  0.00     0.128 C 
BRANCH   7   8
HETATM    8  C   UNL     1      41.665  -9.734   8.865  1.00  0.00     0.079 C 
BRANCH   8   9
HETATM    9  C   UNL     1      42.894 -10.281   9.551  1.00  0.00     0.035 A 
HETATM   10  C   UNL     1      43.145 -10.096  10.908  1.00  0.00     0.027 A 
HETATM   11  C   UNL     1      44.254 -10.711  11.486  1.00  0.00     0.003 A 
HETATM   12  C   UNL     1      45.077 -11.512  10.708  1.00  0.00     0.019 A 
HETATM   13  C   UNL     1      44.756 -11.662   9.372  1.00  0.00     0.117 A 
HETATM   14  N   UNL     1      43.700 -11.062   8.778  1.00  0.00    -0.266 NA
ENDBRANCH   8   9
ENDBRANCH   7   8
ENDBRANCH   4   7
ENDBRANCH   2   3
ENDBRANCH   1   2
BRANCH   1  15
HETATM   15  C   UNL     1      40.784 -14.453   5.127  1.00  0.00    -0.021 C 
HETATM   16  C   UNL     1      41.756 -15.472   4.800  1.00  0.00    -0.001 A 
HETATM   17  C   UNL     1      41.301 -16.674   5.327  1.00  0.00     0.043 A 
HETATM   18  C   UNL     1      42.895 -15.501   3.977  1.00  0.00     0.015 A 
HETATM   19  C   UNL     1      41.846 -17.921   4.972  1.00  0.00     0.044 A 
HETATM   20  N   UNL     1      40.239 -16.370   6.144  1.00  0.00    -0.365 N 
HETATM   21  C   UNL     1      42.910 -17.962   4.047  1.00  0.00    -0.005 A 
HETATM   22  C   UNL     1      43.448 -16.736   3.614  1.00  0.00     0.015 A 
HETATM   23  H   UNL     1      39.670 -17.054   6.625  1.00  0.00     0.165 HD
HETATM   24  C   UNL     1      39.959 -15.027   6.077  1.00  0.00     0.097 C 
BRANCH  21  25
HETATM   25  C   UNL     1      43.418 -19.234   3.471  1.00  0.00     0.066 A 
HETATM   26  N   UNL     1      44.270 -19.929   4.271  1.00  0.00    -0.260 NA
HETATM   27  C   UNL     1      44.831 -21.059   3.790  1.00  0.00     0.117 A 
HETATM   28  C   UNL     1      44.592 -21.554   2.524  1.00  0.00     0.019 A 
HETATM   29  C   UNL     1      43.714 -20.852   1.709  1.00  0.00     0.004 A 
HETATM   30  C   UNL     1      43.117 -19.684   2.184  1.00  0.00     0.032 A 
ENDBRANCH  21  25
ENDBRANCH   1  15
BRANCH   1  31
HETATM   31  C   UNL     1      40.758 -13.228   2.891  1.00  0.00    -0.047 A 
HETATM   32  C   UNL     1      39.600 -13.680   2.225  1.00  0.00     0.043 A 
HETATM   33  C   UNL     1      39.506 -13.615   0.825  1.00  0.00     0.103 A 
HETATM   34  C   UNL     1      40.572 -13.136   0.058  1.00  0.00     0.036 A 
HETATM   35  C   UNL     1      41.723 -12.692   0.702  1.00  0.00     0.003 A 
HETATM   36  C   UNL     1      41.799 -12.714   2.100  1.00  0.00     0.008 A 
BRANCH  33  37
HETATM   37  N   UNL     1      38.251 -13.993   0.163  1.00  0.00    -0.116 N 
HETATM   38  O   UNL     1      38.218 -13.958  -1.076  1.00  0.00    -0.532 OA
HETATM   39  O   UNL     1      37.300 -14.338   0.880  1.00  0.00    -0.532 OA
ENDBRANCH  33  37
ENDBRANCH   1  31
TORSDOF 9
ENDMDL
MODEL 7
REMARK VINA RESULT:      -8.2      3.344      8.478
REMARK  9 active torsions:
REMARK  status: ('A' for Active; 'I' for Inactive)
REMARK    1  A    between atoms: C_3  and  C_4 
REMARK    2  A    between atoms: C_4  and  C_5 
REMARK    3  A    between atoms: C_5  and  N_6 
REMARK       I    between atoms: N_6  and  C_7 
REMARK    4  A    between atoms: C_7  and  C_8 
REMARK    5  A    between atoms: C_8  and  C_9 
REMARK    6  A    between atoms: C_9  and  C_10 
REMARK    7  A    between atoms: C_9  and  C_26 
REMARK    8  A    between atoms: C_14  and  C_15 
REMARK    9  A    between atoms: C_28  and  N_29 
ROOT
HETATM    1  C   UNL     1      41.759 -16.862   2.903  1.00  0.00     0.062 C 
ENDROOT
BRANCH   1   2
HETATM    2  C   UNL     1      41.074 -16.721   1.525  1.00  0.00     0.116 C 
BRANCH   2   3
HETATM    3  C   UNL     1      40.091 -15.566   1.403  1.00  0.00     0.218 C 
HETATM    4  N   UNL     1      40.448 -14.593   0.500  1.00  0.00    -0.361 N 
HETATM    5  H   UNL     1      41.299 -14.706  -0.039  1.00  0.00     0.162 HD
HETATM    6  O   UNL     1      39.071 -15.504   2.087  1.00  0.00    -0.274 OA
BRANCH   4   7
HETATM    7  C   UNL     1      39.681 -13.381   0.287  1.00  0.00     0.128 C 
BRANCH   7   8
HETATM    8  C   UNL     1      39.496 -13.028  -1.192  1.00  0.00     0.079 C 
BRANCH   8   9
HETATM    9  C   UNL     1      39.166 -14.141  -2.159  1.00  0.00     0.035 A 
HETATM   10  C   UNL     1      37.905 -14.296  -2.728  1.00  0.00     0.027 A 
HETATM   11  C   UNL     1      37.706 -15.292  -3.681  1.00  0.00     0.003 A 
HETATM   12  C   UNL     1      38.769 -16.097  -4.064  1.00  0.00     0.019 A 
HETATM   13  C   UNL     1      39.995 -15.874  -3.469  1.00  0.00     0.117 A 
HETATM   14  N   UNL     1      40.215 -14.930  -2.525  1.00  0.00    -0.266 NA
ENDBRANCH   8   9
ENDBRANCH   7   8
ENDBRANCH   4   7
ENDBRANCH   2   3
ENDBRANCH   1   2
BRANCH   1  15
HETATM   15  C   UNL     1      42.403 -15.578   3.393  1.00  0.00    -0.021 C 
HETATM   16  C   UNL     1      41.834 -14.761   4.441  1.00  0.00    -0.001 A 
HETATM   17  C   UNL     1      42.421 -13.504   4.363  1.00  0.00     0.043 A 
HETATM   18  C   UNL     1      40.769 -14.937   5.342  1.00  0.00     0.015 A 
HETATM   19  C   UNL     1      41.916 -12.380   5.042  1.00  0.00     0.044 A 
HETATM   20  N   UNL     1      43.469 -13.611   3.482  1.00  0.00    -0.365 N 
HETATM   21  C   UNL     1      40.770 -12.528   5.850  1.00  0.00    -0.005 A 
HETATM   22  C   UNL     1      40.256 -13.826   6.024  1.00  0.00     0.015 A 
HETATM   23  H   UNL     1      44.050 -12.840   3.184  1.00  0.00     0.165 HD
HETATM   24  C   UNL     1      43.503 -14.873   2.938  1.00  0.00     0.097 C 
BRANCH  21  25
HETATM   25  C   UNL     1      40.059 -11.368   6.447  1.00  0.00     0.066 A 
HETATM   26  N   UNL     1      39.735 -10.378   5.571  1.00  0.00    -0.260 NA
HETATM   27  C   UNL     1      39.152  -9.258   6.049  1.00  0.00     0.117 A 
HETATM   28  C   UNL     1      38.865  -9.054   7.383  1.00  0.00     0.019 A 
HETATM   29  C   UNL     1      39.184 -10.066   8.278  1.00  0.00     0.004 A 
HETATM   30  C   UNL     1      39.784 -11.236   7.808  1.00  0.00     0.032 A 
ENDBRANCH  21  25
ENDBRANCH   1  15
BRANCH   1  31
HETATM   31  C   UNL     1      42.702 -18.062   2.905  1.00  0.00    -0.047 A 
HETATM   32  C   UNL     1      43.265 -18.462   4.134  1.00  0.00     0.043 A 
HETATM   33  C   UNL     1      43.974 -19.671   4.240  1.00  0.00     0.103 A 
HETATM   34  C   UNL     1      44.170 -20.484   3.120  1.00  0.00     0.036 A 
HETATM   35  C   UNL     1      43.624 -20.098   1.899  1.00  0.00     0.003 A 
HETATM   36  C   UNL     1      42.879 -18.918   1.804  1.00  0.00     0.008 A 
BRANCH  33  37
HETATM   37  N   UNL     1      44.459 -20.117   5.551  1.00  0.00    -0.116 N 
HETATM   38  O   UNL     1      44.665 -21.329   5.710  1.00  0.00    -0.532 OA
HETATM   39  O   UNL     1      44.646 -19.254   6.423  1.00  0.00    -0.532 OA
ENDBRANCH  33  37
ENDBRANCH   1  31
TORSDOF 9
ENDMDL
MODEL 8
REMARK VINA RESULT:      -8.2      4.152      7.564
REMARK  9 active torsions:
REMARK  status: ('A' for Active; 'I' for Inactive)
REMARK    1  A    between atoms: C_3  and  C_4 
REMARK    2  A    between atoms: C_4  and  C_5 
REMARK    3  A    between atoms: C_5  and  N_6 
REMARK       I    between atoms: N_6  and  C_7 
REMARK    4  A    between atoms: C_7  and  C_8 
REMARK    5  A    between atoms: C_8  and  C_9 
REMARK    6  A    between atoms: C_9  and  C_10 
REMARK    7  A    between atoms: C_9  and  C_26 
REMARK    8  A    between atoms: C_14  and  C_15 
REMARK    9  A    between atoms: C_28  and  N_29 
ROOT
HETATM    1  C   UNL     1      43.405 -16.363   4.039  1.00  0.00     0.062 C 
ENDROOT
BRANCH   1   2
HETATM    2  C   UNL     1      43.755 -15.979   5.495  1.00  0.00     0.116 C 
BRANCH   2   3
HETATM    3  C   UNL     1      43.980 -14.494   5.738  1.00  0.00     0.218 C 
HETATM    4  N   UNL     1      43.952 -14.112   7.058  1.00  0.00    -0.361 N 
HETATM    5  H   UNL     1      43.818 -14.817   7.775  1.00  0.00     0.162 HD
HETATM    6  O   UNL     1      44.146 -13.700   4.814  1.00  0.00    -0.274 OA
BRANCH   4   7
HETATM    7  C   UNL     1      44.079 -12.735   7.495  1.00  0.00     0.128 C 
BRANCH   7   8
HETATM    8  C   UNL     1      44.672 -12.592   8.900  1.00  0.00     0.079 C 
BRANCH   8   9
HETATM    9  C   UNL     1      44.039 -11.602   9.849  1.00  0.00     0.035 A 
HETATM   10  C   UNL     1      44.615 -11.252  11.066  1.00  0.00     0.027 A 
HETATM   11  C   UNL     1      44.016 -10.262  11.844  1.00  0.00     0.003 A 
HETATM   12  C   UNL     1      42.871  -9.629  11.383  1.00  0.00     0.019 A 
HETATM   13  C   UNL     1      42.365 -10.018  10.158  1.00  0.00     0.117 A 
HETATM   14  N   UNL     1      42.911 -10.989   9.391  1.00  0.00    -0.266 NA
ENDBRANCH   8   9
ENDBRANCH   7   8
ENDBRANCH   4   7
ENDBRANCH   2   3
ENDBRANCH   1   2
BRANCH   1  15
HETATM   15  C   UNL     1      41.952 -16.110   3.678  1.00  0.00    -0.021 C 
HETATM   16  C   UNL     1      41.502 -15.902   2.320  1.00  0.00    -0.001 A 
HETATM   17  C   UNL     1      40.245 -15.312   2.378  1.00  0.00     0.043 A 
HETATM   18  C   UNL     1      42.117 -16.024   1.062  1.00  0.00     0.015 A 
HETATM   19  C   UNL     1      39.626 -14.720   1.262  1.00  0.00     0.044 A 
HETATM   20  N   UNL     1      39.836 -15.380   3.687  1.00  0.00    -0.365 N 
HETATM   21  C   UNL     1      40.298 -14.730   0.023  1.00  0.00    -0.005 A 
HETATM   22  C   UNL     1      41.511 -15.438  -0.057  1.00  0.00     0.015 A 
HETATM   23  H   UNL     1      38.978 -14.981   4.043  1.00  0.00     0.165 HD
HETATM   24  C   UNL     1      40.833 -15.914   4.467  1.00  0.00     0.097 C 
BRANCH  21  25
HETATM   25  C   UNL     1      39.812 -13.966  -1.155  1.00  0.00     0.066 A 
HETATM   26  N   UNL     1      38.460 -13.950  -1.313  1.00  0.00    -0.260 NA
HETATM   27  C   UNL     1      37.945 -13.338  -2.400  1.00  0.00     0.117 A 
HETATM   28  C   UNL     1      38.711 -12.726  -3.370  1.00  0.00     0.019 A 
HETATM   29  C   UNL     1      40.090 -12.731  -3.207  1.00  0.00     0.004 A 
HETATM   30  C   UNL     1      40.648 -13.354  -2.089  1.00  0.00     0.032 A 
ENDBRANCH  21  25
ENDBRANCH   1  15
BRANCH   1  31
HETATM   31  C   UNL     1      43.875 -17.783   3.739  1.00  0.00    -0.047 A 
HETATM   32  C   UNL     1      44.042 -18.671   4.822  1.00  0.00     0.043 A 
HETATM   33  C   UNL     1      44.274 -20.039   4.600  1.00  0.00     0.103 A 
HETATM   34  C   UNL     1      44.384 -20.543   3.301  1.00  0.00     0.036 A 
HETATM   35  C   UNL     1      44.227 -19.677   2.223  1.00  0.00     0.003 A 
HETATM   36  C   UNL     1      43.950 -18.323   2.444  1.00  0.00     0.008 A 
BRANCH  33  37
HETATM   37  N   UNL     1      44.339 -20.959   5.741  1.00  0.00    -0.116 N 
HETATM   38  O   UNL     1      44.917 -22.044   5.577  1.00  0.00    -0.532 OA
HETATM   39  O   UNL     1      43.824 -20.595   6.809  1.00  0.00    -0.532 OA
ENDBRANCH  33  37
ENDBRANCH   1  31
TORSDOF 9
ENDMDL
MODEL 9
REMARK VINA RESULT:      -8.1      1.516      2.090
REMARK  9 active torsions:
REMARK  status: ('A' for Active; 'I' for Inactive)
REMARK    1  A    between atoms: C_3  and  C_4 
REMARK    2  A    between atoms: C_4  and  C_5 
REMARK    3  A    between atoms: C_5  and  N_6 
REMARK       I    between atoms: N_6  and  C_7 
REMARK    4  A    between atoms: C_7  and  C_8 
REMARK    5  A    between atoms: C_8  and  C_9 
REMARK    6  A    between atoms: C_9  and  C_10 
REMARK    7  A    between atoms: C_9  and  C_26 
REMARK    8  A    between atoms: C_14  and  C_15 
REMARK    9  A    between atoms: C_28  and  N_29 
ROOT
HETATM    1  C   UNL     1      40.805 -14.614   0.768  1.00  0.00     0.062 C 
ENDROOT
BRANCH   1   2
HETATM    2  C   UNL     1      39.982 -13.452   1.369  1.00  0.00     0.116 C 
BRANCH   2   3
HETATM    3  C   UNL     1      39.787 -13.507   2.876  1.00  0.00     0.218 C 
HETATM    4  N   UNL     1      40.313 -12.442   3.569  1.00  0.00    -0.361 N 
HETATM    5  H   UNL     1      40.760 -11.690   3.056  1.00  0.00     0.162 HD
HETATM    6  O   UNL     1      39.225 -14.452   3.427  1.00  0.00    -0.274 OA
BRANCH   4   7
HETATM    7  C   UNL     1      40.291 -12.340   5.015  1.00  0.00     0.128 C 
BRANCH   7   8
HETATM    8  C   UNL     1      41.687 -12.287   5.645  1.00  0.00     0.079 C 
BRANCH   8   9
HETATM    9  C   UNL     1      42.389 -13.591   5.944  1.00  0.00     0.035 A 
HETATM   10  C   UNL     1      43.674 -13.649   6.475  1.00  0.00     0.027 A 
HETATM   11  C   UNL     1      44.217 -14.888   6.809  1.00  0.00     0.003 A 
HETATM   12  C   UNL     1      43.463 -16.038   6.627  1.00  0.00     0.019 A 
HETATM   13  C   UNL     1      42.189 -15.901   6.111  1.00  0.00     0.117 A 
HETATM   14  N   UNL     1      41.643 -14.716   5.757  1.00  0.00    -0.266 NA
ENDBRANCH   8   9
ENDBRANCH   7   8
ENDBRANCH   4   7
ENDBRANCH   2   3
ENDBRANCH   1   2
BRANCH   1  15
HETATM   15  C   UNL     1      42.091 -14.900   1.522  1.00  0.00    -0.021 C 
HETATM   16  C   UNL     1      42.688 -16.215   1.591  1.00  0.00    -0.001 A 
HETATM   17  C   UNL     1      43.584 -16.216   2.653  1.00  0.00     0.043 A 
HETATM   18  C   UNL     1      42.432 -17.435   0.941  1.00  0.00     0.015 A 
HETATM   19  C   UNL     1      44.139 -17.395   3.184  1.00  0.00     0.044 A 
HETATM   20  N   UNL     1      43.717 -14.911   3.060  1.00  0.00    -0.365 N 
HETATM   21  C   UNL     1      43.784 -18.635   2.613  1.00  0.00    -0.005 A 
HETATM   22  C   UNL     1      42.977 -18.616   1.461  1.00  0.00     0.015 A 
HETATM   23  H   UNL     1      44.267 -14.610   3.853  1.00  0.00     0.165 HD
HETATM   24  C   UNL     1      42.867 -14.103   2.345  1.00  0.00     0.097 C 
BRANCH  21  25
HETATM   25  C   UNL     1      44.166 -19.934   3.225  1.00  0.00     0.066 A 
HETATM   26  N   UNL     1      44.103 -21.005   2.389  1.00  0.00    -0.260 NA
HETATM   27  C   UNL     1      44.365 -22.231   2.889  1.00  0.00     0.117 A 
HETATM   28  C   UNL     1      44.693 -22.465   4.209  1.00  0.00     0.019 A 
HETATM   29  C   UNL     1      44.768 -21.373   5.063  1.00  0.00     0.004 A 
HETATM   30  C   UNL     1      44.506 -20.094   4.569  1.00  0.00     0.032 A 
ENDBRANCH  21  25
ENDBRANCH   1  15
BRANCH   1  31
HETATM   31  C   UNL     1      41.006 -14.400  -0.730  1.00  0.00    -0.047 A 
HETATM   32  C   UNL     1      40.083 -14.994  -1.616  1.00  0.00     0.043 A 
HETATM   33  C   UNL     1      40.092 -14.673  -2.984  1.00  0.00     0.103 A 
HETATM   34  C   UNL     1      41.041 -13.788  -3.503  1.00  0.00     0.036 A 
HETATM   35  C   UNL     1      41.961 -13.198  -2.641  1.00  0.00     0.003 A 
HETATM   36  C   UNL     1      41.923 -13.483  -1.271  1.00  0.00     0.008 A 
BRANCH  33  37
HETATM   37  N   UNL     1      39.056 -15.222  -3.866  1.00  0.00    -0.116 N 
HETATM   38  O   UNL     1      39.378 -16.139  -4.636  1.00  0.00    -0.532 OA
HETATM   39  O   UNL     1      37.913 -14.748  -3.782  1.00  0.00    -0.532 OA
ENDBRANCH  33  37
ENDBRANCH   1  31
TORSDOF 9
ENDMDL
MODEL 10
REMARK VINA RESULT:      -8.0      4.850      7.048
REMARK  9 active torsions:
REMARK  status: ('A' for Active; 'I' for Inactive)
REMARK    1  A    between atoms: C_3  and  C_4 
REMARK    2  A    between atoms: C_4  and  C_5 
REMARK    3  A    between atoms: C_5  and  N_6 
REMARK       I    between atoms: N_6  and  C_7 
REMARK    4  A    between atoms: C_7  and  C_8 
REMARK    5  A    between atoms: C_8  and  C_9 
REMARK    6  A    between atoms: C_9  and  C_10 
REMARK    7  A    between atoms: C_9  and  C_26 
REMARK    8  A    between atoms: C_14  and  C_15 
REMARK    9  A    between atoms: C_28  and  N_29 
ROOT
HETATM    1  C   UNL     1      41.689 -13.209   6.311  1.00  0.00     0.062 C 
ENDROOT
BRANCH   1   2
HETATM    2  C   UNL     1      43.226 -13.131   6.174  1.00  0.00     0.116 C 
BRANCH   2   3
HETATM    3  C   UNL     1      44.002 -13.285   7.473  1.00  0.00     0.218 C 
HETATM    4  N   UNL     1      43.888 -12.229   8.346  1.00  0.00    -0.361 N 
HETATM    5  H   UNL     1      43.291 -11.446   8.101  1.00  0.00     0.162 HD
HETATM    6  O   UNL     1      44.699 -14.271   7.703  1.00  0.00    -0.274 OA
BRANCH   4   7
HETATM    7  C   UNL     1      44.601 -12.153   9.606  1.00  0.00     0.128 C 
BRANCH   7   8
HETATM    8  C   UNL     1      44.252 -10.910  10.431  1.00  0.00     0.079 C 
BRANCH   8   9
HETATM    9  C   UNL     1      43.047 -10.968  11.340  1.00  0.00     0.035 A 
HETATM   10  C   UNL     1      43.134 -10.787  12.718  1.00  0.00     0.027 A 
HETATM   11  C   UNL     1      41.965 -10.763  13.477  1.00  0.00     0.003 A 
HETATM   12  C   UNL     1      40.737 -10.899  12.847  1.00  0.00     0.019 A 
HETATM   13  C   UNL     1      40.728 -11.059  11.475  1.00  0.00     0.117 A 
HETATM   14  N   UNL     1      41.845 -11.107  10.714  1.00  0.00    -0.266 NA
ENDBRANCH   8   9
ENDBRANCH   7   8
ENDBRANCH   4   7
ENDBRANCH   2   3
ENDBRANCH   1   2
BRANCH   1  15
HETATM   15  C   UNL     1      41.052 -14.245   5.402  1.00  0.00    -0.021 C 
HETATM   16  C   UNL     1      41.539 -15.601   5.290  1.00  0.00    -0.001 A 
HETATM   17  C   UNL     1      41.019 -16.141   4.120  1.00  0.00     0.043 A 
HETATM   18  C   UNL     1      42.492 -16.354   5.998  1.00  0.00     0.015 A 
HETATM   19  C   UNL     1      41.495 -17.336   3.551  1.00  0.00     0.044 A 
HETATM   20  N   UNL     1      40.068 -15.259   3.666  1.00  0.00    -0.365 N 
HETATM   21  C   UNL     1      42.541 -18.030   4.194  1.00  0.00    -0.005 A 
HETATM   22  C   UNL     1      42.976 -17.546   5.442  1.00  0.00     0.015 A 
HETATM   23  H   UNL     1      39.556 -15.362   2.801  1.00  0.00     0.165 HD
HETATM   24  C   UNL     1      40.039 -14.143   4.466  1.00  0.00     0.097 C 
BRANCH  21  25
HETATM   25  C   UNL     1      43.233 -19.188   3.571  1.00  0.00     0.066 A 
HETATM   26  N   UNL     1      44.162 -19.795   4.357  1.00  0.00    -0.260 NA
HETATM   27  C   UNL     1      44.885 -20.809   3.837  1.00  0.00     0.117 A 
HETATM   28  C   UNL     1      44.739 -21.269   2.544  1.00  0.00     0.019 A 
HETATM   29  C   UNL     1      43.784 -20.658   1.742  1.00  0.00     0.004 A 
HETATM   30  C   UNL     1      43.020 -19.610   2.258  1.00  0.00     0.032 A 
ENDBRANCH  21  25
ENDBRANCH   1  15
BRANCH   1  31
HETATM   31  C   UNL     1      41.074 -11.817   6.183  1.00  0.00    -0.047 A 
HETATM   32  C   UNL     1      40.216 -11.373   7.210  1.00  0.00     0.043 A 
HETATM   33  C   UNL     1      39.782 -10.037   7.255  1.00  0.00     0.103 A 
HETATM   34  C   UNL     1      40.159  -9.130   6.261  1.00  0.00     0.036 A 
HETATM   35  C   UNL     1      41.001  -9.557   5.238  1.00  0.00     0.003 A 
HETATM   36  C   UNL     1      41.471 -10.875   5.219  1.00  0.00     0.008 A 
BRANCH  33  37
HETATM   37  N   UNL     1      38.976  -9.573   8.390  1.00  0.00    -0.116 N 
HETATM   38  O   UNL     1      38.315 -10.417   9.013  1.00  0.00    -0.532 OA
HETATM   39  O   UNL     1      39.011  -8.366   8.670  1.00  0.00    -0.532 OA
ENDBRANCH  33  37
ENDBRANCH   1  31
TORSDOF 9
ENDMDL
