MODEL 1
REMARK VINA RESULT:      -9.3      0.000      0.000
REMARK  8 active torsions:
REMARK  status: ('A' for Active; 'I' for Inactive)
REMARK    1  A    between atoms: C_4  and  O_5 
REMARK    2  A    between atoms: O_5  and  C_6 
REMARK    3  A    between atoms: C_8  and  C_9 
REMARK    4  A    between atoms: C_9  and  N_10 
REMARK    5  A    between atoms: C_9  and  C_14 
REMARK       I    between atoms: N_10  and  C_11 
REMARK       I    between atoms: C_11  and  N_12 
REMARK    6  A    between atoms: C_14  and  C_15 
REMARK       I    between atoms: C_15  and  N_16 
REMARK    7  A    between atoms: N_16  and  N_17 
REMARK       I    between atoms: N_17  and  C_18 
REMARK    8  A    between atoms: C_18  and  C_19 
ROOT
HETATM    1  C   UNL     1      43.165 -15.217   5.782  1.00  0.00     0.127 C 
ENDROOT
BRANCH   1   2
HETATM    2  C   UNL     1      43.494 -16.617   6.268  1.00  0.00    -0.032 A 
HETATM    3  C   UNL     1      44.261 -17.448   5.431  1.00  0.00     0.046 A 
HETATM    4  C   UNL     1      44.593 -18.749   5.813  1.00  0.00     0.076 A 
HETATM    5  C   UNL     1      44.193 -19.231   7.059  1.00  0.00     0.037 A 
HETATM    6  C   UNL     1      43.409 -18.429   7.888  1.00  0.00     0.003 A 
HETATM    7  C   UNL     1      43.049 -17.137   7.492  1.00  0.00     0.009 A 
BRANCH   4   8
HETATM    8  O   UNL     1      45.388 -19.455   4.942  1.00  0.00    -0.311 OA
BRANCH   8   9
HETATM    9  C   UNL     1      44.790 -20.174   3.932  1.00  0.00     0.076 A 
HETATM   10  C   UNL     1      44.188 -19.587   2.817  1.00  0.00     0.037 A 
HETATM   11  C   UNL     1      43.643 -20.395   1.817  1.00  0.00     0.003 A 
HETATM   12  C   UNL     1      43.721 -21.784   1.920  1.00  0.00     0.000 A 
HETATM   13  C   UNL     1      44.349 -22.369   3.020  1.00  0.00     0.003 A 
HETATM   14  C   UNL     1      44.889 -21.563   4.022  1.00  0.00     0.037 A 
ENDBRANCH   8   9
ENDBRANCH   4   8
ENDBRANCH   1   2
BRANCH   1  15
HETATM   15  N   UNL     1      41.795 -14.911   6.180  1.00  0.00    -0.339 N 
HETATM   16  C   UNL     1      40.745 -15.146   5.349  1.00  0.00     0.292 C 
HETATM   17  N   UNL     1      39.566 -14.736   5.876  1.00  0.00    -0.254 NA
HETATM   18  O   UNL     1      40.818 -15.669   4.248  1.00  0.00    -0.254 OA
HETATM   19  H   UNL     1      39.446 -14.863   6.871  1.00  0.00     0.128 HD
HETATM   20  H   UNL     1      38.766 -15.012   5.320  1.00  0.00     0.128 HD
HETATM   21  H   UNL     1      41.660 -14.196   6.881  1.00  0.00     0.164 HD
ENDBRANCH   1  15
BRANCH   1  22
HETATM   22  C   UNL     1      44.121 -14.100   6.218  1.00  0.00     0.134 C 
BRANCH  22  23
HETATM   23  C   UNL     1      43.540 -13.042   7.132  1.00  0.00     0.238 C 
HETATM   24  N   UNL     1      44.144 -12.874   8.361  1.00  0.00    -0.267 N 
HETATM   25  H   UNL     1      44.642 -13.634   8.822  1.00  0.00     0.190 HD
HETATM   26  O   UNL     1      42.628 -12.305   6.748  1.00  0.00    -0.272 OA
BRANCH  24  27
HETATM   27  N   UNL     1      43.519 -11.970   9.244  1.00  0.00    -0.262 N 
HETATM   28  C   UNL     1      44.264 -10.918   9.749  1.00  0.00     0.293 C 
HETATM   29  O   UNL     1      45.351 -10.603   9.264  1.00  0.00    -0.264 OA
HETATM   30  H   UNL     1      42.766 -12.350   9.820  1.00  0.00     0.190 HD
BRANCH  28  31
HETATM   31  C   UNL     1      43.653 -10.253  10.879  1.00  0.00     0.144 A 
HETATM   32  O   UNL     1      42.545  -9.470  10.680  1.00  0.00    -0.317 OA
HETATM   33  C   UNL     1      42.187  -8.962  11.887  1.00  0.00     0.143 A 
HETATM   34  C   UNL     1      43.040  -9.409  12.869  1.00  0.00     0.027 A 
HETATM   35  C   UNL     1      43.985 -10.241  12.222  1.00  0.00     0.045 A 
ENDBRANCH  28  31
ENDBRANCH  24  27
ENDBRANCH  22  23
ENDBRANCH   1  22
TORSDOF 8
ENDMDL
MODEL 2
REMARK VINA RESULT:      -9.2      4.174      7.231
REMARK  8 active torsions:
REMARK  status: ('A' for Active; 'I' for Inactive)
REMARK    1  A    between atoms: C_4  and  O_5 
REMARK    2  A    between atoms: O_5  and  C_6 
REMARK    3  A    between atoms: C_8  and  C_9 
REMARK    4  A    between atoms: C_9  and  N_10 
REMARK    5  A    between atoms: C_9  and  C_14 
REMARK       I    between atoms: N_10  and  C_11 
REMARK       I    between atoms: C_11  and  N_12 
REMARK    6  A    between atoms: C_14  and  C_15 
REMARK       I    between atoms: C_15  and  N_16 
REMARK    7  A    between atoms: N_16  and  N_17 
REMARK       I    between atoms: N_17  and  C_18 
REMARK    8  A    between atoms: C_18  and  C_19 
ROOT
HETATM    1  C   UNL     1      42.110 -15.430   5.095  1.00  0.00     0.127 C 
ENDROOT
BRANCH   1   2
HETATM    2  C   UNL     1      42.780 -16.583   5.822  1.00  0.00    -0.032 A 
HETATM    3  C   UNL     1      43.674 -17.394   5.100  1.00  0.00     0.046 A 
HETATM    4  C   UNL     1      44.319 -18.474   5.706  1.00  0.00     0.076 A 
HETATM    5  C   UNL     1      44.107 -18.740   7.058  1.00  0.00     0.037 A 
HETATM    6  C   UNL     1      43.202 -17.962   7.780  1.00  0.00     0.003 A 
HETATM    7  C   UNL     1      42.533 -16.900   7.165  1.00  0.00     0.009 A 
BRANCH   4   8
HETATM    8  O   UNL     1      45.209 -19.169   4.923  1.00  0.00    -0.311 OA
BRANCH   8   9
HETATM    9  C   UNL     1      44.721 -20.039   3.975  1.00  0.00     0.076 A 
HETATM   10  C   UNL     1      44.159 -19.628   2.764  1.00  0.00     0.037 A 
HETATM   11  C   UNL     1      43.728 -20.582   1.840  1.00  0.00     0.003 A 
HETATM   12  C   UNL     1      43.881 -21.942   2.115  1.00  0.00     0.000 A 
HETATM   13  C   UNL     1      44.470 -22.351   3.312  1.00  0.00     0.003 A 
HETATM   14  C   UNL     1      44.895 -21.399   4.238  1.00  0.00     0.037 A 
ENDBRANCH   8   9
ENDBRANCH   4   8
ENDBRANCH   1   2
BRANCH   1  15
HETATM   15  N   UNL     1      41.417 -14.613   6.084  1.00  0.00    -0.339 N 
HETATM   16  C   UNL     1      40.191 -14.082   5.832  1.00  0.00     0.292 C 
HETATM   17  N   UNL     1      39.745 -13.305   6.849  1.00  0.00    -0.254 NA
HETATM   18  O   UNL     1      39.535 -14.265   4.819  1.00  0.00    -0.254 OA
HETATM   19  H   UNL     1      39.967 -13.612   7.785  1.00  0.00     0.128 HD
HETATM   20  H   UNL     1      38.787 -13.000   6.725  1.00  0.00     0.128 HD
HETATM   21  H   UNL     1      41.979 -14.136   6.773  1.00  0.00     0.164 HD
ENDBRANCH   1  15
BRANCH   1  22
HETATM   22  C   UNL     1      43.013 -14.564   4.209  1.00  0.00     0.134 C 
BRANCH  22  23
HETATM   23  C   UNL     1      42.445 -14.166   2.863  1.00  0.00     0.238 C 
HETATM   24  N   UNL     1      41.350 -14.873   2.410  1.00  0.00    -0.267 N 
HETATM   25  H   UNL     1      41.176 -15.835   2.699  1.00  0.00     0.190 HD
HETATM   26  O   UNL     1      42.889 -13.192   2.250  1.00  0.00    -0.272 OA
BRANCH  24  27
HETATM   27  N   UNL     1      40.908 -14.570   1.106  1.00  0.00    -0.262 N 
HETATM   28  C   UNL     1      41.191 -15.466   0.089  1.00  0.00     0.293 C 
HETATM   29  O   UNL     1      41.577 -16.612   0.323  1.00  0.00    -0.264 OA
HETATM   30  H   UNL     1      40.839 -13.578   0.872  1.00  0.00     0.190 HD
BRANCH  28  31
HETATM   31  C   UNL     1      40.998 -14.928  -1.240  1.00  0.00     0.144 A 
HETATM   32  O   UNL     1      40.790 -13.581  -1.397  1.00  0.00    -0.317 OA
HETATM   33  C   UNL     1      40.630 -13.349  -2.725  1.00  0.00     0.143 A 
HETATM   34  C   UNL     1      40.738 -14.521  -3.434  1.00  0.00     0.027 A 
HETATM   35  C   UNL     1      40.976 -15.540  -2.480  1.00  0.00     0.045 A 
ENDBRANCH  28  31
ENDBRANCH  24  27
ENDBRANCH  22  23
ENDBRANCH   1  22
TORSDOF 8
ENDMDL
MODEL 3
REMARK VINA RESULT:      -9.0      2.043      2.967
REMARK  8 active torsions:
REMARK  status: ('A' for Active; 'I' for Inactive)
REMARK    1  A    between atoms: C_4  and  O_5 
REMARK    2  A    between atoms: O_5  and  C_6 
REMARK    3  A    between atoms: C_8  and  C_9 
REMARK    4  A    between atoms: C_9  and  N_10 
REMARK    5  A    between atoms: C_9  and  C_14 
REMARK       I    between atoms: N_10  and  C_11 
REMARK       I    between atoms: C_11  and  N_12 
REMARK    6  A    between atoms: C_14  and  C_15 
REMARK       I    between atoms: C_15  and  N_16 
REMARK    7  A    between atoms: N_16  and  N_17 
REMARK       I    between atoms: N_17  and  C_18 
REMARK    8  A    between atoms: C_18  and  C_19 
ROOT
HETATM    1  C   UNL     1      42.970 -16.355   6.138  1.00  0.00     0.127 C 
ENDROOT
BRANCH   1   2
HETATM    2  C   UNL     1      42.487 -16.701   4.741  1.00  0.00    -0.032 A 
HETATM    3  C   UNL     1      43.321 -17.485   3.924  1.00  0.00     0.046 A 
HETATM    4  C   UNL     1      42.941 -17.833   2.626  1.00  0.00     0.076 A 
HETATM    5  C   UNL     1      41.699 -17.432   2.135  1.00  0.00     0.037 A 
HETATM    6  C   UNL     1      40.872 -16.631   2.923  1.00  0.00     0.003 A 
HETATM    7  C   UNL     1      41.267 -16.256   4.211  1.00  0.00     0.009 A 
BRANCH   4   8
HETATM    8  O   UNL     1      43.809 -18.643   1.934  1.00  0.00    -0.311 OA
BRANCH   8   9
HETATM    9  C   UNL     1      44.116 -19.881   2.450  1.00  0.00     0.076 A 
HETATM   10  C   UNL     1      44.638 -20.076   3.731  1.00  0.00     0.037 A 
HETATM   11  C   UNL     1      44.880 -21.373   4.191  1.00  0.00     0.003 A 
HETATM   12  C   UNL     1      44.579 -22.470   3.382  1.00  0.00     0.000 A 
HETATM   13  C   UNL     1      44.030 -22.274   2.115  1.00  0.00     0.003 A 
HETATM   14  C   UNL     1      43.793 -20.979   1.652  1.00  0.00     0.037 A 
ENDBRANCH   8   9
ENDBRANCH   4   8
ENDBRANCH   1   2
BRANCH   1  15
HETATM   15  N   UNL     1      43.327 -17.596   6.814  1.00  0.00    -0.339 N 
HETATM   16  C   UNL     1      43.581 -17.630   8.149  1.00  0.00     0.292 C 
HETATM   17  N   UNL     1      43.957 -18.861   8.574  1.00  0.00    -0.254 NA
HETATM   18  O   UNL     1      43.489 -16.681   8.911  1.00  0.00    -0.254 OA
HETATM   19  H   UNL     1      43.499 -19.649   8.139  1.00  0.00     0.128 HD
HETATM   20  H   UNL     1      44.034 -18.926   9.581  1.00  0.00     0.128 HD
HETATM   21  H   UNL     1      43.751 -18.326   6.259  1.00  0.00     0.164 HD
ENDBRANCH   1  15
BRANCH   1  22
HETATM   22  C   UNL     1      44.111 -15.334   6.233  1.00  0.00     0.134 C 
BRANCH  22  23
HETATM   23  C   UNL     1      43.757 -13.991   6.835  1.00  0.00     0.238 C 
HETATM   24  N   UNL     1      44.393 -13.642   8.008  1.00  0.00    -0.267 N 
HETATM   25  H   UNL     1      44.735 -14.345   8.662  1.00  0.00     0.190 HD
HETATM   26  O   UNL     1      43.005 -13.211   6.245  1.00  0.00    -0.272 OA
BRANCH  24  27
HETATM   27  N   UNL     1      43.965 -12.444   8.616  1.00  0.00    -0.262 N 
HETATM   28  C   UNL     1      44.442 -12.138   9.880  1.00  0.00     0.293 C 
HETATM   29  O   UNL     1      45.404 -12.731  10.370  1.00  0.00    -0.264 OA
HETATM   30  H   UNL     1      43.033 -12.115   8.358  1.00  0.00     0.190 HD
BRANCH  28  31
HETATM   31  C   UNL     1      43.709 -11.085  10.547  1.00  0.00     0.144 A 
HETATM   32  O   UNL     1      42.483 -10.708  10.061  1.00  0.00    -0.317 OA
HETATM   33  C   UNL     1      42.025  -9.706  10.855  1.00  0.00     0.143 A 
HETATM   34  C   UNL     1      42.929  -9.433  11.854  1.00  0.00     0.027 A 
HETATM   35  C   UNL     1      44.014 -10.320  11.658  1.00  0.00     0.045 A 
ENDBRANCH  28  31
ENDBRANCH  24  27
ENDBRANCH  22  23
ENDBRANCH   1  22
TORSDOF 8
ENDMDL
MODEL 4
REMARK VINA RESULT:      -8.9      2.122      2.483
REMARK  8 active torsions:
REMARK  status: ('A' for Active; 'I' for Inactive)
REMARK    1  A    between atoms: C_4  and  O_5 
REMARK    2  A    between atoms: O_5  and  C_6 
REMARK    3  A    between atoms: C_8  and  C_9 
REMARK    4  A    between atoms: C_9  and  N_10 
REMARK    5  A    between atoms: C_9  and  C_14 
REMARK       I    between atoms: N_10  and  C_11 
REMARK       I    between atoms: C_11  and  N_12 
REMARK    6  A    between atoms: C_14  and  C_15 
REMARK       I    between atoms: C_15  and  N_16 
REMARK    7  A    between atoms: N_16  and  N_17 
REMARK       I    between atoms: N_17  and  C_18 
REMARK    8  A    between atoms: C_18  and  C_19 
ROOT
HETATM    1  C   UNL     1      44.040 -14.160   6.567  1.00  0.00     0.127 C 
ENDROOT
BRANCH   1   2
HETATM    2  C   UNL     1      43.855 -15.662   6.694  1.00  0.00    -0.032 A 
HETATM    3  C   UNL     1      43.996 -16.449   5.537  1.00  0.00     0.046 A 
HETATM    4  C   UNL     1      43.832 -17.835   5.582  1.00  0.00     0.076 A 
HETATM    5  C   UNL     1      43.558 -18.463   6.796  1.00  0.00     0.037 A 
HETATM    6  C   UNL     1      43.388 -17.693   7.947  1.00  0.00     0.003 A 
HETATM    7  C   UNL     1      43.521 -16.302   7.896  1.00  0.00     0.009 A 
BRANCH   4   8
HETATM    8  O   UNL     1      44.042 -18.512   4.404  1.00  0.00    -0.311 OA
BRANCH   8   9
HETATM    9  C   UNL     1      43.367 -18.106   3.276  1.00  0.00     0.076 A 
HETATM   10  C   UNL     1      42.006 -17.793   3.260  1.00  0.00     0.037 A 
HETATM   11  C   UNL     1      41.411 -17.347   2.078  1.00  0.00     0.003 A 
HETATM   12  C   UNL     1      42.179 -17.190   0.923  1.00  0.00     0.000 A 
HETATM   13  C   UNL     1      43.544 -17.473   0.949  1.00  0.00     0.003 A 
HETATM   14  C   UNL     1      44.139 -17.925   2.127  1.00  0.00     0.037 A 
ENDBRANCH   8   9
ENDBRANCH   4   8
ENDBRANCH   1   2
BRANCH   1  15
HETATM   15  N   UNL     1      42.719 -13.546   6.496  1.00  0.00    -0.339 N 
HETATM   16  C   UNL     1      42.248 -13.007   5.341  1.00  0.00     0.292 C 
HETATM   17  N   UNL     1      41.031 -12.431   5.496  1.00  0.00    -0.254 NA
HETATM   18  O   UNL     1      42.825 -13.024   4.265  1.00  0.00    -0.254 OA
HETATM   19  H   UNL     1      40.388 -12.893   6.123  1.00  0.00     0.128 HD
HETATM   20  H   UNL     1      40.619 -12.131   4.621  1.00  0.00     0.128 HD
HETATM   21  H   UNL     1      42.325 -13.184   7.353  1.00  0.00     0.164 HD
ENDBRANCH   1  15
BRANCH   1  22
HETATM   22  C   UNL     1      44.898 -13.484   7.644  1.00  0.00     0.134 C 
BRANCH  22  23
HETATM   23  C   UNL     1      44.168 -12.566   8.601  1.00  0.00     0.238 C 
HETATM   24  N   UNL     1      44.135 -12.941   9.928  1.00  0.00    -0.267 N 
HETATM   25  H   UNL     1      44.199 -13.918  10.211  1.00  0.00     0.190 HD
HETATM   26  O   UNL     1      43.707 -11.488   8.218  1.00  0.00    -0.272 OA
BRANCH  24  27
HETATM   27  N   UNL     1      43.352 -12.139  10.783  1.00  0.00    -0.262 N 
HETATM   28  C   UNL     1      43.978 -11.134  11.502  1.00  0.00     0.293 C 
HETATM   29  O   UNL     1      45.118 -10.757  11.231  1.00  0.00    -0.264 OA
HETATM   30  H   UNL     1      42.529 -12.585  11.191  1.00  0.00     0.190 HD
BRANCH  28  31
HETATM   31  C   UNL     1      43.176 -10.594  12.579  1.00  0.00     0.144 A 
HETATM   32  O   UNL     1      41.953 -11.152  12.851  1.00  0.00    -0.317 OA
HETATM   33  C   UNL     1      41.414 -10.456  13.886  1.00  0.00     0.143 A 
HETATM   34  C   UNL     1      42.271  -9.463  14.295  1.00  0.00     0.027 A 
HETATM   35  C   UNL     1      43.407  -9.550  13.455  1.00  0.00     0.045 A 
ENDBRANCH  28  31
ENDBRANCH  24  27
ENDBRANCH  22  23
ENDBRANCH   1  22
TORSDOF 8
ENDMDL
MODEL 5
REMARK VINA RESULT:      -8.6      4.179      7.647
REMARK  8 active torsions:
REMARK  status: ('A' for Active; 'I' for Inactive)
REMARK    1  A    between atoms: C_4  and  O_5 
REMARK    2  A    between atoms: O_5  and  C_6 
REMARK    3  A    between atoms: C_8  and  C_9 
REMARK    4  A    between atoms: C_9  and  N_10 
REMARK    5  A    between atoms: C_9  and  C_14 
REMARK       I    between atoms: N_10  and  C_11 
REMARK       I    between atoms: C_11  and  N_12 
REMARK    6  A    between atoms: C_14  and  C_15 
REMARK       I    between atoms: C_15  and  N_16 
REMARK    7  A    between atoms: N_16  and  N_17 
REMARK       I    between atoms: N_17  and  C_18 
REMARK    8  A    between atoms: C_18  and  C_19 
ROOT
HETATM    1  C   UNL     1      41.748 -16.026   4.911  1.00  0.00     0.127 C 
ENDROOT
BRANCH   1   2
HETATM    2  C   UNL     1      42.627 -16.900   5.788  1.00  0.00    -0.032 A 
HETATM    3  C   UNL     1      43.636 -17.660   5.170  1.00  0.00     0.046 A 
HETATM    4  C   UNL     1      44.475 -18.489   5.917  1.00  0.00     0.076 A 
HETATM    5  C   UNL     1      44.341 -18.546   7.304  1.00  0.00     0.037 A 
HETATM    6  C   UNL     1      43.327 -17.819   7.928  1.00  0.00     0.003 A 
HETATM    7  C   UNL     1      42.467 -17.013   7.177  1.00  0.00     0.009 A 
BRANCH   4   8
HETATM    8  O   UNL     1      45.459 -19.148   5.219  1.00  0.00    -0.311 OA
BRANCH   8   9
HETATM    9  C   UNL     1      45.125 -20.277   4.507  1.00  0.00     0.076 A 
HETATM   10  C   UNL     1      44.972 -21.539   5.086  1.00  0.00     0.037 A 
HETATM   11  C   UNL     1      44.588 -22.623   4.293  1.00  0.00     0.003 A 
HETATM   12  C   UNL     1      44.335 -22.442   2.933  1.00  0.00     0.000 A 
HETATM   13  C   UNL     1      44.458 -21.174   2.363  1.00  0.00     0.003 A 
HETATM   14  C   UNL     1      44.848 -20.092   3.151  1.00  0.00     0.037 A 
ENDBRANCH   8   9
ENDBRANCH   4   8
ENDBRANCH   1   2
BRANCH   1  15
HETATM   15  N   UNL     1      42.616 -15.193   4.087  1.00  0.00    -0.339 N 
HETATM   16  C   UNL     1      42.943 -13.927   4.456  1.00  0.00     0.292 C 
HETATM   17  N   UNL     1      43.705 -13.298   3.528  1.00  0.00    -0.254 NA
HETATM   18  O   UNL     1      42.611 -13.385   5.498  1.00  0.00    -0.254 OA
HETATM   19  H   UNL     1      44.388 -13.863   3.045  1.00  0.00     0.128 HD
HETATM   20  H   UNL     1      44.052 -12.400   3.842  1.00  0.00     0.128 HD
HETATM   21  H   UNL     1      42.659 -15.397   3.099  1.00  0.00     0.164 HD
ENDBRANCH   1  15
BRANCH   1  22
HETATM   22  C   UNL     1      40.708 -16.752   4.048  1.00  0.00     0.134 C 
BRANCH  22  23
HETATM   23  C   UNL     1      40.836 -16.565   2.551  1.00  0.00     0.238 C 
HETATM   24  N   UNL     1      40.041 -15.599   1.969  1.00  0.00    -0.267 N 
HETATM   25  H   UNL     1      39.149 -15.322   2.376  1.00  0.00     0.190 HD
HETATM   26  O   UNL     1      41.683 -17.186   1.905  1.00  0.00    -0.272 OA
BRANCH  24  27
HETATM   27  N   UNL     1      40.086 -15.520   0.562  1.00  0.00    -0.262 N 
HETATM   28  C   UNL     1      40.809 -14.491  -0.019  1.00  0.00     0.293 C 
HETATM   29  O   UNL     1      41.607 -13.815   0.630  1.00  0.00    -0.264 OA
HETATM   30  H   UNL     1      39.270 -15.879   0.064  1.00  0.00     0.190 HD
BRANCH  28  31
HETATM   31  C   UNL     1      40.530 -14.297  -1.425  1.00  0.00     0.144 A 
HETATM   32  O   UNL     1      41.572 -14.122  -2.300  1.00  0.00    -0.317 OA
HETATM   33  C   UNL     1      41.037 -13.951  -3.536  1.00  0.00     0.143 A 
HETATM   34  C   UNL     1      39.665 -14.020  -3.479  1.00  0.00     0.027 A 
HETATM   35  C   UNL     1      39.337 -14.243  -2.121  1.00  0.00     0.045 A 
ENDBRANCH  28  31
ENDBRANCH  24  27
ENDBRANCH  22  23
ENDBRANCH   1  22
TORSDOF 8
ENDMDL
MODEL 6
REMARK VINA RESULT:      -8.4      2.333      2.967
REMARK  8 active torsions:
REMARK  status: ('A' for Active; 'I' for Inactive)
REMARK    1  A    between atoms: C_4  and  O_5 
REMARK    2  A    between atoms: O_5  and  C_6 
REMARK    3  A    between atoms: C_8  and  C_9 
REMARK    4  A    between atoms: C_9  and  N_10 
REMARK    5  A    between atoms: C_9  and  C_14 
REMARK       I    between atoms: N_10  and  C_11 
REMARK       I    between atoms: C_11  and  N_12 
REMARK    6  A    between atoms: C_14  and  C_15 
REMARK       I    between atoms: C_15  and  N_16 
REMARK    7  A    between atoms: N_16  and  N_17 
REMARK       I    between atoms: N_17  and  C_18 
REMARK    8  A    between atoms: C_18  and  C_19 
ROOT
HETATM    1  C   UNL     1      42.115 -14.492   2.962  1.00  0.00     0.127 C 
ENDROOT
BRANCH   1   2
HETATM    2  C   UNL     1      42.108 -15.725   3.848  1.00  0.00    -0.032 A 
HETATM    3  C   UNL     1      43.217 -16.589   3.795  1.00  0.00     0.046 A 
HETATM    4  C   UNL     1      43.271 -17.743   4.577  1.00  0.00     0.076 A 
HETATM    5  C   UNL     1      42.229 -18.037   5.456  1.00  0.00     0.037 A 
HETATM    6  C   UNL     1      41.110 -17.205   5.501  1.00  0.00     0.003 A 
HETATM    7  C   UNL     1      41.042 -16.065   4.694  1.00  0.00     0.009 A 
BRANCH   4   8
HETATM    8  O   UNL     1      44.422 -18.489   4.485  1.00  0.00    -0.311 OA
BRANCH   8   9
HETATM    9  C   UNL     1      44.365 -19.726   3.886  1.00  0.00     0.076 A 
HETATM   10  C   UNL     1      44.024 -19.921   2.545  1.00  0.00     0.037 A 
HETATM   11  C   UNL     1      44.034 -21.210   2.008  1.00  0.00     0.003 A 
HETATM   12  C   UNL     1      44.406 -22.296   2.800  1.00  0.00     0.000 A 
HETATM   13  C   UNL     1      44.776 -22.096   4.130  1.00  0.00     0.003 A 
HETATM   14  C   UNL     1      44.761 -20.810   4.671  1.00  0.00     0.037 A 
ENDBRANCH   8   9
ENDBRANCH   4   8
ENDBRANCH   1   2
BRANCH   1  15
HETATM   15  N   UNL     1      40.982 -14.585   2.049  1.00  0.00    -0.339 N 
HETATM   16  C   UNL     1      41.112 -15.128   0.810  1.00  0.00     0.292 C 
HETATM   17  N   UNL     1      39.964 -15.065   0.093  1.00  0.00    -0.254 NA
HETATM   18  O   UNL     1      42.131 -15.629   0.361  1.00  0.00    -0.254 OA
HETATM   19  H   UNL     1      39.104 -15.201   0.603  1.00  0.00     0.128 HD
HETATM   20  H   UNL     1      40.015 -15.569  -0.784  1.00  0.00     0.128 HD
HETATM   21  H   UNL     1      40.227 -13.926   2.172  1.00  0.00     0.164 HD
ENDBRANCH   1  15
BRANCH   1  22
HETATM   22  C   UNL     1      42.127 -13.136   3.679  1.00  0.00     0.134 C 
BRANCH  22  23
HETATM   23  C   UNL     1      42.839 -13.094   5.015  1.00  0.00     0.238 C 
HETATM   24  N   UNL     1      42.095 -12.706   6.111  1.00  0.00    -0.267 N 
HETATM   25  H   UNL     1      41.286 -12.094   6.019  1.00  0.00     0.190 HD
HETATM   26  O   UNL     1      44.005 -13.482   5.124  1.00  0.00    -0.272 OA
BRANCH  24  27
HETATM   27  N   UNL     1      42.801 -12.558   7.322  1.00  0.00    -0.262 N 
HETATM   28  C   UNL     1      42.639 -11.386   8.041  1.00  0.00     0.293 C 
HETATM   29  O   UNL     1      41.725 -10.598   7.798  1.00  0.00    -0.264 OA
HETATM   30  H   UNL     1      43.697 -13.045   7.385  1.00  0.00     0.190 HD
BRANCH  28  31
HETATM   31  C   UNL     1      43.633 -11.186   9.073  1.00  0.00     0.144 A 
HETATM   32  O   UNL     1      44.964 -11.212   8.739  1.00  0.00    -0.317 OA
HETATM   33  C   UNL     1      45.670 -11.013   9.882  1.00  0.00     0.143 A 
HETATM   34  C   UNL     1      44.820 -10.851  10.950  1.00  0.00     0.027 A 
HETATM   35  C   UNL     1      43.508 -10.962  10.432  1.00  0.00     0.045 A 
ENDBRANCH  28  31
ENDBRANCH  24  27
ENDBRANCH  22  23
ENDBRANCH   1  22
TORSDOF 8
ENDMDL
MODEL 7
REMARK VINA RESULT:      -8.4      2.132      2.767
REMARK  8 active torsions:
REMARK  status: ('A' for Active; 'I' for Inactive)
REMARK    1  A    between atoms: C_4  and  O_5 
REMARK    2  A    between atoms: O_5  and  C_6 
REMARK    3  A    between atoms: C_8  and  C_9 
REMARK    4  A    between atoms: C_9  and  N_10 
REMARK    5  A    between atoms: C_9  and  C_14 
REMARK       I    between atoms: N_10  and  C_11 
REMARK       I    between atoms: C_11  and  N_12 
REMARK    6  A    between atoms: C_14  and  C_15 
REMARK       I    between atoms: C_15  and  N_16 
REMARK    7  A    between atoms: N_16  and  N_17 
REMARK       I    between atoms: N_17  and  C_18 
REMARK    8  A    between atoms: C_18  and  C_19 
ROOT
HETATM    1  C   UNL     1      42.181 -13.026   5.308  1.00  0.00     0.127 C 
ENDROOT
BRANCH   1   2
HETATM    2  C   UNL     1      41.993 -14.525   5.458  1.00  0.00    -0.032 A 
HETATM    3  C   UNL     1      43.085 -15.364   5.172  1.00  0.00     0.046 A 
HETATM    4  C   UNL     1      42.979 -16.751   5.282  1.00  0.00     0.076 A 
HETATM    5  C   UNL     1      41.784 -17.324   5.716  1.00  0.00     0.037 A 
HETATM    6  C   UNL     1      40.683 -16.507   5.978  1.00  0.00     0.003 A 
HETATM    7  C   UNL     1      40.781 -15.120   5.837  1.00  0.00     0.009 A 
BRANCH   4   8
HETATM    8  O   UNL     1      44.121 -17.473   5.027  1.00  0.00    -0.311 OA
BRANCH   8   9
HETATM    9  C   UNL     1      44.085 -18.453   4.063  1.00  0.00     0.076 A 
HETATM   10  C   UNL     1      44.471 -19.776   4.291  1.00  0.00     0.037 A 
HETATM   11  C   UNL     1      44.361 -20.717   3.264  1.00  0.00     0.003 A 
HETATM   12  C   UNL     1      43.845 -20.342   2.023  1.00  0.00     0.000 A 
HETATM   13  C   UNL     1      43.432 -19.027   1.807  1.00  0.00     0.003 A 
HETATM   14  C   UNL     1      43.546 -18.085   2.829  1.00  0.00     0.037 A 
ENDBRANCH   8   9
ENDBRANCH   4   8
ENDBRANCH   1   2
BRANCH   1  15
HETATM   15  N   UNL     1      42.697 -12.766   3.969  1.00  0.00    -0.339 N 
HETATM   16  C   UNL     1      41.895 -12.838   2.874  1.00  0.00     0.292 C 
HETATM   17  N   UNL     1      42.575 -12.626   1.720  1.00  0.00    -0.254 NA
HETATM   18  O   UNL     1      40.696 -13.063   2.889  1.00  0.00    -0.254 OA
HETATM   19  H   UNL     1      43.310 -11.935   1.749  1.00  0.00     0.128 HD
HETATM   20  H   UNL     1      41.971 -12.561   0.910  1.00  0.00     0.128 HD
HETATM   21  H   UNL     1      43.684 -12.909   3.813  1.00  0.00     0.164 HD
ENDBRANCH   1  15
BRANCH   1  22
HETATM   22  C   UNL     1      40.955 -12.152   5.599  1.00  0.00     0.134 C 
BRANCH  22  23
HETATM   23  C   UNL     1      40.868 -11.566   6.993  1.00  0.00     0.238 C 
HETATM   24  N   UNL     1      42.052 -11.415   7.685  1.00  0.00    -0.267 N 
HETATM   25  H   UNL     1      42.859 -12.010   7.503  1.00  0.00     0.190 HD
HETATM   26  O   UNL     1      39.795 -11.157   7.443  1.00  0.00    -0.272 OA
BRANCH  24  27
HETATM   27  N   UNL     1      41.942 -10.980   9.021  1.00  0.00    -0.262 N 
HETATM   28  C   UNL     1      43.104 -10.766   9.744  1.00  0.00     0.293 C 
HETATM   29  O   UNL     1      44.203 -10.694   9.196  1.00  0.00    -0.264 OA
HETATM   30  H   UNL     1      41.106 -11.281   9.526  1.00  0.00     0.190 HD
BRANCH  28  31
HETATM   31  C   UNL     1      42.896 -10.648  11.171  1.00  0.00     0.144 A 
HETATM   32  O   UNL     1      41.746 -11.149  11.727  1.00  0.00    -0.317 OA
HETATM   33  C   UNL     1      41.800 -10.898  13.060  1.00  0.00     0.143 A 
HETATM   34  C   UNL     1      42.969 -10.250  13.380  1.00  0.00     0.027 A 
HETATM   35  C   UNL     1      43.677 -10.088  12.165  1.00  0.00     0.045 A 
ENDBRANCH  28  31
ENDBRANCH  24  27
ENDBRANCH  22  23
ENDBRANCH   1  22
TORSDOF 8
ENDMDL
MODEL 8
REMARK VINA RESULT:      -8.3      2.171      4.003
REMARK  8 active torsions:
REMARK  status: ('A' for Active; 'I' for Inactive)
REMARK    1  A    between atoms: C_4  and  O_5 
REMARK    2  A    between atoms: O_5  and  C_6 
REMARK    3  A    between atoms: C_8  and  C_9 
REMARK    4  A    between atoms: C_9  and  N_10 
REMARK    5  A    between atoms: C_9  and  C_14 
REMARK       I    between atoms: N_10  and  C_11 
REMARK       I    between atoms: C_11  and  N_12 
REMARK    6  A    between atoms: C_14  and  C_15 
REMARK       I    between atoms: C_15  and  N_16 
REMARK    7  A    between atoms: N_16  and  N_17 
REMARK       I    between atoms: N_17  and  C_18 
REMARK    8  A    between atoms: C_18  and  C_19 
ROOT
HETATM    1  C   UNL     1      41.485 -15.968   3.481  1.00  0.00     0.127 C 
ENDROOT
BRANCH   1   2
HETATM    2  C   UNL     1      42.439 -16.987   2.883  1.00  0.00    -0.032 A 
HETATM    3  C   UNL     1      43.049 -17.914   3.747  1.00  0.00     0.046 A 
HETATM    4  C   UNL     1      43.941 -18.872   3.264  1.00  0.00     0.076 A 
HETATM    5  C   UNL     1      44.213 -18.943   1.898  1.00  0.00     0.037 A 
HETATM    6  C   UNL     1      43.637 -18.013   1.032  1.00  0.00     0.003 A 
HETATM    7  C   UNL     1      42.768 -17.033   1.521  1.00  0.00     0.009 A 
BRANCH   4   8
HETATM    8  O   UNL     1      44.440 -19.760   4.187  1.00  0.00    -0.311 OA
BRANCH   8   9
HETATM    9  C   UNL     1      44.470 -19.393   5.513  1.00  0.00     0.076 A 
HETATM   10  C   UNL     1      45.090 -18.231   5.979  1.00  0.00     0.037 A 
HETATM   11  C   UNL     1      45.034 -17.913   7.338  1.00  0.00     0.003 A 
HETATM   12  C   UNL     1      44.340 -18.740   8.222  1.00  0.00     0.000 A 
HETATM   13  C   UNL     1      43.696 -19.884   7.750  1.00  0.00     0.003 A 
HETATM   14  C   UNL     1      43.756 -20.206   6.394  1.00  0.00     0.037 A 
ENDBRANCH   8   9
ENDBRANCH   4   8
ENDBRANCH   1   2
BRANCH   1  15
HETATM   15  N   UNL     1      40.196 -16.108   2.813  1.00  0.00    -0.339 N 
HETATM   16  C   UNL     1      39.575 -15.044   2.238  1.00  0.00     0.292 C 
HETATM   17  N   UNL     1      38.362 -15.366   1.727  1.00  0.00    -0.254 NA
HETATM   18  O   UNL     1      40.029 -13.913   2.169  1.00  0.00    -0.254 OA
HETATM   19  H   UNL     1      38.280 -16.276   1.297  1.00  0.00     0.128 HD
HETATM   20  H   UNL     1      37.943 -14.613   1.195  1.00  0.00     0.128 HD
HETATM   21  H   UNL     1      39.602 -16.873   3.099  1.00  0.00     0.164 HD
ENDBRANCH   1  15
BRANCH   1  22
HETATM   22  C   UNL     1      41.316 -16.003   5.005  1.00  0.00     0.134 C 
BRANCH  22  23
HETATM   23  C   UNL     1      41.658 -14.726   5.744  1.00  0.00     0.238 C 
HETATM   24  N   UNL     1      42.992 -14.490   6.003  1.00  0.00    -0.267 N 
HETATM   25  H   UNL     1      43.663 -15.251   6.098  1.00  0.00     0.190 HD
HETATM   26  O   UNL     1      40.786 -13.897   6.014  1.00  0.00    -0.272 OA
BRANCH  24  27
HETATM   27  N   UNL     1      43.283 -13.359   6.794  1.00  0.00    -0.262 N 
HETATM   28  C   UNL     1      44.428 -13.375   7.572  1.00  0.00     0.293 C 
HETATM   29  O   UNL     1      45.315 -14.212   7.403  1.00  0.00    -0.264 OA
HETATM   30  H   UNL     1      42.479 -12.823   7.126  1.00  0.00     0.190 HD
BRANCH  28  31
HETATM   31  C   UNL     1      44.469 -12.338   8.580  1.00  0.00     0.144 A 
HETATM   32  O   UNL     1      45.668 -12.011   9.161  1.00  0.00    -0.317 OA
HETATM   33  C   UNL     1      45.423 -11.031  10.068  1.00  0.00     0.143 A 
HETATM   34  C   UNL     1      44.087 -10.710  10.080  1.00  0.00     0.027 A 
HETATM   35  C   UNL     1      43.470 -11.550   9.122  1.00  0.00     0.045 A 
ENDBRANCH  28  31
ENDBRANCH  24  27
ENDBRANCH  22  23
ENDBRANCH   1  22
TORSDOF 8
ENDMDL
MODEL 9
REMARK VINA RESULT:      -8.3      3.775      7.411
REMARK  8 active torsions:
REMARK  status: ('A' for Active; 'I' for Inactive)
REMARK    1  A    between atoms: C_4  and  O_5 
REMARK    2  A    between atoms: O_5  and  C_6 
REMARK    3  A    between atoms: C_8  and  C_9 
REMARK    4  A    between atoms: C_9  and  N_10 
REMARK    5  A    between atoms: C_9  and  C_14 
REMARK       I    between atoms: N_10  and  C_11 
REMARK       I    between atoms: C_11  and  N_12 
REMARK    6  A    between atoms: C_14  and  C_15 
REMARK       I    between atoms: C_15  and  N_16 
REMARK    7  A    between atoms: N_16  and  N_17 
REMARK       I    between atoms: N_17  and  C_18 
REMARK    8  A    between atoms: C_18  and  C_19 
ROOT
HETATM    1  C   UNL     1      41.419 -13.432   5.454  1.00  0.00     0.127 C 
ENDROOT
BRANCH   1   2
HETATM    2  C   UNL     1      42.459 -14.459   5.865  1.00  0.00    -0.032 A 
HETATM    3  C   UNL     1      42.155 -15.821   5.687  1.00  0.00     0.046 A 
HETATM    4  C   UNL     1      43.063 -16.817   6.050  1.00  0.00     0.076 A 
HETATM    5  C   UNL     1      44.310 -16.465   6.567  1.00  0.00     0.037 A 
HETATM    6  C   UNL     1      44.615 -15.120   6.775  1.00  0.00     0.003 A 
HETATM    7  C   UNL     1      43.693 -14.124   6.440  1.00  0.00     0.009 A 
BRANCH   4   8
HETATM    8  O   UNL     1      42.685 -18.111   5.787  1.00  0.00    -0.311 OA
BRANCH   8   9
HETATM    9  C   UNL     1      43.363 -18.817   4.819  1.00  0.00     0.076 A 
HETATM   10  C   UNL     1      44.341 -19.773   5.102  1.00  0.00     0.037 A 
HETATM   11  C   UNL     1      44.949 -20.473   4.058  1.00  0.00     0.003 A 
HETATM   12  C   UNL     1      44.562 -20.236   2.738  1.00  0.00     0.000 A 
HETATM   13  C   UNL     1      43.563 -19.303   2.459  1.00  0.00     0.003 A 
HETATM   14  C   UNL     1      42.960 -18.598   3.501  1.00  0.00     0.037 A 
ENDBRANCH   8   9
ENDBRANCH   4   8
ENDBRANCH   1   2
BRANCH   1  15
HETATM   15  N   UNL     1      40.849 -12.855   6.666  1.00  0.00    -0.339 N 
HETATM   16  C   UNL     1      39.551 -12.454   6.718  1.00  0.00     0.292 C 
HETATM   17  N   UNL     1      39.232 -11.888   7.908  1.00  0.00    -0.254 NA
HETATM   18  O   UNL     1      38.736 -12.575   5.818  1.00  0.00    -0.254 OA
HETATM   19  H   UNL     1      39.656 -12.293   8.730  1.00  0.00     0.128 HD
HETATM   20  H   UNL     1      38.242 -11.693   8.002  1.00  0.00     0.128 HD
HETATM   21  H   UNL     1      41.482 -12.410   7.315  1.00  0.00     0.164 HD
ENDBRANCH   1  15
BRANCH   1  22
HETATM   22  C   UNL     1      41.888 -12.330   4.495  1.00  0.00     0.134 C 
BRANCH  22  23
HETATM   23  C   UNL     1      41.871 -12.677   3.021  1.00  0.00     0.238 C 
HETATM   24  N   UNL     1      40.717 -12.392   2.322  1.00  0.00    -0.267 N 
HETATM   25  H   UNL     1      39.807 -12.358   2.781  1.00  0.00     0.190 HD
HETATM   26  O   UNL     1      42.883 -13.106   2.460  1.00  0.00    -0.272 OA
BRANCH  24  27
HETATM   27  N   UNL     1      40.675 -12.828   0.983  1.00  0.00    -0.262 N 
HETATM   28  C   UNL     1      39.886 -13.923   0.669  1.00  0.00     0.293 C 
HETATM   29  O   UNL     1      39.040 -14.356   1.451  1.00  0.00    -0.264 OA
HETATM   30  H   UNL     1      41.517 -12.664   0.428  1.00  0.00     0.190 HD
BRANCH  28  31
HETATM   31  C   UNL     1      40.160 -14.491  -0.633  1.00  0.00     0.144 A 
HETATM   32  O   UNL     1      39.385 -14.124  -1.704  1.00  0.00    -0.317 OA
HETATM   33  C   UNL     1      39.843 -14.805  -2.785  1.00  0.00     0.143 A 
HETATM   34  C   UNL     1      40.907 -15.603  -2.436  1.00  0.00     0.027 A 
HETATM   35  C   UNL     1      41.113 -15.402  -1.051  1.00  0.00     0.045 A 
ENDBRANCH  28  31
ENDBRANCH  24  27
ENDBRANCH  22  23
ENDBRANCH   1  22
TORSDOF 8
ENDMDL
MODEL 10
REMARK VINA RESULT:      -8.2      3.173      4.673
REMARK  8 active torsions:
REMARK  status: ('A' for Active; 'I' for Inactive)
REMARK    1  A    between atoms: C_4  and  O_5 
REMARK    2  A    between atoms: O_5  and  C_6 
REMARK    3  A    between atoms: C_8  and  C_9 
REMARK    4  A    between atoms: C_9  and  N_10 
REMARK    5  A    between atoms: C_9  and  C_14 
REMARK       I    between atoms: N_10  and  C_11 
REMARK       I    between atoms: C_11  and  N_12 
REMARK    6  A    between atoms: C_14  and  C_15 
REMARK       I    between atoms: C_15  and  N_16 
REMARK    7  A    between atoms: N_16  and  N_17 
REMARK       I    between atoms: N_17  and  C_18 
REMARK    8  A    between atoms: C_18  and  C_19 
ROOT
HETATM    1  C   UNL     1      41.367 -16.037   3.478  1.00  0.00     0.127 C 
ENDROOT
BRANCH   1   2
HETATM    2  C   UNL     1      42.378 -16.986   2.857  1.00  0.00    -0.032 A 
HETATM    3  C   UNL     1      43.005 -17.929   3.691  1.00  0.00     0.046 A 
HETATM    4  C   UNL     1      43.948 -18.825   3.185  1.00  0.00     0.076 A 
HETATM    5  C   UNL     1      44.255 -18.818   1.825  1.00  0.00     0.037 A 
HETATM    6  C   UNL     1      43.661 -17.871   0.990  1.00  0.00     0.003 A 
HETATM    7  C   UNL     1      42.741 -16.952   1.503  1.00  0.00     0.009 A 
BRANCH   4   8
HETATM    8  O   UNL     1      44.462 -19.736   4.077  1.00  0.00    -0.311 OA
BRANCH   8   9
HETATM    9  C   UNL     1      44.472 -19.421   5.417  1.00  0.00     0.076 A 
HETATM   10  C   UNL     1      45.057 -18.262   5.933  1.00  0.00     0.037 A 
HETATM   11  C   UNL     1      44.982 -18.000   7.303  1.00  0.00     0.003 A 
HETATM   12  C   UNL     1      44.305 -18.879   8.149  1.00  0.00     0.000 A 
HETATM   13  C   UNL     1      43.695 -20.020   7.626  1.00  0.00     0.003 A 
HETATM   14  C   UNL     1      43.774 -20.287   6.259  1.00  0.00     0.037 A 
ENDBRANCH   8   9
ENDBRANCH   4   8
ENDBRANCH   1   2
BRANCH   1  15
HETATM   15  N   UNL     1      40.146 -16.092   2.682  1.00  0.00    -0.339 N 
HETATM   16  C   UNL     1      39.453 -14.966   2.368  1.00  0.00     0.292 C 
HETATM   17  N   UNL     1      38.317 -15.233   1.679  1.00  0.00    -0.254 NA
HETATM   18  O   UNL     1      39.787 -13.827   2.654  1.00  0.00    -0.254 OA
HETATM   19  H   UNL     1      38.360 -15.988   1.011  1.00  0.00     0.128 HD
HETATM   20  H   UNL     1      37.855 -14.399   1.338  1.00  0.00     0.128 HD
HETATM   21  H   UNL     1      39.620 -16.954   2.692  1.00  0.00     0.164 HD
ENDBRANCH   1  15
BRANCH   1  22
HETATM   22  C   UNL     1      41.059 -16.247   4.965  1.00  0.00     0.134 C 
BRANCH  22  23
HETATM   23  C   UNL     1      41.113 -15.012   5.839  1.00  0.00     0.238 C 
HETATM   24  N   UNL     1      39.908 -14.463   6.226  1.00  0.00    -0.267 N 
HETATM   25  H   UNL     1      39.064 -14.573   5.666  1.00  0.00     0.190 HD
HETATM   26  O   UNL     1      42.190 -14.579   6.258  1.00  0.00    -0.272 OA
BRANCH  24  27
HETATM   27  N   UNL     1      39.977 -13.248   6.939  1.00  0.00    -0.262 N 
HETATM   28  C   UNL     1      39.353 -12.133   6.404  1.00  0.00     0.293 C 
HETATM   29  O   UNL     1      38.542 -12.225   5.483  1.00  0.00    -0.264 OA
HETATM   30  H   UNL     1      40.811 -13.108   7.512  1.00  0.00     0.190 HD
BRANCH  28  31
HETATM   31  C   UNL     1      39.750 -10.885   7.019  1.00  0.00     0.144 A 
HETATM   32  O   UNL     1      38.873  -9.830   7.026  1.00  0.00    -0.317 OA
HETATM   33  C   UNL     1      39.494  -8.794   7.646  1.00  0.00     0.143 A 
HETATM   34  C   UNL     1      40.756  -9.161   8.049  1.00  0.00     0.027 A 
HETATM   35  C   UNL     1      40.923 -10.508   7.646  1.00  0.00     0.045 A 
ENDBRANCH  28  31
ENDBRANCH  24  27
ENDBRANCH  22  23
ENDBRANCH   1  22
TORSDOF 8
ENDMDL
