MODEL 1
REMARK VINA RESULT:      -8.7      0.000      0.000
REMARK  8 active torsions:
REMARK  status: ('A' for Active; 'I' for Inactive)
REMARK    1  A    between atoms: O_2  and  C_3 
REMARK    2  A    between atoms: C_3  and  C_4 
REMARK    3  A    between atoms: C_6  and  C_7 
REMARK    4  A    between atoms: C_7  and  N_8 
REMARK    5  A    between atoms: C_17  and  C_18 
REMARK    6  A    between atoms: C_18  and  N_19 
REMARK    7  A    between atoms: C_23  and  O_24 
REMARK    8  A    between atoms: C_23  and  C_25 
ROOT
HETATM    1  N   UNL     1      43.172 -15.979   7.277  1.00  0.00    -0.059 N 
HETATM    2  H   UNL     1      42.826 -15.584   8.165  1.00  0.00     0.280 HD
HETATM    3  C   UNL     1      42.030 -16.824   6.772  1.00  0.00     0.276 C 
HETATM    4  C   UNL     1      42.177 -17.289   5.351  1.00  0.00     0.002 A 
HETATM    5  C   UNL     1      43.234 -18.125   4.992  1.00  0.00     0.076 A 
HETATM    6  O   UNL     1      44.124 -18.574   5.928  1.00  0.00    -0.349 OA
HETATM    7  C   UNL     1      44.989 -17.534   6.403  1.00  0.00     0.203 C 
HETATM    8  C   UNL     1      44.397 -16.805   7.619  1.00  0.00     0.262 C 
HETATM    9  C   UNL     1      41.249 -16.911   4.362  1.00  0.00     0.020 A 
HETATM   10  C   UNL     1      41.370 -17.368   3.035  1.00  0.00    -0.032 A 
HETATM   11  C   UNL     1      42.447 -18.204   2.707  1.00  0.00     0.011 A 
HETATM   12  C   UNL     1      43.364 -18.595   3.687  1.00  0.00     0.038 A 
ENDROOT
BRANCH  10  13
HETATM   13  C   UNL     1      40.351 -16.959   1.996  1.00  0.00     0.273 C 
BRANCH  13  14
HETATM   14  N   UNL     1      40.633 -15.649   1.280  1.00  0.00    -0.067 N 
HETATM   15  H   UNL     1      41.227 -15.093   1.912  1.00  0.00     0.280 HD
HETATM   16  C   UNL     1      41.400 -15.821  -0.011  1.00  0.00     0.238 C 
HETATM   17  C   UNL     1      41.667 -14.458  -0.626  1.00  0.00     0.071 C 
HETATM   18  C   UNL     1      40.359 -13.713  -0.957  1.00  0.00     0.089 C 
HETATM   19  C   UNL     1      39.594 -13.559   0.372  1.00  0.00     0.071 C 
HETATM   20  C   UNL     1      39.342 -14.881   1.081  1.00  0.00     0.238 C 
BRANCH  18  21
HETATM   21  O   UNL     1      40.737 -12.393  -1.352  1.00  0.00    -0.385 OA
HETATM   22  H   UNL     1      40.374 -12.189  -2.235  1.00  0.00     0.211 HD
ENDBRANCH  18  21
BRANCH  18  23
HETATM   23  C   UNL     1      39.600 -14.357  -2.110  1.00  0.00    -0.006 A 
HETATM   24  C   UNL     1      40.199 -15.169  -3.069  1.00  0.00     0.126 A 
HETATM   25  N   UNL     1      39.566 -15.689  -4.143  1.00  0.00    -0.272 NA
HETATM   26  C   UNL     1      38.238 -15.473  -4.245  1.00  0.00     0.116 A 
HETATM   27  C   UNL     1      37.523 -14.738  -3.322  1.00  0.00     0.020 A 
HETATM   28  C   UNL     1      38.211 -14.180  -2.247  1.00  0.00     0.013 A 
ENDBRANCH  18  23
ENDBRANCH  13  14
ENDBRANCH  10  13
BRANCH   1  29
HETATM   29  C   UNL     1      43.485 -14.748   6.452  1.00  0.00     0.299 C 
BRANCH  29  30
HETATM   30  C   UNL     1      44.557 -13.890   7.012  1.00  0.00     0.079 A 
HETATM   31  O   UNL     1      44.273 -13.241   8.176  1.00  0.00    -0.316 OA
HETATM   32  C   UNL     1      45.401 -12.565   8.549  1.00  0.00     0.077 A 
HETATM   33  C   UNL     1      46.386 -12.746   7.601  1.00  0.00     0.037 A 
HETATM   34  C   UNL     1      45.843 -13.601   6.611  1.00  0.00     0.037 A 
BRANCH  32  35
HETATM   35  C   UNL     1      45.362 -11.820   9.838  1.00  0.00     0.231 C 
BRANCH  35  36
HETATM   36  O   UNL     1      44.900 -12.729  10.831  1.00  0.00    -0.390 OA
HETATM   37  C   UNL     1      43.826 -12.174  11.583  1.00  0.00     0.201 C 
ENDBRANCH  35  36
ENDBRANCH  32  35
ENDBRANCH  29  30
ENDBRANCH   1  29
TORSDOF 8
ENDMDL
MODEL 2
REMARK VINA RESULT:      -8.4      3.118      5.384
REMARK  8 active torsions:
REMARK  status: ('A' for Active; 'I' for Inactive)
REMARK    1  A    between atoms: O_2  and  C_3 
REMARK    2  A    between atoms: C_3  and  C_4 
REMARK    3  A    between atoms: C_6  and  C_7 
REMARK    4  A    between atoms: C_7  and  N_8 
REMARK    5  A    between atoms: C_17  and  C_18 
REMARK    6  A    between atoms: C_18  and  N_19 
REMARK    7  A    between atoms: C_23  and  O_24 
REMARK    8  A    between atoms: C_23  and  C_25 
ROOT
HETATM    1  N   UNL     1      42.842 -16.681   4.815  1.00  0.00    -0.059 N 
HETATM    2  H   UNL     1      43.785 -17.082   4.934  1.00  0.00     0.280 HD
HETATM    3  C   UNL     1      43.087 -15.212   4.580  1.00  0.00     0.276 C 
HETATM    4  C   UNL     1      41.886 -14.447   4.099  1.00  0.00     0.002 A 
HETATM    5  C   UNL     1      40.750 -14.347   4.902  1.00  0.00     0.076 A 
HETATM    6  O   UNL     1      40.724 -14.897   6.153  1.00  0.00    -0.349 OA
HETATM    7  C   UNL     1      40.684 -16.330   6.120  1.00  0.00     0.203 C 
HETATM    8  C   UNL     1      42.092 -16.944   6.107  1.00  0.00     0.262 C 
HETATM    9  C   UNL     1      41.886 -13.804   2.846  1.00  0.00     0.020 A 
HETATM   10  C   UNL     1      40.772 -13.064   2.406  1.00  0.00    -0.032 A 
HETATM   11  C   UNL     1      39.644 -12.987   3.236  1.00  0.00     0.011 A 
HETATM   12  C   UNL     1      39.643 -13.612   4.487  1.00  0.00     0.038 A 
ENDROOT
BRANCH  10  13
HETATM   13  C   UNL     1      40.804 -12.370   1.063  1.00  0.00     0.273 C 
BRANCH  13  14
HETATM   14  N   UNL     1      41.354 -13.195  -0.089  1.00  0.00    -0.067 N 
HETATM   15  H   UNL     1      42.345 -13.374   0.127  1.00  0.00     0.280 HD
HETATM   16  C   UNL     1      40.684 -14.541  -0.240  1.00  0.00     0.238 C 
HETATM   17  C   UNL     1      41.329 -15.302  -1.385  1.00  0.00     0.071 C 
HETATM   18  C   UNL     1      41.179 -14.554  -2.724  1.00  0.00     0.089 C 
HETATM   19  C   UNL     1      41.862 -13.185  -2.541  1.00  0.00     0.071 C 
HETATM   20  C   UNL     1      41.310 -12.387  -1.370  1.00  0.00     0.238 C 
BRANCH  18  21
HETATM   21  O   UNL     1      41.972 -15.269  -3.674  1.00  0.00    -0.385 OA
HETATM   22  H   UNL     1      41.464 -16.017  -4.043  1.00  0.00     0.211 HD
ENDBRANCH  18  21
BRANCH  18  23
HETATM   23  C   UNL     1      39.739 -14.537  -3.223  1.00  0.00    -0.006 A 
HETATM   24  C   UNL     1      39.107 -15.641  -3.790  1.00  0.00     0.126 A 
HETATM   25  N   UNL     1      37.860 -15.632  -4.309  1.00  0.00    -0.272 NA
HETATM   26  C   UNL     1      37.147 -14.493  -4.191  1.00  0.00     0.116 A 
HETATM   27  C   UNL     1      37.644 -13.354  -3.590  1.00  0.00     0.020 A 
HETATM   28  C   UNL     1      38.948 -13.381  -3.102  1.00  0.00     0.013 A 
ENDBRANCH  18  23
ENDBRANCH  13  14
ENDBRANCH  10  13
BRANCH   1  29
HETATM   29  C   UNL     1      42.291 -17.447   3.630  1.00  0.00     0.299 C 
BRANCH  29  30
HETATM   30  C   UNL     1      43.064 -18.660   3.269  1.00  0.00     0.079 A 
HETATM   31  O   UNL     1      43.894 -19.160   4.227  1.00  0.00    -0.316 OA
HETATM   32  C   UNL     1      44.457 -20.299   3.721  1.00  0.00     0.077 A 
HETATM   33  C   UNL     1      44.020 -20.498   2.428  1.00  0.00     0.037 A 
HETATM   34  C   UNL     1      43.121 -19.443   2.137  1.00  0.00     0.037 A 
BRANCH  32  35
HETATM   35  C   UNL     1      45.365 -21.072   4.612  1.00  0.00     0.231 C 
BRANCH  35  36
HETATM   36  O   UNL     1      44.558 -22.006   5.322  1.00  0.00    -0.390 OA
HETATM   37  C   UNL     1      43.990 -21.419   6.488  1.00  0.00     0.201 C 
ENDBRANCH  35  36
ENDBRANCH  32  35
ENDBRANCH  29  30
ENDBRANCH   1  29
TORSDOF 8
ENDMDL
MODEL 3
REMARK VINA RESULT:      -8.3      2.198      3.900
REMARK  8 active torsions:
REMARK  status: ('A' for Active; 'I' for Inactive)
REMARK    1  A    between atoms: O_2  and  C_3 
REMARK    2  A    between atoms: C_3  and  C_4 
REMARK    3  A    between atoms: C_6  and  C_7 
REMARK    4  A    between atoms: C_7  and  N_8 
REMARK    5  A    between atoms: C_17  and  C_18 
REMARK    6  A    between atoms: C_18  and  N_19 
REMARK    7  A    between atoms: C_23  and  O_24 
REMARK    8  A    between atoms: C_23  and  C_25 
ROOT
HETATM    1  N   UNL     1      42.980 -15.912   6.998  1.00  0.00    -0.059 N 
HETATM    2  H   UNL     1      42.561 -15.407   7.793  1.00  0.00     0.280 HD
HETATM    3  C   UNL     1      41.821 -16.638   6.362  1.00  0.00     0.276 C 
HETATM    4  C   UNL     1      42.118 -17.227   5.012  1.00  0.00     0.002 A 
HETATM    5  C   UNL     1      43.089 -18.219   4.878  1.00  0.00     0.076 A 
HETATM    6  O   UNL     1      43.751 -18.706   5.970  1.00  0.00    -0.349 OA
HETATM    7  C   UNL     1      44.672 -17.754   6.521  1.00  0.00     0.203 C 
HETATM    8  C   UNL     1      44.009 -16.862   7.581  1.00  0.00     0.262 C 
HETATM    9  C   UNL     1      41.416 -16.810   3.865  1.00  0.00     0.020 A 
HETATM   10  C   UNL     1      41.673 -17.381   2.604  1.00  0.00    -0.032 A 
HETATM   11  C   UNL     1      42.659 -18.373   2.503  1.00  0.00     0.011 A 
HETATM   12  C   UNL     1      43.350 -18.803   3.641  1.00  0.00     0.038 A 
ENDROOT
BRANCH  10  13
HETATM   13  C   UNL     1      40.894 -16.925   1.392  1.00  0.00     0.273 C 
BRANCH  13  14
HETATM   14  N   UNL     1      40.867 -15.424   1.155  1.00  0.00    -0.067 N 
HETATM   15  H   UNL     1      41.093 -15.281   0.161  1.00  0.00     0.280 HD
HETATM   16  C   UNL     1      39.512 -14.800   1.396  1.00  0.00     0.238 C 
HETATM   17  C   UNL     1      39.578 -13.314   1.094  1.00  0.00     0.071 C 
HETATM   18  C   UNL     1      40.591 -12.590   2.002  1.00  0.00     0.089 C 
HETATM   19  C   UNL     1      41.961 -13.249   1.745  1.00  0.00     0.071 C 
HETATM   20  C   UNL     1      41.957 -14.754   1.966  1.00  0.00     0.238 C 
BRANCH  18  21
HETATM   21  O   UNL     1      40.695 -11.254   1.505  1.00  0.00    -0.385 OA
HETATM   22  H   UNL     1      40.397 -10.618   2.184  1.00  0.00     0.211 HD
ENDBRANCH  18  21
BRANCH  18  23
HETATM   23  C   UNL     1      40.128 -12.524   3.452  1.00  0.00    -0.006 A 
HETATM   24  C   UNL     1      38.972 -11.864   3.863  1.00  0.00     0.126 A 
HETATM   25  N   UNL     1      38.581 -11.726   5.148  1.00  0.00    -0.272 NA
HETATM   26  C   UNL     1      39.319 -12.344   6.092  1.00  0.00     0.116 A 
HETATM   27  C   UNL     1      40.448 -13.081   5.800  1.00  0.00     0.020 A 
HETATM   28  C   UNL     1      40.851 -13.172   4.470  1.00  0.00     0.013 A 
ENDBRANCH  18  23
ENDBRANCH  13  14
ENDBRANCH  10  13
BRANCH   1  29
HETATM   29  C   UNL     1      43.587 -14.800   6.166  1.00  0.00     0.299 C 
BRANCH  29  30
HETATM   30  C   UNL     1      44.519 -13.917   6.909  1.00  0.00     0.079 A 
HETATM   31  O   UNL     1      44.011 -13.275   7.999  1.00  0.00    -0.316 OA
HETATM   32  C   UNL     1      45.037 -12.573   8.569  1.00  0.00     0.077 A 
HETATM   33  C   UNL     1      46.182 -12.731   7.817  1.00  0.00     0.037 A 
HETATM   34  C   UNL     1      45.849 -13.598   6.748  1.00  0.00     0.037 A 
BRANCH  32  35
HETATM   35  C   UNL     1      44.746 -11.829   9.825  1.00  0.00     0.231 C 
BRANCH  35  36
HETATM   36  O   UNL     1      44.586 -12.798  10.856  1.00  0.00    -0.390 OA
HETATM   37  C   UNL     1      43.768 -12.303  11.911  1.00  0.00     0.201 C 
ENDBRANCH  35  36
ENDBRANCH  32  35
ENDBRANCH  29  30
ENDBRANCH   1  29
TORSDOF 8
ENDMDL
MODEL 4
REMARK VINA RESULT:      -8.2      2.023      2.778
REMARK  8 active torsions:
REMARK  status: ('A' for Active; 'I' for Inactive)
REMARK    1  A    between atoms: O_2  and  C_3 
REMARK    2  A    between atoms: C_3  and  C_4 
REMARK    3  A    between atoms: C_6  and  C_7 
REMARK    4  A    between atoms: C_7  and  N_8 
REMARK    5  A    between atoms: C_17  and  C_18 
REMARK    6  A    between atoms: C_18  and  N_19 
REMARK    7  A    between atoms: C_23  and  O_24 
REMARK    8  A    between atoms: C_23  and  C_25 
ROOT
HETATM    1  N   UNL     1      42.454 -15.422   6.560  1.00  0.00    -0.059 N 
HETATM    2  H   UNL     1      42.399 -14.945   7.473  1.00  0.00     0.280 HD
HETATM    3  C   UNL     1      41.057 -15.325   6.000  1.00  0.00     0.276 C 
HETATM    4  C   UNL     1      40.937 -15.701   4.551  1.00  0.00     0.002 A 
HETATM    5  C   UNL     1      41.242 -16.997   4.135  1.00  0.00     0.076 A 
HETATM    6  O   UNL     1      41.607 -17.957   5.037  1.00  0.00    -0.349 OA
HETATM    7  C   UNL     1      42.915 -17.727   5.580  1.00  0.00     0.203 C 
HETATM    8  C   UNL     1      42.866 -16.854   6.844  1.00  0.00     0.262 C 
HETATM    9  C   UNL     1      40.499 -14.769   3.591  1.00  0.00     0.020 A 
HETATM   10  C   UNL     1      40.359 -15.128   2.236  1.00  0.00    -0.032 A 
HETATM   11  C   UNL     1      40.679 -16.438   1.851  1.00  0.00     0.011 A 
HETATM   12  C   UNL     1      41.100 -17.373   2.801  1.00  0.00     0.038 A 
ENDROOT
BRANCH  10  13
HETATM   13  C   UNL     1      39.872 -14.112   1.228  1.00  0.00     0.273 C 
BRANCH  13  14
HETATM   14  N   UNL     1      39.687 -14.629  -0.189  1.00  0.00    -0.067 N 
HETATM   15  H   UNL     1      39.277 -15.570  -0.105  1.00  0.00     0.280 HD
HETATM   16  C   UNL     1      38.730 -13.800  -1.013  1.00  0.00     0.238 C 
HETATM   17  C   UNL     1      38.581 -14.420  -2.391  1.00  0.00     0.071 C 
HETATM   18  C   UNL     1      39.925 -14.466  -3.145  1.00  0.00     0.089 C 
HETATM   19  C   UNL     1      40.884 -15.309  -2.281  1.00  0.00     0.071 C 
HETATM   20  C   UNL     1      41.036 -14.784  -0.862  1.00  0.00     0.238 C 
BRANCH  18  21
HETATM   21  O   UNL     1      39.693 -15.225  -4.334  1.00  0.00    -0.385 OA
HETATM   22  H   UNL     1      40.542 -15.456  -4.757  1.00  0.00     0.211 HD
ENDBRANCH  18  21
BRANCH  18  23
HETATM   23  C   UNL     1      40.412 -13.081  -3.551  1.00  0.00    -0.006 A 
HETATM   24  C   UNL     1      39.559 -12.029  -3.876  1.00  0.00     0.126 A 
HETATM   25  N   UNL     1      39.964 -10.816  -4.313  1.00  0.00    -0.272 NA
HETATM   26  C   UNL     1      41.291 -10.583  -4.355  1.00  0.00     0.116 A 
HETATM   27  C   UNL     1      42.232 -11.527  -3.995  1.00  0.00     0.020 A 
HETATM   28  C   UNL     1      41.786 -12.782  -3.589  1.00  0.00     0.013 A 
ENDBRANCH  18  23
ENDBRANCH  13  14
ENDBRANCH  10  13
BRANCH   1  29
HETATM   29  C   UNL     1      43.509 -14.626   5.819  1.00  0.00     0.299 C 
BRANCH  29  30
HETATM   30  C   UNL     1      44.419 -13.849   6.695  1.00  0.00     0.079 A 
HETATM   31  O   UNL     1      43.840 -13.166   7.723  1.00  0.00    -0.316 OA
HETATM   32  C   UNL     1      44.847 -12.577   8.436  1.00  0.00     0.077 A 
HETATM   33  C   UNL     1      46.060 -12.847   7.838  1.00  0.00     0.037 A 
HETATM   34  C   UNL     1      45.785 -13.668   6.717  1.00  0.00     0.037 A 
BRANCH  32  35
HETATM   35  C   UNL     1      44.470 -11.816   9.659  1.00  0.00     0.231 C 
BRANCH  35  36
HETATM   36  O   UNL     1      44.635 -12.697  10.766  1.00  0.00    -0.390 OA
HETATM   37  C   UNL     1      43.722 -12.389  11.814  1.00  0.00     0.201 C 
ENDBRANCH  35  36
ENDBRANCH  32  35
ENDBRANCH  29  30
ENDBRANCH   1  29
TORSDOF 8
ENDMDL
MODEL 5
REMARK VINA RESULT:      -8.2      4.684      7.777
REMARK  8 active torsions:
REMARK  status: ('A' for Active; 'I' for Inactive)
REMARK    1  A    between atoms: O_2  and  C_3 
REMARK    2  A    between atoms: C_3  and  C_4 
REMARK    3  A    between atoms: C_6  and  C_7 
REMARK    4  A    between atoms: C_7  and  N_8 
REMARK    5  A    between atoms: C_17  and  C_18 
REMARK    6  A    between atoms: C_18  and  N_19 
REMARK    7  A    between atoms: C_23  and  O_24 
REMARK    8  A    between atoms: C_23  and  C_25 
ROOT
HETATM    1  N   UNL     1      40.984  -8.953   8.725  1.00  0.00    -0.059 N 
HETATM    2  H   UNL     1      41.649  -8.319   9.194  1.00  0.00     0.280 HD
HETATM    3  C   UNL     1      41.570  -9.163   7.352  1.00  0.00     0.276 C 
HETATM    4  C   UNL     1      40.934 -10.273   6.563  1.00  0.00     0.002 A 
HETATM    5  C   UNL     1      39.586 -10.199   6.210  1.00  0.00     0.076 A 
HETATM    6  O   UNL     1      38.835  -9.102   6.529  1.00  0.00    -0.349 OA
HETATM    7  C   UNL     1      38.564  -9.016   7.935  1.00  0.00     0.203 C 
HETATM    8  C   UNL     1      39.651  -8.229   8.682  1.00  0.00     0.262 C 
HETATM    9  C   UNL     1      41.679 -11.393   6.150  1.00  0.00     0.020 A 
HETATM   10  C   UNL     1      41.092 -12.420   5.387  1.00  0.00    -0.032 A 
HETATM   11  C   UNL     1      39.733 -12.317   5.053  1.00  0.00     0.011 A 
HETATM   12  C   UNL     1      38.990 -11.201   5.448  1.00  0.00     0.038 A 
ENDROOT
BRANCH  10  13
HETATM   13  C   UNL     1      41.920 -13.605   4.944  1.00  0.00     0.273 C 
BRANCH  13  14
HETATM   14  N   UNL     1      42.119 -14.693   5.986  1.00  0.00    -0.067 N 
HETATM   15  H   UNL     1      41.784 -14.307   6.880  1.00  0.00     0.280 HD
HETATM   16  C   UNL     1      41.313 -15.942   5.713  1.00  0.00     0.238 C 
HETATM   17  C   UNL     1      41.546 -16.948   6.827  1.00  0.00     0.071 C 
HETATM   18  C   UNL     1      43.028 -17.362   6.922  1.00  0.00     0.089 C 
HETATM   19  C   UNL     1      43.828 -16.072   7.190  1.00  0.00     0.071 C 
HETATM   20  C   UNL     1      43.596 -14.990   6.147  1.00  0.00     0.238 C 
BRANCH  18  21
HETATM   21  O   UNL     1      43.149 -18.156   8.103  1.00  0.00    -0.385 OA
HETATM   22  H   UNL     1      43.392 -19.073   7.870  1.00  0.00     0.211 HD
ENDBRANCH  18  21
BRANCH  18  23
HETATM   23  C   UNL     1      43.473 -18.205   5.733  1.00  0.00    -0.006 A 
HETATM   24  C   UNL     1      42.832 -18.193   4.497  1.00  0.00     0.126 A 
HETATM   25  N   UNL     1      43.158 -18.986   3.453  1.00  0.00    -0.272 NA
HETATM   26  C   UNL     1      44.235 -19.784   3.592  1.00  0.00     0.116 A 
HETATM   27  C   UNL     1      44.989 -19.835   4.747  1.00  0.00     0.020 A 
HETATM   28  C   UNL     1      44.604 -19.037   5.822  1.00  0.00     0.013 A 
ENDBRANCH  18  23
ENDBRANCH  13  14
ENDBRANCH  10  13
BRANCH   1  29
HETATM   29  C   UNL     1      40.980 -10.173   9.624  1.00  0.00     0.299 C 
BRANCH  29  30
HETATM   30  C   UNL     1      42.185 -10.311  10.476  1.00  0.00     0.079 A 
HETATM   31  O   UNL     1      43.094 -11.254  10.097  1.00  0.00    -0.316 OA
HETATM   32  C   UNL     1      44.146 -11.175  10.968  1.00  0.00     0.077 A 
HETATM   33  C   UNL     1      43.886 -10.216  11.924  1.00  0.00     0.037 A 
HETATM   34  C   UNL     1      42.624  -9.658  11.607  1.00  0.00     0.037 A 
BRANCH  32  35
HETATM   35  C   UNL     1      45.309 -12.072  10.724  1.00  0.00     0.231 C 
BRANCH  35  36
HETATM   36  O   UNL     1      45.028 -12.805   9.535  1.00  0.00    -0.390 OA
HETATM   37  C   UNL     1      45.895 -12.421   8.473  1.00  0.00     0.201 C 
ENDBRANCH  35  36
ENDBRANCH  32  35
ENDBRANCH  29  30
ENDBRANCH   1  29
TORSDOF 8
ENDMDL
MODEL 6
REMARK VINA RESULT:      -8.1      3.307      9.398
REMARK  8 active torsions:
REMARK  status: ('A' for Active; 'I' for Inactive)
REMARK    1  A    between atoms: O_2  and  C_3 
REMARK    2  A    between atoms: C_3  and  C_4 
REMARK    3  A    between atoms: C_6  and  C_7 
REMARK    4  A    between atoms: C_7  and  N_8 
REMARK    5  A    between atoms: C_17  and  C_18 
REMARK    6  A    between atoms: C_18  and  N_19 
REMARK    7  A    between atoms: C_23  and  O_24 
REMARK    8  A    between atoms: C_23  and  C_25 
ROOT
HETATM    1  N   UNL     1      41.591 -16.715   1.276  1.00  0.00    -0.059 N 
HETATM    2  H   UNL     1      41.682 -17.733   1.137  1.00  0.00     0.280 HD
HETATM    3  C   UNL     1      40.391 -16.565   2.176  1.00  0.00     0.276 C 
HETATM    4  C   UNL     1      40.212 -15.191   2.756  1.00  0.00     0.002 A 
HETATM    5  C   UNL     1      39.985 -14.100   1.918  1.00  0.00     0.076 A 
HETATM    6  O   UNL     1      39.874 -14.264   0.565  1.00  0.00    -0.349 OA
HETATM    7  C   UNL     1      41.127 -14.591  -0.050  1.00  0.00     0.203 C 
HETATM    8  C   UNL     1      41.366 -16.108  -0.096  1.00  0.00     0.262 C 
HETATM    9  C   UNL     1      40.249 -14.977   4.147  1.00  0.00     0.020 A 
HETATM   10  C   UNL     1      40.053 -13.694   4.694  1.00  0.00    -0.032 A 
HETATM   11  C   UNL     1      39.832 -12.618   3.823  1.00  0.00     0.011 A 
HETATM   12  C   UNL     1      39.780 -12.825   2.441  1.00  0.00     0.038 A 
ENDROOT
BRANCH  10  13
HETATM   13  C   UNL     1      40.082 -13.496   6.192  1.00  0.00     0.273 C 
BRANCH  13  14
HETATM   14  N   UNL     1      40.141 -12.051   6.662  1.00  0.00    -0.067 N 
HETATM   15  H   UNL     1      39.660 -11.491   5.944  1.00  0.00     0.280 HD
HETATM   16  C   UNL     1      39.418 -11.812   7.968  1.00  0.00     0.238 C 
HETATM   17  C   UNL     1      39.498 -10.339   8.327  1.00  0.00     0.071 C 
HETATM   18  C   UNL     1      40.956  -9.873   8.510  1.00  0.00     0.089 C 
HETATM   19  C   UNL     1      41.672 -10.135   7.171  1.00  0.00     0.071 C 
HETATM   20  C   UNL     1      41.581 -11.582   6.711  1.00  0.00     0.238 C 
BRANCH  18  21
HETATM   21  O   UNL     1      40.908  -8.453   8.663  1.00  0.00    -0.385 OA
HETATM   22  H   UNL     1      41.477  -8.175   9.406  1.00  0.00     0.211 HD
ENDBRANCH  18  21
BRANCH  18  23
HETATM   23  C   UNL     1      41.603 -10.464   9.756  1.00  0.00    -0.006 A 
HETATM   24  C   UNL     1      40.892 -10.813  10.902  1.00  0.00     0.126 A 
HETATM   25  N   UNL     1      41.450 -11.267  12.046  1.00  0.00    -0.272 NA
HETATM   26  C   UNL     1      42.782 -11.476  12.047  1.00  0.00     0.116 A 
HETATM   27  C   UNL     1      43.583 -11.229  10.950  1.00  0.00     0.020 A 
HETATM   28  C   UNL     1      42.985 -10.722   9.798  1.00  0.00     0.013 A 
ENDBRANCH  18  23
ENDBRANCH  13  14
ENDBRANCH  10  13
BRANCH   1  29
HETATM   29  C   UNL     1      42.920 -16.332   1.895  1.00  0.00     0.299 C 
BRANCH  29  30
HETATM   30  C   UNL     1      43.341 -17.195   3.025  1.00  0.00     0.079 A 
HETATM   31  O   UNL     1      43.755 -18.455   2.709  1.00  0.00    -0.316 OA
HETATM   32  C   UNL     1      44.155 -19.053   3.872  1.00  0.00     0.077 A 
HETATM   33  C   UNL     1      43.953 -18.193   4.931  1.00  0.00     0.037 A 
HETATM   34  C   UNL     1      43.430 -16.995   4.386  1.00  0.00     0.037 A 
BRANCH  32  35
HETATM   35  C   UNL     1      44.714 -20.430   3.779  1.00  0.00     0.231 C 
BRANCH  35  36
HETATM   36  O   UNL     1      44.830 -20.923   5.110  1.00  0.00    -0.390 OA
HETATM   37  C   UNL     1      45.079 -22.325   5.124  1.00  0.00     0.201 C 
ENDBRANCH  35  36
ENDBRANCH  32  35
ENDBRANCH  29  30
ENDBRANCH   1  29
TORSDOF 8
ENDMDL
MODEL 7
REMARK VINA RESULT:      -8.0      4.071      8.331
REMARK  8 active torsions:
REMARK  status: ('A' for Active; 'I' for Inactive)
REMARK    1  A    between atoms: O_2  and  C_3 
REMARK    2  A    between atoms: C_3  and  C_4 
REMARK    3  A    between atoms: C_6  and  C_7 
REMARK    4  A    between atoms: C_7  and  N_8 
REMARK    5  A    between atoms: C_17  and  C_18 
REMARK    6  A    between atoms: C_18  and  N_19 
REMARK    7  A    between atoms: C_23  and  O_24 
REMARK    8  A    between atoms: C_23  and  C_25 
ROOT
HETATM    1  N   UNL     1      39.430 -10.485   2.025  1.00  0.00    -0.059 N 
HETATM    2  H   UNL     1      39.191 -10.286   1.042  1.00  0.00     0.280 HD
HETATM    3  C   UNL     1      38.777 -11.815   2.307  1.00  0.00     0.276 C 
HETATM    4  C   UNL     1      39.207 -12.463   3.593  1.00  0.00     0.002 A 
HETATM    5  C   UNL     1      38.951 -11.838   4.813  1.00  0.00     0.076 A 
HETATM    6  O   UNL     1      38.266 -10.656   4.867  1.00  0.00    -0.349 OA
HETATM    7  C   UNL     1      39.034  -9.555   4.362  1.00  0.00     0.203 C 
HETATM    8  C   UNL     1      38.835  -9.361   2.851  1.00  0.00     0.262 C 
HETATM    9  C   UNL     1      39.856 -13.712   3.598  1.00  0.00     0.020 A 
HETATM   10  C   UNL     1      40.235 -14.333   4.803  1.00  0.00    -0.032 A 
HETATM   11  C   UNL     1      39.967 -13.676   6.012  1.00  0.00     0.011 A 
HETATM   12  C   UNL     1      39.310 -12.441   6.016  1.00  0.00     0.038 A 
ENDROOT
BRANCH  10  13
HETATM   13  C   UNL     1      40.916 -15.683   4.780  1.00  0.00     0.273 C 
BRANCH  13  14
HETATM   14  N   UNL     1      41.667 -16.017   3.501  1.00  0.00    -0.067 N 
HETATM   15  H   UNL     1      41.507 -15.232   2.855  1.00  0.00     0.280 HD
HETATM   16  C   UNL     1      43.162 -16.135   3.693  1.00  0.00     0.238 C 
HETATM   17  C   UNL     1      43.822 -16.427   2.358  1.00  0.00     0.071 C 
HETATM   18  C   UNL     1      43.324 -17.754   1.752  1.00  0.00     0.089 C 
HETATM   19  C   UNL     1      41.800 -17.612   1.574  1.00  0.00     0.071 C 
HETATM   20  C   UNL     1      41.073 -17.256   2.862  1.00  0.00     0.238 C 
BRANCH  18  21
HETATM   21  O   UNL     1      43.872 -17.825   0.434  1.00  0.00    -0.385 OA
HETATM   22  H   UNL     1      44.239 -18.715   0.269  1.00  0.00     0.211 HD
ENDBRANCH  18  21
BRANCH  18  23
HETATM   23  C   UNL     1      43.809 -18.968   2.535  1.00  0.00    -0.006 A 
HETATM   24  C   UNL     1      44.285 -18.902   3.842  1.00  0.00     0.126 A 
HETATM   25  N   UNL     1      44.792 -19.948   4.531  1.00  0.00    -0.272 NA
HETATM   26  C   UNL     1      44.753 -21.159   3.938  1.00  0.00     0.116 A 
HETATM   27  C   UNL     1      44.244 -21.360   2.671  1.00  0.00     0.020 A 
HETATM   28  C   UNL     1      43.768 -20.255   1.969  1.00  0.00     0.013 A 
ENDBRANCH  18  23
ENDBRANCH  13  14
ENDBRANCH  10  13
BRANCH   1  29
HETATM   29  C   UNL     1      40.944 -10.493   2.017  1.00  0.00     0.299 C 
BRANCH  29  30
HETATM   30  C   UNL     1      41.549 -11.094   0.804  1.00  0.00     0.079 A 
HETATM   31  O   UNL     1      41.161 -12.364   0.495  1.00  0.00    -0.316 OA
HETATM   32  C   UNL     1      41.777 -12.702  -0.678  1.00  0.00     0.077 A 
HETATM   33  C   UNL     1      42.590 -11.667  -1.090  1.00  0.00     0.037 A 
HETATM   34  C   UNL     1      42.443 -10.631  -0.137  1.00  0.00     0.037 A 
BRANCH  32  35
HETATM   35  C   UNL     1      41.461 -14.035  -1.261  1.00  0.00     0.231 C 
BRANCH  35  36
HETATM   36  O   UNL     1      40.146 -14.376  -0.834  1.00  0.00    -0.390 OA
HETATM   37  C   UNL     1      39.173 -14.011  -1.807  1.00  0.00     0.201 C 
ENDBRANCH  35  36
ENDBRANCH  32  35
ENDBRANCH  29  30
ENDBRANCH   1  29
TORSDOF 8
ENDMDL
MODEL 8
REMARK VINA RESULT:      -8.0      2.807      3.857
REMARK  8 active torsions:
REMARK  status: ('A' for Active; 'I' for Inactive)
REMARK    1  A    between atoms: O_2  and  C_3 
REMARK    2  A    between atoms: C_3  and  C_4 
REMARK    3  A    between atoms: C_6  and  C_7 
REMARK    4  A    between atoms: C_7  and  N_8 
REMARK    5  A    between atoms: C_17  and  C_18 
REMARK    6  A    between atoms: C_18  and  N_19 
REMARK    7  A    between atoms: C_23  and  O_24 
REMARK    8  A    between atoms: C_23  and  C_25 
ROOT
HETATM    1  N   UNL     1      42.603 -17.531   6.172  1.00  0.00    -0.059 N 
HETATM    2  H   UNL     1      41.955 -17.456   6.971  1.00  0.00     0.280 HD
HETATM    3  C   UNL     1      41.759 -18.098   5.058  1.00  0.00     0.276 C 
HETATM    4  C   UNL     1      42.399 -18.045   3.700  1.00  0.00     0.002 A 
HETATM    5  C   UNL     1      43.578 -18.748   3.452  1.00  0.00     0.076 A 
HETATM    6  O   UNL     1      44.145 -19.532   4.417  1.00  0.00    -0.349 OA
HETATM    7  C   UNL     1      44.723 -18.761   5.479  1.00  0.00     0.203 C 
HETATM    8  C   UNL     1      43.710 -18.476   6.599  1.00  0.00     0.262 C 
HETATM    9  C   UNL     1      41.820 -17.307   2.650  1.00  0.00     0.020 A 
HETATM   10  C   UNL     1      42.404 -17.279   1.369  1.00  0.00    -0.032 A 
HETATM   11  C   UNL     1      43.592 -17.993   1.154  1.00  0.00     0.011 A 
HETATM   12  C   UNL     1      44.165 -18.739   2.188  1.00  0.00     0.038 A 
ENDROOT
BRANCH  10  13
HETATM   13  C   UNL     1      41.752 -16.490   0.255  1.00  0.00     0.273 C 
BRANCH  13  14
HETATM   14  N   UNL     1      41.027 -15.225   0.684  1.00  0.00    -0.067 N 
HETATM   15  H   UNL     1      40.331 -15.512   1.386  1.00  0.00     0.280 HD
HETATM   16  C   UNL     1      41.929 -14.208   1.343  1.00  0.00     0.238 C 
HETATM   17  C   UNL     1      41.106 -13.005   1.771  1.00  0.00     0.071 C 
HETATM   18  C   UNL     1      40.430 -12.318   0.568  1.00  0.00     0.089 C 
HETATM   19  C   UNL     1      39.525 -13.377  -0.091  1.00  0.00     0.071 C 
HETATM   20  C   UNL     1      40.269 -14.642  -0.491  1.00  0.00     0.238 C 
BRANCH  18  21
HETATM   21  O   UNL     1      39.553 -11.329   1.111  1.00  0.00    -0.385 OA
HETATM   22  H   UNL     1      40.064 -10.659   1.604  1.00  0.00     0.211 HD
ENDBRANCH  18  21
BRANCH  18  23
HETATM   23  C   UNL     1      41.433 -11.618  -0.341  1.00  0.00    -0.006 A 
HETATM   24  C   UNL     1      42.535 -10.907   0.131  1.00  0.00     0.126 A 
HETATM   25  N   UNL     1      43.395 -10.215  -0.648  1.00  0.00    -0.272 NA
HETATM   26  C   UNL     1      43.220 -10.288  -1.983  1.00  0.00     0.116 A 
HETATM   27  C   UNL     1      42.203 -11.013  -2.570  1.00  0.00     0.020 A 
HETATM   28  C   UNL     1      41.307 -11.683  -1.740  1.00  0.00     0.013 A 
ENDBRANCH  18  23
ENDBRANCH  13  14
ENDBRANCH  10  13
BRANCH   1  29
HETATM   29  C   UNL     1      43.070 -16.104   5.972  1.00  0.00     0.299 C 
BRANCH  29  30
HETATM   30  C   UNL     1      41.977 -15.107   5.885  1.00  0.00     0.079 A 
HETATM   31  O   UNL     1      42.351 -13.803   5.750  1.00  0.00    -0.316 OA
HETATM   32  C   UNL     1      41.207 -13.064   5.625  1.00  0.00     0.077 A 
HETATM   33  C   UNL     1      40.107 -13.890   5.728  1.00  0.00     0.037 A 
HETATM   34  C   UNL     1      40.603 -15.206   5.894  1.00  0.00     0.037 A 
BRANCH  32  35
HETATM   35  C   UNL     1      41.355 -11.600   5.400  1.00  0.00     0.231 C 
BRANCH  35  36
HETATM   36  O   UNL     1      40.866 -10.947   6.568  1.00  0.00    -0.390 OA
HETATM   37  C   UNL     1      41.876 -10.844   7.566  1.00  0.00     0.201 C 
ENDBRANCH  35  36
ENDBRANCH  32  35
ENDBRANCH  29  30
ENDBRANCH   1  29
TORSDOF 8
ENDMDL
MODEL 9
REMARK VINA RESULT:      -7.9      5.101      7.771
REMARK  8 active torsions:
REMARK  status: ('A' for Active; 'I' for Inactive)
REMARK    1  A    between atoms: O_2  and  C_3 
REMARK    2  A    between atoms: C_3  and  C_4 
REMARK    3  A    between atoms: C_6  and  C_7 
REMARK    4  A    between atoms: C_7  and  N_8 
REMARK    5  A    between atoms: C_17  and  C_18 
REMARK    6  A    between atoms: C_18  and  N_19 
REMARK    7  A    between atoms: C_23  and  O_24 
REMARK    8  A    between atoms: C_23  and  C_25 
ROOT
HETATM    1  N   UNL     1      41.513  -9.627   8.972  1.00  0.00    -0.059 N 
HETATM    2  H   UNL     1      42.142  -8.847   9.211  1.00  0.00     0.280 HD
HETATM    3  C   UNL     1      41.699  -9.817   7.487  1.00  0.00     0.276 C 
HETATM    4  C   UNL     1      41.099 -11.080   6.938  1.00  0.00     0.002 A 
HETATM    5  C   UNL     1      39.722 -11.291   7.008  1.00  0.00     0.076 A 
HETATM    6  O   UNL     1      38.891 -10.339   7.528  1.00  0.00    -0.349 OA
HETATM    7  C   UNL     1      39.033 -10.208   8.950  1.00  0.00     0.203 C 
HETATM    8  C   UNL     1      40.108  -9.177   9.326  1.00  0.00     0.262 C 
HETATM    9  C   UNL     1      41.903 -12.063   6.329  1.00  0.00     0.020 A 
HETATM   10  C   UNL     1      41.339 -13.235   5.789  1.00  0.00    -0.032 A 
HETATM   11  C   UNL     1      39.951 -13.418   5.880  1.00  0.00     0.011 A 
HETATM   12  C   UNL     1      39.146 -12.440   6.470  1.00  0.00     0.038 A 
ENDROOT
BRANCH  10  13
HETATM   13  C   UNL     1      42.223 -14.267   5.127  1.00  0.00     0.273 C 
BRANCH  13  14
HETATM   14  N   UNL     1      42.555 -15.486   5.972  1.00  0.00    -0.067 N 
HETATM   15  H   UNL     1      42.361 -15.226   6.950  1.00  0.00     0.280 HD
HETATM   16  C   UNL     1      41.697 -16.690   5.656  1.00  0.00     0.238 C 
HETATM   17  C   UNL     1      42.075 -17.836   6.577  1.00  0.00     0.071 C 
HETATM   18  C   UNL     1      43.548 -18.254   6.396  1.00  0.00     0.089 C 
HETATM   19  C   UNL     1      44.400 -17.009   6.715  1.00  0.00     0.071 C 
HETATM   20  C   UNL     1      44.035 -15.796   5.873  1.00  0.00     0.238 C 
BRANCH  18  21
HETATM   21  O   UNL     1      43.828 -19.200   7.429  1.00  0.00    -0.385 OA
HETATM   22  H   UNL     1      44.503 -19.839   7.128  1.00  0.00     0.211 HD
ENDBRANCH  18  21
BRANCH  18  23
HETATM   23  C   UNL     1      43.800 -18.926   5.052  1.00  0.00    -0.006 A 
HETATM   24  C   UNL     1      44.735 -19.941   4.862  1.00  0.00     0.126 A 
HETATM   25  N   UNL     1      45.033 -20.500   3.669  1.00  0.00    -0.272 NA
HETATM   26  C   UNL     1      44.310 -20.105   2.601  1.00  0.00     0.116 A 
HETATM   27  C   UNL     1      43.313 -19.154   2.678  1.00  0.00     0.020 A 
HETATM   28  C   UNL     1      43.057 -18.565   3.914  1.00  0.00     0.013 A 
ENDBRANCH  18  23
ENDBRANCH  13  14
ENDBRANCH  10  13
BRANCH   1  29
HETATM   29  C   UNL     1      42.022 -10.759   9.841  1.00  0.00     0.299 C 
BRANCH  29  30
HETATM   30  C   UNL     1      42.505 -10.336  11.178  1.00  0.00     0.079 A 
HETATM   31  O   UNL     1      41.588 -10.341  12.186  1.00  0.00    -0.316 OA
HETATM   32  C   UNL     1      42.244  -9.985  13.332  1.00  0.00     0.077 A 
HETATM   33  C   UNL     1      43.565  -9.711  13.045  1.00  0.00     0.037 A 
HETATM   34  C   UNL     1      43.734  -9.938  11.657  1.00  0.00     0.037 A 
BRANCH  32  35
HETATM   35  C   UNL     1      41.461  -9.977  14.598  1.00  0.00     0.231 C 
BRANCH  35  36
HETATM   36  O   UNL     1      41.558  -8.663  15.140  1.00  0.00    -0.390 OA
HETATM   37  C   UNL     1      40.839  -8.553  16.364  1.00  0.00     0.201 C 
ENDBRANCH  35  36
ENDBRANCH  32  35
ENDBRANCH  29  30
ENDBRANCH   1  29
TORSDOF 8
ENDMDL
MODEL 10
REMARK VINA RESULT:      -7.6      3.008      3.508
REMARK  8 active torsions:
REMARK  status: ('A' for Active; 'I' for Inactive)
REMARK    1  A    between atoms: O_2  and  C_3 
REMARK    2  A    between atoms: C_3  and  C_4 
REMARK    3  A    between atoms: C_6  and  C_7 
REMARK    4  A    between atoms: C_7  and  N_8 
REMARK    5  A    between atoms: C_17  and  C_18 
REMARK    6  A    between atoms: C_18  and  N_19 
REMARK    7  A    between atoms: C_23  and  O_24 
REMARK    8  A    between atoms: C_23  and  C_25 
ROOT
HETATM    1  N   UNL     1      42.623 -17.620   6.192  1.00  0.00    -0.059 N 
HETATM    2  H   UNL     1      41.985 -17.557   7.000  1.00  0.00     0.280 HD
HETATM    3  C   UNL     1      41.762 -18.151   5.074  1.00  0.00     0.276 C 
HETATM    4  C   UNL     1      42.388 -18.071   3.711  1.00  0.00     0.002 A 
HETATM    5  C   UNL     1      43.556 -18.781   3.433  1.00  0.00     0.076 A 
HETATM    6  O   UNL     1      44.124 -19.595   4.373  1.00  0.00    -0.349 OA
HETATM    7  C   UNL     1      44.722 -18.855   5.447  1.00  0.00     0.203 C 
HETATM    8  C   UNL     1      43.724 -18.587   6.584  1.00  0.00     0.262 C 
HETATM    9  C   UNL     1      41.806 -17.302   2.685  1.00  0.00     0.020 A 
HETATM   10  C   UNL     1      42.376 -17.249   1.399  1.00  0.00    -0.032 A 
HETATM   11  C   UNL     1      43.553 -17.970   1.154  1.00  0.00     0.011 A 
HETATM   12  C   UNL     1      44.129 -18.748   2.164  1.00  0.00     0.038 A 
ENDROOT
BRANCH  10  13
HETATM   13  C   UNL     1      41.721 -16.427   0.312  1.00  0.00     0.273 C 
BRANCH  13  14
HETATM   14  N   UNL     1      41.362 -15.000   0.694  1.00  0.00    -0.067 N 
HETATM   15  H   UNL     1      41.786 -14.830   1.617  1.00  0.00     0.280 HD
HETATM   16  C   UNL     1      41.926 -13.964  -0.250  1.00  0.00     0.238 C 
HETATM   17  C   UNL     1      41.550 -12.576   0.239  1.00  0.00     0.071 C 
HETATM   18  C   UNL     1      40.021 -12.381   0.286  1.00  0.00     0.089 C 
HETATM   19  C   UNL     1      39.471 -13.454   1.247  1.00  0.00     0.071 C 
HETATM   20  C   UNL     1      39.861 -14.871   0.856  1.00  0.00     0.238 C 
BRANCH  18  21
HETATM   21  O   UNL     1      39.796 -11.123   0.925  1.00  0.00    -0.385 OA
HETATM   22  H   UNL     1      38.994 -11.167   1.480  1.00  0.00     0.211 HD
ENDBRANCH  18  21
BRANCH  18  23
HETATM   23  C   UNL     1      39.399 -12.328  -1.104  1.00  0.00    -0.006 A 
HETATM   24  C   UNL     1      40.007 -11.714  -2.197  1.00  0.00     0.126 A 
HETATM   25  N   UNL     1      39.444 -11.586  -3.419  1.00  0.00    -0.272 NA
HETATM   26  C   UNL     1      38.244 -12.168  -3.614  1.00  0.00     0.116 A 
HETATM   27  C   UNL     1      37.574 -12.859  -2.625  1.00  0.00     0.020 A 
HETATM   28  C   UNL     1      38.160 -12.939  -1.364  1.00  0.00     0.013 A 
ENDBRANCH  18  23
ENDBRANCH  13  14
ENDBRANCH  10  13
BRANCH   1  29
HETATM   29  C   UNL     1      43.105 -16.194   6.021  1.00  0.00     0.299 C 
BRANCH  29  30
HETATM   30  C   UNL     1      42.036 -15.221   5.689  1.00  0.00     0.079 A 
HETATM   31  O   UNL     1      42.426 -14.082   5.049  1.00  0.00    -0.316 OA
HETATM   32  C   UNL     1      41.295 -13.361   4.782  1.00  0.00     0.077 A 
HETATM   33  C   UNL     1      40.194 -14.017   5.291  1.00  0.00     0.037 A 
HETATM   34  C   UNL     1      40.671 -15.216   5.874  1.00  0.00     0.037 A 
BRANCH  32  35
HETATM   35  C   UNL     1      41.455 -12.089   4.024  1.00  0.00     0.231 C 
BRANCH  35  36
HETATM   36  O   UNL     1      41.310 -11.025   4.960  1.00  0.00    -0.390 OA
HETATM   37  C   UNL     1      40.952  -9.810   4.311  1.00  0.00     0.201 C 
ENDBRANCH  35  36
ENDBRANCH  32  35
ENDBRANCH  29  30
ENDBRANCH   1  29
TORSDOF 8
ENDMDL
