MODEL 1
REMARK VINA RESULT:      -7.9      0.000      0.000
REMARK  7 active torsions:
REMARK  status: ('A' for Active; 'I' for Inactive)
REMARK    1  A    between atoms: C_2  and  C_3 
REMARK    2  A    between atoms: C_3  and  N_4 
REMARK    3  A    between atoms: C_7  and  C_8 
REMARK    4  A    between atoms: C_8  and  N_9 
REMARK       I    between atoms: N_9  and  C_10 
REMARK       I    between atoms: C_10  and  N_11 
REMARK    5  A    between atoms: N_11  and  C_12 
REMARK    6  A    between atoms: C_15  and  N_16 
REMARK       I    between atoms: N_16  and  C_17 
REMARK    7  A    between atoms: C_17  and  C_18 
ROOT
HETATM    1  N   UNL     1      41.262 -12.171   6.610  1.00  0.00    -0.342 N 
HETATM    2  C   UNL     1      39.941 -12.508   6.629  1.00  0.00     0.320 C 
HETATM    3  N   UNL     1      39.576 -13.634   5.950  1.00  0.00    -0.309 N 
HETATM    4  O   UNL     1      39.093 -11.790   7.152  1.00  0.00    -0.247 OA
HETATM    5  H   UNL     1      41.815 -12.593   5.876  1.00  0.00     0.164 HD
HETATM    6  H   UNL     1      38.573 -13.678   5.805  1.00  0.00     0.170 HD
ENDROOT
BRANCH   3   7
HETATM    7  C   UNL     1      40.341 -14.682   5.405  1.00  0.00     0.036 A 
HETATM    8  C   UNL     1      40.900 -14.648   4.127  1.00  0.00     0.032 A 
HETATM    9  C   UNL     1      41.553 -15.771   3.603  1.00  0.00     0.032 A 
HETATM   10  C   UNL     1      41.679 -16.934   4.359  1.00  0.00     0.035 A 
HETATM   11  C   UNL     1      41.215 -16.930   5.678  1.00  0.00     0.032 A 
HETATM   12  C   UNL     1      40.558 -15.809   6.201  1.00  0.00     0.032 A 
BRANCH  10  13
HETATM   13  N   UNL     1      42.222 -18.133   3.865  1.00  0.00    -0.321 N 
HETATM   14  C   UNL     1      43.510 -18.616   4.028  1.00  0.00     0.279 C 
HETATM   15  O   UNL     1      44.378 -18.099   4.725  1.00  0.00    -0.265 OA
HETATM   16  H   UNL     1      41.647 -18.682   3.234  1.00  0.00     0.169 HD
BRANCH  14  17
HETATM   17  C   UNL     1      43.766 -19.806   3.235  1.00  0.00     0.142 A 
HETATM   18  O   UNL     1      44.532 -20.815   3.763  1.00  0.00    -0.317 OA
HETATM   19  C   UNL     1      44.580 -21.807   2.836  1.00  0.00     0.143 A 
HETATM   20  C   UNL     1      43.860 -21.458   1.718  1.00  0.00     0.027 A 
HETATM   21  C   UNL     1      43.337 -20.168   1.973  1.00  0.00     0.045 A 
ENDBRANCH  14  17
ENDBRANCH  10  13
ENDBRANCH   3   7
BRANCH   1  22
HETATM   22  C   UNL     1      41.782 -10.998   7.274  1.00  0.00     0.130 C 
BRANCH  22  23
HETATM   23  C   UNL     1      42.222 -11.304   8.700  1.00  0.00     0.031 C 
HETATM   24  C   UNL     1      41.887 -10.171   9.653  1.00  0.00     0.241 C 
HETATM   25  N   UNL     1      42.760 -10.439  10.869  1.00  0.00    -0.071 N 
HETATM   26  H   UNL     1      43.180  -9.539  11.145  1.00  0.00     0.279 HD
HETATM   27  C   UNL     1      43.884 -11.359  10.404  1.00  0.00     0.235 C 
HETATM   28  C   UNL     1      43.725 -11.437   8.897  1.00  0.00     0.035 C 
BRANCH  25  29
HETATM   29  C   UNL     1      41.981 -10.962  12.053  1.00  0.00     0.234 C 
BRANCH  29  30
HETATM   30  C   UNL     1      42.755 -10.731  13.346  1.00  0.00     0.023 C 
HETATM   31  C   UNL     1      43.227  -9.288  13.442  1.00  0.00     0.007 C 
ENDBRANCH  29  30
ENDBRANCH  25  29
ENDBRANCH  22  23
ENDBRANCH   1  22
TORSDOF 7
ENDMDL
MODEL 2
REMARK VINA RESULT:      -7.6      1.682      2.214
REMARK  7 active torsions:
REMARK  status: ('A' for Active; 'I' for Inactive)
REMARK    1  A    between atoms: C_2  and  C_3 
REMARK    2  A    between atoms: C_3  and  N_4 
REMARK    3  A    between atoms: C_7  and  C_8 
REMARK    4  A    between atoms: C_8  and  N_9 
REMARK       I    between atoms: N_9  and  C_10 
REMARK       I    between atoms: C_10  and  N_11 
REMARK    5  A    between atoms: N_11  and  C_12 
REMARK    6  A    between atoms: C_15  and  N_16 
REMARK       I    between atoms: N_16  and  C_17 
REMARK    7  A    between atoms: C_17  and  C_18 
ROOT
HETATM    1  N   UNL     1      40.049 -11.765   7.942  1.00  0.00    -0.342 N 
HETATM    2  C   UNL     1      39.657 -11.319   6.714  1.00  0.00     0.320 C 
HETATM    3  N   UNL     1      40.217 -11.923   5.626  1.00  0.00    -0.309 N 
HETATM    4  O   UNL     1      38.905 -10.358   6.579  1.00  0.00    -0.247 OA
HETATM    5  H   UNL     1      40.915 -12.285   7.968  1.00  0.00     0.164 HD
HETATM    6  H   UNL     1      40.070 -11.384   4.779  1.00  0.00     0.170 HD
ENDROOT
BRANCH   3   7
HETATM    7  C   UNL     1      40.970 -13.104   5.501  1.00  0.00     0.036 A 
HETATM    8  C   UNL     1      42.363 -13.146   5.580  1.00  0.00     0.032 A 
HETATM    9  C   UNL     1      43.057 -14.337   5.332  1.00  0.00     0.032 A 
HETATM   10  C   UNL     1      42.368 -15.509   5.029  1.00  0.00     0.035 A 
HETATM   11  C   UNL     1      40.970 -15.491   5.059  1.00  0.00     0.032 A 
HETATM   12  C   UNL     1      40.275 -14.300   5.302  1.00  0.00     0.032 A 
BRANCH  10  13
HETATM   13  N   UNL     1      42.994 -16.713   4.663  1.00  0.00    -0.321 N 
HETATM   14  C   UNL     1      43.509 -17.065   3.425  1.00  0.00     0.279 C 
HETATM   15  O   UNL     1      43.581 -16.322   2.451  1.00  0.00    -0.265 OA
HETATM   16  H   UNL     1      42.997 -17.465   5.345  1.00  0.00     0.169 HD
BRANCH  14  17
HETATM   17  C   UNL     1      43.929 -18.454   3.369  1.00  0.00     0.142 A 
HETATM   18  O   UNL     1      44.489 -19.035   4.479  1.00  0.00    -0.317 OA
HETATM   19  C   UNL     1      44.753 -20.329   4.164  1.00  0.00     0.143 A 
HETATM   20  C   UNL     1      44.374 -20.597   2.870  1.00  0.00     0.027 A 
HETATM   21  C   UNL     1      43.846 -19.389   2.355  1.00  0.00     0.045 A 
ENDBRANCH  14  17
ENDBRANCH  10  13
ENDBRANCH   3   7
BRANCH   1  22
HETATM   22  C   UNL     1      39.547 -11.206   9.176  1.00  0.00     0.130 C 
BRANCH  22  23
HETATM   23  C   UNL     1      40.671 -10.664  10.050  1.00  0.00     0.031 C 
HETATM   24  C   UNL     1      40.604 -11.211  11.465  1.00  0.00     0.241 C 
HETATM   25  N   UNL     1      41.478 -10.262  12.271  1.00  0.00    -0.071 N 
HETATM   26  H   UNL     1      40.968 -10.043  13.138  1.00  0.00     0.279 HD
HETATM   27  C   UNL     1      41.593  -8.978  11.456  1.00  0.00     0.235 C 
HETATM   28  C   UNL     1      40.629  -9.163  10.299  1.00  0.00     0.035 C 
BRANCH  25  29
HETATM   29  C   UNL     1      42.806 -10.868  12.661  1.00  0.00     0.234 C 
BRANCH  29  30
HETATM   30  C   UNL     1      43.942 -10.204  11.892  1.00  0.00     0.023 C 
HETATM   31  C   UNL     1      44.521 -11.154  10.856  1.00  0.00     0.007 C 
ENDBRANCH  29  30
ENDBRANCH  25  29
ENDBRANCH  22  23
ENDBRANCH   1  22
TORSDOF 7
ENDMDL
MODEL 3
REMARK VINA RESULT:      -7.6      4.263      8.302
REMARK  7 active torsions:
REMARK  status: ('A' for Active; 'I' for Inactive)
REMARK    1  A    between atoms: C_2  and  C_3 
REMARK    2  A    between atoms: C_3  and  N_4 
REMARK    3  A    between atoms: C_7  and  C_8 
REMARK    4  A    between atoms: C_8  and  N_9 
REMARK       I    between atoms: N_9  and  C_10 
REMARK       I    between atoms: C_10  and  N_11 
REMARK    5  A    between atoms: N_11  and  C_12 
REMARK    6  A    between atoms: C_15  and  N_16 
REMARK       I    between atoms: N_16  and  C_17 
REMARK    7  A    between atoms: C_17  and  C_18 
ROOT
HETATM    1  N   UNL     1      44.033 -16.023   6.110  1.00  0.00    -0.342 N 
HETATM    2  C   UNL     1      43.853 -14.809   6.703  1.00  0.00     0.320 C 
HETATM    3  N   UNL     1      43.251 -13.837   5.959  1.00  0.00    -0.309 N 
HETATM    4  O   UNL     1      44.292 -14.559   7.823  1.00  0.00    -0.247 OA
HETATM    5  H   UNL     1      43.983 -16.034   5.100  1.00  0.00     0.164 HD
HETATM    6  H   UNL     1      43.376 -12.917   6.369  1.00  0.00     0.170 HD
ENDROOT
BRANCH   3   7
HETATM    7  C   UNL     1      42.547 -13.896   4.743  1.00  0.00     0.036 A 
HETATM    8  C   UNL     1      41.246 -14.387   4.624  1.00  0.00     0.032 A 
HETATM    9  C   UNL     1      40.646 -14.524   3.366  1.00  0.00     0.032 A 
HETATM   10  C   UNL     1      41.328 -14.147   2.211  1.00  0.00     0.035 A 
HETATM   11  C   UNL     1      42.587 -13.553   2.340  1.00  0.00     0.032 A 
HETATM   12  C   UNL     1      43.189 -13.420   3.597  1.00  0.00     0.032 A 
BRANCH  10  13
HETATM   13  N   UNL     1      40.837 -14.354   0.910  1.00  0.00    -0.321 N 
HETATM   14  C   UNL     1      41.200 -15.343   0.009  1.00  0.00     0.279 C 
HETATM   15  O   UNL     1      41.963 -16.274   0.248  1.00  0.00    -0.265 OA
HETATM   16  H   UNL     1      40.210 -13.653   0.529  1.00  0.00     0.169 HD
BRANCH  14  17
HETATM   17  C   UNL     1      40.611 -15.147  -1.303  1.00  0.00     0.142 A 
HETATM   18  O   UNL     1      39.562 -14.272  -1.448  1.00  0.00    -0.317 OA
HETATM   19  C   UNL     1      39.234 -14.256  -2.765  1.00  0.00     0.143 A 
HETATM   20  C   UNL     1      40.049 -15.104  -3.477  1.00  0.00     0.027 A 
HETATM   21  C   UNL     1      40.935 -15.681  -2.536  1.00  0.00     0.045 A 
ENDBRANCH  14  17
ENDBRANCH  10  13
ENDBRANCH   3   7
BRANCH   1  22
HETATM   22  C   UNL     1      44.669 -17.135   6.777  1.00  0.00     0.130 C 
BRANCH  22  23
HETATM   23  C   UNL     1      44.797 -18.347   5.861  1.00  0.00     0.031 C 
HETATM   24  C   UNL     1      43.863 -18.258   4.668  1.00  0.00     0.241 C 
HETATM   25  N   UNL     1      43.799 -19.684   4.141  1.00  0.00    -0.071 N 
HETATM   26  H   UNL     1      42.809 -19.889   3.944  1.00  0.00     0.279 HD
HETATM   27  C   UNL     1      44.249 -20.590   5.282  1.00  0.00     0.235 C 
HETATM   28  C   UNL     1      44.376 -19.671   6.482  1.00  0.00     0.035 C 
BRANCH  25  29
HETATM   29  C   UNL     1      44.571 -19.875   2.857  1.00  0.00     0.234 C 
BRANCH  29  30
HETATM   30  C   UNL     1      43.687 -20.516   1.793  1.00  0.00     0.023 C 
HETATM   31  C   UNL     1      44.063 -21.974   1.584  1.00  0.00     0.007 C 
ENDBRANCH  29  30
ENDBRANCH  25  29
ENDBRANCH  22  23
ENDBRANCH   1  22
TORSDOF 7
ENDMDL
MODEL 4
REMARK VINA RESULT:      -7.5      3.012      9.242
REMARK  7 active torsions:
REMARK  status: ('A' for Active; 'I' for Inactive)
REMARK    1  A    between atoms: C_2  and  C_3 
REMARK    2  A    between atoms: C_3  and  N_4 
REMARK    3  A    between atoms: C_7  and  C_8 
REMARK    4  A    between atoms: C_8  and  N_9 
REMARK       I    between atoms: N_9  and  C_10 
REMARK       I    between atoms: C_10  and  N_11 
REMARK    5  A    between atoms: N_11  and  C_12 
REMARK    6  A    between atoms: C_15  and  N_16 
REMARK       I    between atoms: N_16  and  C_17 
REMARK    7  A    between atoms: C_17  and  C_18 
ROOT
HETATM    1  N   UNL     1      39.830 -15.321   2.715  1.00  0.00    -0.342 N 
HETATM    2  C   UNL     1      39.158 -14.281   2.145  1.00  0.00     0.320 C 
HETATM    3  N   UNL     1      39.125 -13.107   2.839  1.00  0.00    -0.309 N 
HETATM    4  O   UNL     1      38.528 -14.407   1.098  1.00  0.00    -0.247 OA
HETATM    5  H   UNL     1      39.998 -15.248   3.709  1.00  0.00     0.164 HD
HETATM    6  H   UNL     1      38.417 -12.476   2.480  1.00  0.00     0.170 HD
ENDROOT
BRANCH   3   7
HETATM    7  C   UNL     1      39.859 -12.663   3.955  1.00  0.00     0.036 A 
HETATM    8  C   UNL     1      41.157 -12.157   3.877  1.00  0.00     0.032 A 
HETATM    9  C   UNL     1      41.872 -11.840   5.038  1.00  0.00     0.032 A 
HETATM   10  C   UNL     1      41.290 -11.999   6.294  1.00  0.00     0.035 A 
HETATM   11  C   UNL     1      39.952 -12.401   6.367  1.00  0.00     0.032 A 
HETATM   12  C   UNL     1      39.239 -12.722   5.205  1.00  0.00     0.032 A 
BRANCH  10  13
HETATM   13  N   UNL     1      41.977 -11.807   7.505  1.00  0.00    -0.321 N 
HETATM   14  C   UNL     1      42.306 -10.608   8.118  1.00  0.00     0.279 C 
HETATM   15  O   UNL     1      41.960  -9.496   7.731  1.00  0.00    -0.265 OA
HETATM   16  H   UNL     1      42.369 -12.628   7.956  1.00  0.00     0.169 HD
BRANCH  14  17
HETATM   17  C   UNL     1      43.166 -10.789   9.273  1.00  0.00     0.142 A 
HETATM   18  O   UNL     1      44.527 -10.855   9.097  1.00  0.00    -0.317 OA
HETATM   19  C   UNL     1      45.083 -10.989  10.329  1.00  0.00     0.143 A 
HETATM   20  C   UNL     1      44.109 -11.012  11.299  1.00  0.00     0.027 A 
HETATM   21  C   UNL     1      42.874 -10.886  10.620  1.00  0.00     0.045 A 
ENDBRANCH  14  17
ENDBRANCH  10  13
ENDBRANCH   3   7
BRANCH   1  22
HETATM   22  C   UNL     1      39.931 -16.622   2.096  1.00  0.00     0.130 C 
BRANCH  22  23
HETATM   23  C   UNL     1      41.350 -17.173   2.164  1.00  0.00     0.031 C 
HETATM   24  C   UNL     1      41.844 -17.297   3.594  1.00  0.00     0.241 C 
HETATM   25  N   UNL     1      43.354 -17.420   3.455  1.00  0.00    -0.071 N 
HETATM   26  H   UNL     1      43.775 -16.800   4.162  1.00  0.00     0.279 HD
HETATM   27  C   UNL     1      43.711 -16.873   2.077  1.00  0.00     0.235 C 
HETATM   28  C   UNL     1      42.418 -16.281   1.546  1.00  0.00     0.035 C 
BRANCH  25  29
HETATM   29  C   UNL     1      43.860 -18.820   3.715  1.00  0.00     0.234 C 
BRANCH  29  30
HETATM   30  C   UNL     1      44.352 -19.459   2.421  1.00  0.00     0.023 C 
HETATM   31  C   UNL     1      43.403 -20.557   1.966  1.00  0.00     0.007 C 
ENDBRANCH  29  30
ENDBRANCH  25  29
ENDBRANCH  22  23
ENDBRANCH   1  22
TORSDOF 7
ENDMDL
MODEL 5
REMARK VINA RESULT:      -7.4      3.918      7.182
REMARK  7 active torsions:
REMARK  status: ('A' for Active; 'I' for Inactive)
REMARK    1  A    between atoms: C_2  and  C_3 
REMARK    2  A    between atoms: C_3  and  N_4 
REMARK    3  A    between atoms: C_7  and  C_8 
REMARK    4  A    between atoms: C_8  and  N_9 
REMARK       I    between atoms: N_9  and  C_10 
REMARK       I    between atoms: C_10  and  N_11 
REMARK    5  A    between atoms: N_11  and  C_12 
REMARK    6  A    between atoms: C_15  and  N_16 
REMARK       I    between atoms: N_16  and  C_17 
REMARK    7  A    between atoms: C_17  and  C_18 
ROOT
HETATM    1  N   UNL     1      39.617 -13.311   4.191  1.00  0.00    -0.342 N 
HETATM    2  C   UNL     1      39.636 -13.088   5.535  1.00  0.00     0.320 C 
HETATM    3  N   UNL     1      40.198 -14.054   6.318  1.00  0.00    -0.309 N 
HETATM    4  O   UNL     1      39.092 -12.110   6.042  1.00  0.00    -0.247 OA
HETATM    5  H   UNL     1      39.745 -14.271   3.899  1.00  0.00     0.164 HD
HETATM    6  H   UNL     1      39.956 -13.936   7.296  1.00  0.00     0.170 HD
ENDROOT
BRANCH   3   7
HETATM    7  C   UNL     1      40.994 -15.169   5.995  1.00  0.00     0.036 A 
HETATM    8  C   UNL     1      42.367 -15.096   5.755  1.00  0.00     0.032 A 
HETATM    9  C   UNL     1      43.078 -16.223   5.326  1.00  0.00     0.032 A 
HETATM   10  C   UNL     1      42.433 -17.446   5.158  1.00  0.00     0.035 A 
HETATM   11  C   UNL     1      41.082 -17.545   5.505  1.00  0.00     0.032 A 
HETATM   12  C   UNL     1      40.369 -16.416   5.929  1.00  0.00     0.032 A 
BRANCH  10  13
HETATM   13  N   UNL     1      43.053 -18.592   4.629  1.00  0.00    -0.321 N 
HETATM   14  C   UNL     1      43.664 -18.738   3.394  1.00  0.00     0.279 C 
HETATM   15  O   UNL     1      43.844 -17.836   2.581  1.00  0.00    -0.265 OA
HETATM   16  H   UNL     1      42.973 -19.454   5.160  1.00  0.00     0.169 HD
BRANCH  14  17
HETATM   17  C   UNL     1      44.045 -20.112   3.118  1.00  0.00     0.142 A 
HETATM   18  O   UNL     1      44.509 -20.901   4.141  1.00  0.00    -0.317 OA
HETATM   19  C   UNL     1      44.755 -22.130   3.617  1.00  0.00     0.143 A 
HETATM   20  C   UNL     1      44.460 -22.150   2.275  1.00  0.00     0.027 A 
HETATM   21  C   UNL     1      44.005 -20.850   1.951  1.00  0.00     0.045 A 
ENDBRANCH  14  17
ENDBRANCH  10  13
ENDBRANCH   3   7
BRANCH   1  22
HETATM   22  C   UNL     1      39.041 -12.379   3.249  1.00  0.00     0.130 C 
BRANCH  22  23
HETATM   23  C   UNL     1      39.258 -12.823   1.808  1.00  0.00     0.031 C 
HETATM   24  C   UNL     1      38.060 -13.576   1.258  1.00  0.00     0.241 C 
HETATM   25  N   UNL     1      38.605 -14.299   0.036  1.00  0.00    -0.071 N 
HETATM   26  H   UNL     1      38.243 -15.263   0.068  1.00  0.00     0.279 HD
HETATM   27  C   UNL     1      40.119 -14.359   0.205  1.00  0.00     0.235 C 
HETATM   28  C   UNL     1      40.376 -13.836   1.606  1.00  0.00     0.035 C 
BRANCH  25  29
HETATM   29  C   UNL     1      38.151 -13.683  -1.267  1.00  0.00     0.234 C 
BRANCH  29  30
HETATM   30  C   UNL     1      38.657 -14.502  -2.449  1.00  0.00     0.023 C 
HETATM   31  C   UNL     1      37.536 -14.768  -3.441  1.00  0.00     0.007 C 
ENDBRANCH  29  30
ENDBRANCH  25  29
ENDBRANCH  22  23
ENDBRANCH   1  22
TORSDOF 7
ENDMDL
MODEL 6
REMARK VINA RESULT:      -7.4      4.903      8.437
REMARK  7 active torsions:
REMARK  status: ('A' for Active; 'I' for Inactive)
REMARK    1  A    between atoms: C_2  and  C_3 
REMARK    2  A    between atoms: C_3  and  N_4 
REMARK    3  A    between atoms: C_7  and  C_8 
REMARK    4  A    between atoms: C_8  and  N_9 
REMARK       I    between atoms: N_9  and  C_10 
REMARK       I    between atoms: C_10  and  N_11 
REMARK    5  A    between atoms: N_11  and  C_12 
REMARK    6  A    between atoms: C_15  and  N_16 
REMARK       I    between atoms: N_16  and  C_17 
REMARK    7  A    between atoms: C_17  and  C_18 
ROOT
HETATM    1  N   UNL     1      43.571 -15.688   5.396  1.00  0.00    -0.342 N 
HETATM    2  C   UNL     1      43.771 -14.345   5.278  1.00  0.00     0.320 C 
HETATM    3  N   UNL     1      43.442 -13.770   4.086  1.00  0.00    -0.309 N 
HETATM    4  O   UNL     1      44.307 -13.685   6.165  1.00  0.00    -0.247 OA
HETATM    5  H   UNL     1      43.479 -16.200   4.529  1.00  0.00     0.164 HD
HETATM    6  H   UNL     1      43.842 -12.842   3.991  1.00  0.00     0.170 HD
ENDROOT
BRANCH   3   7
HETATM    7  C   UNL     1      42.702 -14.253   2.991  1.00  0.00     0.036 A 
HETATM    8  C   UNL     1      43.030 -15.410   2.284  1.00  0.00     0.032 A 
HETATM    9  C   UNL     1      42.318 -15.772   1.134  1.00  0.00     0.032 A 
HETATM   10  C   UNL     1      41.249 -14.996   0.690  1.00  0.00     0.035 A 
HETATM   11  C   UNL     1      40.851 -13.899   1.460  1.00  0.00     0.032 A 
HETATM   12  C   UNL     1      41.567 -13.534   2.607  1.00  0.00     0.032 A 
BRANCH  10  13
HETATM   13  N   UNL     1      40.556 -15.232  -0.511  1.00  0.00    -0.321 N 
HETATM   14  C   UNL     1      40.789 -14.667  -1.755  1.00  0.00     0.279 C 
HETATM   15  O   UNL     1      41.722 -13.918  -2.029  1.00  0.00    -0.265 OA
HETATM   16  H   UNL     1      39.724 -15.811  -0.465  1.00  0.00     0.169 HD
BRANCH  14  17
HETATM   17  C   UNL     1      39.769 -15.016  -2.727  1.00  0.00     0.142 A 
HETATM   18  O   UNL     1      40.026 -16.000  -3.650  1.00  0.00    -0.317 OA
HETATM   19  C   UNL     1      38.905 -16.144  -4.402  1.00  0.00     0.143 A 
HETATM   20  C   UNL     1      37.927 -15.272  -3.985  1.00  0.00     0.027 A 
HETATM   21  C   UNL     1      38.484 -14.543  -2.907  1.00  0.00     0.045 A 
ENDBRANCH  14  17
ENDBRANCH  10  13
ENDBRANCH   3   7
BRANCH   1  22
HETATM   22  C   UNL     1      43.889 -16.426   6.597  1.00  0.00     0.130 C 
BRANCH  22  23
HETATM   23  C   UNL     1      44.290 -17.863   6.290  1.00  0.00     0.031 C 
HETATM   24  C   UNL     1      43.796 -18.312   4.926  1.00  0.00     0.241 C 
HETATM   25  N   UNL     1      43.887 -19.829   4.980  1.00  0.00    -0.071 N 
HETATM   26  H   UNL     1      43.011 -20.199   4.582  1.00  0.00     0.279 HD
HETATM   27  C   UNL     1      43.930 -20.211   6.456  1.00  0.00     0.235 C 
HETATM   28  C   UNL     1      43.673 -18.914   7.201  1.00  0.00     0.035 C 
BRANCH  25  29
HETATM   29  C   UNL     1      45.031 -20.383   4.164  1.00  0.00     0.234 C 
BRANCH  29  30
HETATM   30  C   UNL     1      44.580 -21.605   3.373  1.00  0.00     0.023 C 
HETATM   31  C   UNL     1      44.003 -21.194   2.027  1.00  0.00     0.007 C 
ENDBRANCH  29  30
ENDBRANCH  25  29
ENDBRANCH  22  23
ENDBRANCH   1  22
TORSDOF 7
ENDMDL
MODEL 7
REMARK VINA RESULT:      -7.4      5.114      8.083
REMARK  7 active torsions:
REMARK  status: ('A' for Active; 'I' for Inactive)
REMARK    1  A    between atoms: C_2  and  C_3 
REMARK    2  A    between atoms: C_3  and  N_4 
REMARK    3  A    between atoms: C_7  and  C_8 
REMARK    4  A    between atoms: C_8  and  N_9 
REMARK       I    between atoms: N_9  and  C_10 
REMARK       I    between atoms: C_10  and  N_11 
REMARK    5  A    between atoms: N_11  and  C_12 
REMARK    6  A    between atoms: C_15  and  N_16 
REMARK       I    between atoms: N_16  and  C_17 
REMARK    7  A    between atoms: C_17  and  C_18 
ROOT
HETATM    1  N   UNL     1      40.403 -12.894   1.329  1.00  0.00    -0.342 N 
HETATM    2  C   UNL     1      39.623 -12.887   2.447  1.00  0.00     0.320 C 
HETATM    3  N   UNL     1      39.607 -14.024   3.200  1.00  0.00    -0.309 N 
HETATM    4  O   UNL     1      38.891 -11.940   2.726  1.00  0.00    -0.247 OA
HETATM    5  H   UNL     1      40.672 -13.804   0.983  1.00  0.00     0.164 HD
HETATM    6  H   UNL     1      38.833 -14.030   3.857  1.00  0.00     0.170 HD
ENDROOT
BRANCH   3   7
HETATM    7  C   UNL     1      40.433 -15.163   3.186  1.00  0.00     0.036 A 
HETATM    8  C   UNL     1      40.308 -16.199   2.261  1.00  0.00     0.032 A 
HETATM    9  C   UNL     1      41.088 -17.357   2.374  1.00  0.00     0.032 A 
HETATM   10  C   UNL     1      42.023 -17.483   3.398  1.00  0.00     0.035 A 
HETATM   11  C   UNL     1      42.226 -16.399   4.258  1.00  0.00     0.032 A 
HETATM   12  C   UNL     1      41.443 -15.244   4.148  1.00  0.00     0.032 A 
BRANCH  10  13
HETATM   13  N   UNL     1      42.764 -18.653   3.641  1.00  0.00    -0.321 N 
HETATM   14  C   UNL     1      43.840 -19.147   2.920  1.00  0.00     0.279 C 
HETATM   15  O   UNL     1      44.386 -18.575   1.981  1.00  0.00    -0.265 OA
HETATM   16  H   UNL     1      42.431 -19.274   4.372  1.00  0.00     0.169 HD
BRANCH  14  17
HETATM   17  C   UNL     1      44.248 -20.469   3.360  1.00  0.00     0.142 A 
HETATM   18  O   UNL     1      44.638 -20.655   4.664  1.00  0.00    -0.317 OA
HETATM   19  C   UNL     1      44.930 -21.973   4.809  1.00  0.00     0.143 A 
HETATM   20  C   UNL     1      44.736 -22.644   3.625  1.00  0.00     0.027 A 
HETATM   21  C   UNL     1      44.300 -21.676   2.690  1.00  0.00     0.045 A 
ENDBRANCH  14  17
ENDBRANCH  10  13
ENDBRANCH   3   7
BRANCH   1  22
HETATM   22  C   UNL     1      40.501 -11.763   0.434  1.00  0.00     0.130 C 
BRANCH  22  23
HETATM   23  C   UNL     1      40.987 -12.176  -0.949  1.00  0.00     0.031 C 
HETATM   24  C   UNL     1      41.282 -13.663  -1.027  1.00  0.00     0.241 C 
HETATM   25  N   UNL     1      42.143 -13.805  -2.274  1.00  0.00    -0.071 N 
HETATM   26  H   UNL     1      42.925 -14.430  -2.032  1.00  0.00     0.279 HD
HETATM   27  C   UNL     1      42.718 -12.423  -2.565  1.00  0.00     0.235 C 
HETATM   28  C   UNL     1      42.320 -11.576  -1.371  1.00  0.00     0.035 C 
BRANCH  25  29
HETATM   29  C   UNL     1      41.404 -14.425  -3.436  1.00  0.00     0.234 C 
BRANCH  29  30
HETATM   30  C   UNL     1      40.669 -15.684  -2.990  1.00  0.00     0.023 C 
HETATM   31  C   UNL     1      39.445 -15.932  -3.858  1.00  0.00     0.007 C 
ENDBRANCH  29  30
ENDBRANCH  25  29
ENDBRANCH  22  23
ENDBRANCH   1  22
TORSDOF 7
ENDMDL
MODEL 8
REMARK VINA RESULT:      -7.2      3.923      6.730
REMARK  7 active torsions:
REMARK  status: ('A' for Active; 'I' for Inactive)
REMARK    1  A    between atoms: C_2  and  C_3 
REMARK    2  A    between atoms: C_3  and  N_4 
REMARK    3  A    between atoms: C_7  and  C_8 
REMARK    4  A    between atoms: C_8  and  N_9 
REMARK       I    between atoms: N_9  and  C_10 
REMARK       I    between atoms: C_10  and  N_11 
REMARK    5  A    between atoms: N_11  and  C_12 
REMARK    6  A    between atoms: C_15  and  N_16 
REMARK       I    between atoms: N_16  and  C_17 
REMARK    7  A    between atoms: C_17  and  C_18 
ROOT
HETATM    1  N   UNL     1      39.594 -13.307   4.262  1.00  0.00    -0.342 N 
HETATM    2  C   UNL     1      39.604 -13.139   5.614  1.00  0.00     0.320 C 
HETATM    3  N   UNL     1      40.170 -14.132   6.360  1.00  0.00    -0.309 N 
HETATM    4  O   UNL     1      39.049 -12.187   6.158  1.00  0.00    -0.247 OA
HETATM    5  H   UNL     1      39.732 -14.252   3.932  1.00  0.00     0.164 HD
HETATM    6  H   UNL     1      39.922 -14.055   7.340  1.00  0.00     0.170 HD
ENDROOT
BRANCH   3   7
HETATM    7  C   UNL     1      40.978 -15.225   5.996  1.00  0.00     0.036 A 
HETATM    8  C   UNL     1      42.345 -15.124   5.734  1.00  0.00     0.032 A 
HETATM    9  C   UNL     1      43.067 -16.229   5.265  1.00  0.00     0.032 A 
HETATM   10  C   UNL     1      42.438 -17.457   5.078  1.00  0.00     0.035 A 
HETATM   11  C   UNL     1      41.095 -17.586   5.445  1.00  0.00     0.032 A 
HETATM   12  C   UNL     1      40.372 -16.480   5.909  1.00  0.00     0.032 A 
BRANCH  10  13
HETATM   13  N   UNL     1      43.066 -18.580   4.510  1.00  0.00    -0.321 N 
HETATM   14  C   UNL     1      43.421 -18.780   3.186  1.00  0.00     0.279 C 
HETATM   15  O   UNL     1      43.321 -17.945   2.292  1.00  0.00    -0.265 OA
HETATM   16  H   UNL     1      43.201 -19.391   5.106  1.00  0.00     0.169 HD
BRANCH  14  17
HETATM   17  C   UNL     1      43.897 -20.128   2.932  1.00  0.00     0.142 A 
HETATM   18  O   UNL     1      44.443 -20.855   3.960  1.00  0.00    -0.317 OA
HETATM   19  C   UNL     1      44.767 -22.075   3.459  1.00  0.00     0.143 A 
HETATM   20  C   UNL     1      44.442 -22.151   2.126  1.00  0.00     0.027 A 
HETATM   21  C   UNL     1      43.884 -20.896   1.784  1.00  0.00     0.045 A 
ENDBRANCH  14  17
ENDBRANCH  10  13
ENDBRANCH   3   7
BRANCH   1  22
HETATM   22  C   UNL     1      39.014 -12.342   3.356  1.00  0.00     0.130 C 
BRANCH  22  23
HETATM   23  C   UNL     1      39.120 -12.792   1.905  1.00  0.00     0.031 C 
HETATM   24  C   UNL     1      39.988 -11.858   1.081  1.00  0.00     0.241 C 
HETATM   25  N   UNL     1      39.627 -12.189  -0.359  1.00  0.00    -0.071 N 
HETATM   26  H   UNL     1      39.508 -11.294  -0.855  1.00  0.00     0.279 HD
HETATM   27  C   UNL     1      38.271 -12.887  -0.318  1.00  0.00     0.235 C 
HETATM   28  C   UNL     1      37.814 -12.766   1.124  1.00  0.00     0.035 C 
BRANCH  25  29
HETATM   29  C   UNL     1      40.703 -12.970  -1.075  1.00  0.00     0.234 C 
BRANCH  29  30
HETATM   30  C   UNL     1      40.310 -14.438  -1.193  1.00  0.00     0.023 C 
HETATM   31  C   UNL     1      41.133 -15.296  -0.245  1.00  0.00     0.007 C 
ENDBRANCH  29  30
ENDBRANCH  25  29
ENDBRANCH  22  23
ENDBRANCH   1  22
TORSDOF 7
ENDMDL
MODEL 9
REMARK VINA RESULT:      -7.1      2.633      9.629
REMARK  7 active torsions:
REMARK  status: ('A' for Active; 'I' for Inactive)
REMARK    1  A    between atoms: C_2  and  C_3 
REMARK    2  A    between atoms: C_3  and  N_4 
REMARK    3  A    between atoms: C_7  and  C_8 
REMARK    4  A    between atoms: C_8  and  N_9 
REMARK       I    between atoms: N_9  and  C_10 
REMARK       I    between atoms: C_10  and  N_11 
REMARK    5  A    between atoms: N_11  and  C_12 
REMARK    6  A    between atoms: C_15  and  N_16 
REMARK       I    between atoms: N_16  and  C_17 
REMARK    7  A    between atoms: C_17  and  C_18 
ROOT
HETATM    1  N   UNL     1      42.286 -15.865   1.910  1.00  0.00    -0.342 N 
HETATM    2  C   UNL     1      41.080 -15.427   1.450  1.00  0.00     0.320 C 
HETATM    3  N   UNL     1      40.375 -14.585   2.259  1.00  0.00    -0.309 N 
HETATM    4  O   UNL     1      40.595 -15.836   0.398  1.00  0.00    -0.247 OA
HETATM    5  H   UNL     1      42.437 -15.781   2.905  1.00  0.00     0.164 HD
HETATM    6  H   UNL     1      39.406 -14.506   1.968  1.00  0.00     0.170 HD
ENDROOT
BRANCH   3   7
HETATM    7  C   UNL     1      40.749 -13.870   3.412  1.00  0.00     0.036 A 
HETATM    8  C   UNL     1      41.720 -12.868   3.420  1.00  0.00     0.032 A 
HETATM    9  C   UNL     1      42.126 -12.275   4.622  1.00  0.00     0.032 A 
HETATM   10  C   UNL     1      41.546 -12.656   5.830  1.00  0.00     0.035 A 
HETATM   11  C   UNL     1      40.496 -13.580   5.809  1.00  0.00     0.032 A 
HETATM   12  C   UNL     1      40.094 -14.176   4.607  1.00  0.00     0.032 A 
BRANCH  10  13
HETATM   13  N   UNL     1      41.973 -12.188   7.085  1.00  0.00    -0.321 N 
HETATM   14  C   UNL     1      41.917 -10.894   7.577  1.00  0.00     0.279 C 
HETATM   15  O   UNL     1      41.387  -9.943   7.010  1.00  0.00    -0.265 OA
HETATM   16  H   UNL     1      42.470 -12.841   7.684  1.00  0.00     0.169 HD
BRANCH  14  17
HETATM   17  C   UNL     1      42.605 -10.747   8.847  1.00  0.00     0.142 A 
HETATM   18  O   UNL     1      43.977 -10.802   8.880  1.00  0.00    -0.317 OA
HETATM   19  C   UNL     1      44.354 -10.603  10.169  1.00  0.00     0.143 A 
HETATM   20  C   UNL     1      43.252 -10.422  10.972  1.00  0.00     0.027 A 
HETATM   21  C   UNL     1      42.125 -10.518  10.122  1.00  0.00     0.045 A 
ENDBRANCH  14  17
ENDBRANCH  10  13
ENDBRANCH   3   7
BRANCH   1  22
HETATM   22  C   UNL     1      43.129 -16.770   1.162  1.00  0.00     0.130 C 
BRANCH  22  23
HETATM   23  C   UNL     1      43.829 -17.773   2.071  1.00  0.00     0.031 C 
HETATM   24  C   UNL     1      43.283 -19.178   1.893  1.00  0.00     0.241 C 
HETATM   25  N   UNL     1      43.754 -19.918   3.136  1.00  0.00    -0.071 N 
HETATM   26  H   UNL     1      42.953 -20.464   3.485  1.00  0.00     0.279 HD
HETATM   27  C   UNL     1      44.088 -18.854   4.176  1.00  0.00     0.235 C 
HETATM   28  C   UNL     1      43.620 -17.548   3.562  1.00  0.00     0.035 C 
BRANCH  25  29
HETATM   29  C   UNL     1      44.880 -20.886   2.857  1.00  0.00     0.234 C 
BRANCH  29  30
HETATM   30  C   UNL     1      44.481 -22.300   3.263  1.00  0.00     0.023 C 
HETATM   31  C   UNL     1      44.755 -22.536   4.740  1.00  0.00     0.007 C 
ENDBRANCH  29  30
ENDBRANCH  25  29
ENDBRANCH  22  23
ENDBRANCH   1  22
TORSDOF 7
ENDMDL
MODEL 10
REMARK VINA RESULT:      -7.1      4.357      8.725
REMARK  7 active torsions:
REMARK  status: ('A' for Active; 'I' for Inactive)
REMARK    1  A    between atoms: C_2  and  C_3 
REMARK    2  A    between atoms: C_3  and  N_4 
REMARK    3  A    between atoms: C_7  and  C_8 
REMARK    4  A    between atoms: C_8  and  N_9 
REMARK       I    between atoms: N_9  and  C_10 
REMARK       I    between atoms: C_10  and  N_11 
REMARK    5  A    between atoms: N_11  and  C_12 
REMARK    6  A    between atoms: C_15  and  N_16 
REMARK       I    between atoms: N_16  and  C_17 
REMARK    7  A    between atoms: C_17  and  C_18 
ROOT
HETATM    1  N   UNL     1      44.046 -17.076   6.194  1.00  0.00    -0.342 N 
HETATM    2  C   UNL     1      43.306 -16.518   7.193  1.00  0.00     0.320 C 
HETATM    3  N   UNL     1      42.830 -15.257   6.985  1.00  0.00    -0.309 N 
HETATM    4  O   UNL     1      43.144 -17.077   8.275  1.00  0.00    -0.247 OA
HETATM    5  H   UNL     1      44.431 -16.433   5.516  1.00  0.00     0.164 HD
HETATM    6  H   UNL     1      42.512 -14.826   7.846  1.00  0.00     0.170 HD
ENDROOT
BRANCH   3   7
HETATM    7  C   UNL     1      42.751 -14.472   5.819  1.00  0.00     0.036 A 
HETATM    8  C   UNL     1      41.810 -13.460   5.630  1.00  0.00     0.032 A 
HETATM    9  C   UNL     1      41.712 -12.794   4.402  1.00  0.00     0.032 A 
HETATM   10  C   UNL     1      42.572 -13.113   3.354  1.00  0.00     0.035 A 
HETATM   11  C   UNL     1      43.586 -14.050   3.579  1.00  0.00     0.032 A 
HETATM   12  C   UNL     1      43.681 -14.718   4.806  1.00  0.00     0.032 A 
BRANCH  10  13
HETATM   13  N   UNL     1      42.467 -12.569   2.062  1.00  0.00    -0.321 N 
HETATM   14  C   UNL     1      41.851 -13.123   0.951  1.00  0.00     0.279 C 
HETATM   15  O   UNL     1      41.205 -14.167   0.945  1.00  0.00    -0.265 OA
HETATM   16  H   UNL     1      42.975 -11.710   1.873  1.00  0.00     0.169 HD
BRANCH  14  17
HETATM   17  C   UNL     1      42.086 -12.356  -0.260  1.00  0.00     0.142 A 
HETATM   18  O   UNL     1      43.048 -11.376  -0.260  1.00  0.00    -0.317 OA
HETATM   19  C   UNL     1      43.081 -10.849  -1.512  1.00  0.00     0.143 A 
HETATM   20  C   UNL     1      42.159 -11.469  -2.321  1.00  0.00     0.027 A 
HETATM   21  C   UNL     1      41.515 -12.438  -1.515  1.00  0.00     0.045 A 
ENDBRANCH  14  17
ENDBRANCH  10  13
ENDBRANCH   3   7
BRANCH   1  22
HETATM   22  C   UNL     1      44.622 -18.398   6.289  1.00  0.00     0.130 C 
BRANCH  22  23
HETATM   23  C   UNL     1      44.753 -19.058   4.922  1.00  0.00     0.031 C 
HETATM   24  C   UNL     1      43.528 -18.821   4.057  1.00  0.00     0.241 C 
HETATM   25  N   UNL     1      43.635 -19.877   2.967  1.00  0.00    -0.071 N 
HETATM   26  H   UNL     1      42.699 -20.295   2.857  1.00  0.00     0.279 HD
HETATM   27  C   UNL     1      44.573 -20.957   3.497  1.00  0.00     0.235 C 
HETATM   28  C   UNL     1      44.824 -20.579   4.944  1.00  0.00     0.035 C 
BRANCH  25  29
HETATM   29  C   UNL     1      44.041 -19.307   1.629  1.00  0.00     0.234 C 
BRANCH  29  30
HETATM   30  C   UNL     1      44.037 -17.783   1.675  1.00  0.00     0.023 C 
HETATM   31  C   UNL     1      42.888 -17.220   0.852  1.00  0.00     0.007 C 
ENDBRANCH  29  30
ENDBRANCH  25  29
ENDBRANCH  22  23
ENDBRANCH   1  22
TORSDOF 7
ENDMDL
