MODEL 1
REMARK VINA RESULT:      -7.7      0.000      0.000
REMARK  6 active torsions:
REMARK  status: ('A' for Active; 'I' for Inactive)
REMARK    1  A    between atoms: C_2  and  O_3 
REMARK    2  A    between atoms: O_3  and  C_4 
REMARK    3  A    between atoms: C_7  and  C_8 
REMARK       I    between atoms: N_11  and  C_12 
REMARK       I    between atoms: C_12  and  N_13 
REMARK    4  A    between atoms: N_13  and  C_14 
REMARK    5  A    between atoms: C_14  and  C_15 
REMARK    6  A    between atoms: C_15  and  C_16 
ROOT
HETATM    1  C   UNL     1      41.902 -16.564   1.874  1.00  0.00    -0.049 C 
HETATM    2  C   UNL     1      40.634 -16.063   2.522  1.00  0.00     0.059 C 
HETATM    3  C   UNL     1      40.144 -14.764   1.878  1.00  0.00     0.132 C 
HETATM    4  N   UNL     1      40.166 -14.850   0.422  1.00  0.00    -0.331 N 
HETATM    5  C   UNL     1      39.047 -14.440  -0.282  1.00  0.00     0.318 C 
HETATM    6  N   UNL     1      39.184 -14.436  -1.647  1.00  0.00    -0.338 N 
HETATM    7  O   UNL     1      37.990 -14.130   0.264  1.00  0.00    -0.247 OA
HETATM    8  C   UNL     1      41.456 -15.163  -0.185  1.00  0.00     0.155 C 
HETATM    9  C   UNL     1      42.265 -16.106   0.660  1.00  0.00     0.001 C 
HETATM   10  H   UNL     1      40.093 -14.123  -1.974  1.00  0.00     0.164 HD
ENDROOT
BRANCH   6  11
HETATM   11  C   UNL     1      38.109 -13.945  -2.508  1.00  0.00     0.087 C 
HETATM   12  C   UNL     1      37.478 -15.109  -3.269  1.00  0.00     0.032 C 
BRANCH  11  13
HETATM   13  C   UNL     1      38.614 -12.824  -3.442  1.00  0.00     0.085 C 
BRANCH  13  14
HETATM   14  C   UNL     1      40.064 -12.478  -3.269  1.00  0.00     0.058 A 
HETATM   15  N   UNL     1      41.032 -13.245  -3.794  1.00  0.00    -0.179 NA
HETATM   16  N   UNL     1      42.169 -12.626  -3.431  1.00  0.00    -0.282 N 
HETATM   17  H   UNL     1      43.052 -13.036  -3.716  1.00  0.00     0.189 HD
HETATM   18  C   UNL     1      41.967 -11.487  -2.704  1.00  0.00     0.026 A 
HETATM   19  C   UNL     1      43.077 -10.647  -2.204  1.00  0.00     0.070 C 
HETATM   20  C   UNL     1      40.602 -11.368  -2.577  1.00  0.00     0.055 A 
ENDBRANCH  13  14
ENDBRANCH  11  13
ENDBRANCH   6  11
BRANCH   1  21
HETATM   21  C   UNL     1      42.729 -17.559   2.591  1.00  0.00    -0.030 A 
HETATM   22  C   UNL     1      43.270 -18.673   1.937  1.00  0.00     0.014 A 
HETATM   23  C   UNL     1      44.081 -19.592   2.621  1.00  0.00     0.037 A 
HETATM   24  C   UNL     1      44.362 -19.410   3.973  1.00  0.00     0.068 A 
HETATM   25  C   UNL     1      43.820 -18.309   4.635  1.00  0.00     0.037 A 
HETATM   26  C   UNL     1      43.019 -17.390   3.952  1.00  0.00     0.014 A 
BRANCH  24  27
HETATM   27  O   UNL     1      45.133 -20.224   4.754  1.00  0.00    -0.352 OA
BRANCH  27  28
HETATM   28  C   UNL     1      44.470 -21.288   5.436  1.00  0.00     0.171 C 
HETATM   29  C   UNL     1      44.768 -22.576   4.690  1.00  0.00     0.034 C 
ENDBRANCH  27  28
ENDBRANCH  24  27
ENDBRANCH   1  21
TORSDOF 6
ENDMDL
MODEL 2
REMARK VINA RESULT:      -7.4      3.973      5.834
REMARK  6 active torsions:
REMARK  status: ('A' for Active; 'I' for Inactive)
REMARK    1  A    between atoms: C_2  and  O_3 
REMARK    2  A    between atoms: O_3  and  C_4 
REMARK    3  A    between atoms: C_7  and  C_8 
REMARK       I    between atoms: N_11  and  C_12 
REMARK       I    between atoms: C_12  and  N_13 
REMARK    4  A    between atoms: N_13  and  C_14 
REMARK    5  A    between atoms: C_14  and  C_15 
REMARK    6  A    between atoms: C_15  and  C_16 
ROOT
HETATM    1  C   UNL     1      41.343 -16.714   3.088  1.00  0.00    -0.049 C 
HETATM    2  C   UNL     1      40.557 -16.402   1.837  1.00  0.00     0.059 C 
HETATM    3  C   UNL     1      39.355 -15.502   2.133  1.00  0.00     0.132 C 
HETATM    4  N   UNL     1      39.727 -14.381   2.989  1.00  0.00    -0.331 N 
HETATM    5  C   UNL     1      39.314 -13.109   2.631  1.00  0.00     0.318 C 
HETATM    6  N   UNL     1      39.596 -12.125   3.543  1.00  0.00    -0.338 N 
HETATM    7  O   UNL     1      38.762 -12.863   1.560  1.00  0.00    -0.247 OA
HETATM    8  C   UNL     1      40.326 -14.725   4.275  1.00  0.00     0.155 C 
HETATM    9  C   UNL     1      41.185 -15.953   4.189  1.00  0.00     0.001 C 
HETATM   10  H   UNL     1      39.480 -12.407   4.511  1.00  0.00     0.164 HD
ENDROOT
BRANCH   6  11
HETATM   11  C   UNL     1      39.142 -10.751   3.330  1.00  0.00     0.087 C 
HETATM   12  C   UNL     1      40.215  -9.957   2.588  1.00  0.00     0.032 C 
BRANCH  11  13
HETATM   13  C   UNL     1      38.724 -10.092   4.661  1.00  0.00     0.085 C 
BRANCH  13  14
HETATM   14  C   UNL     1      39.518 -10.540   5.853  1.00  0.00     0.058 A 
HETATM   15  N   UNL     1      39.176 -11.637   6.548  1.00  0.00    -0.179 NA
HETATM   16  N   UNL     1      40.101 -11.706   7.521  1.00  0.00    -0.282 N 
HETATM   17  H   UNL     1      40.041 -12.468   8.188  1.00  0.00     0.189 HD
HETATM   18  C   UNL     1      41.028 -10.704   7.470  1.00  0.00     0.026 A 
HETATM   19  C   UNL     1      42.138 -10.588   8.441  1.00  0.00     0.070 C 
HETATM   20  C   UNL     1      40.670  -9.923   6.396  1.00  0.00     0.055 A 
ENDBRANCH  13  14
ENDBRANCH  11  13
ENDBRANCH   6  11
BRANCH   1  21
HETATM   21  C   UNL     1      42.281 -17.856   3.079  1.00  0.00    -0.030 A 
HETATM   22  C   UNL     1      42.503 -18.617   1.924  1.00  0.00     0.014 A 
HETATM   23  C   UNL     1      43.422 -19.678   1.919  1.00  0.00     0.037 A 
HETATM   24  C   UNL     1      44.134 -19.994   3.074  1.00  0.00     0.068 A 
HETATM   25  C   UNL     1      43.914 -19.249   4.232  1.00  0.00     0.037 A 
HETATM   26  C   UNL     1      43.005 -18.188   4.234  1.00  0.00     0.014 A 
BRANCH  24  27
HETATM   27  O   UNL     1      45.055 -20.996   3.206  1.00  0.00    -0.352 OA
BRANCH  27  28
HETATM   28  C   UNL     1      44.564 -22.283   3.578  1.00  0.00     0.171 C 
HETATM   29  C   UNL     1      45.006 -22.554   5.005  1.00  0.00     0.034 C 
ENDBRANCH  27  28
ENDBRANCH  24  27
ENDBRANCH   1  21
TORSDOF 6
ENDMDL
MODEL 3
REMARK VINA RESULT:      -7.3      5.779      7.869
REMARK  6 active torsions:
REMARK  status: ('A' for Active; 'I' for Inactive)
REMARK    1  A    between atoms: C_2  and  O_3 
REMARK    2  A    between atoms: O_3  and  C_4 
REMARK    3  A    between atoms: C_7  and  C_8 
REMARK       I    between atoms: N_11  and  C_12 
REMARK       I    between atoms: C_12  and  N_13 
REMARK    4  A    between atoms: N_13  and  C_14 
REMARK    5  A    between atoms: C_14  and  C_15 
REMARK    6  A    between atoms: C_15  and  C_16 
ROOT
HETATM    1  C   UNL     1      42.419 -15.465   4.779  1.00  0.00    -0.049 C 
HETATM    2  C   UNL     1      40.957 -15.222   4.487  1.00  0.00     0.059 C 
HETATM    3  C   UNL     1      40.347 -14.206   5.456  1.00  0.00     0.132 C 
HETATM    4  N   UNL     1      41.205 -13.037   5.611  1.00  0.00    -0.331 N 
HETATM    5  C   UNL     1      40.632 -11.780   5.518  1.00  0.00     0.318 C 
HETATM    6  N   UNL     1      41.474 -10.732   5.793  1.00  0.00    -0.338 N 
HETATM    7  O   UNL     1      39.463 -11.602   5.181  1.00  0.00    -0.247 OA
HETATM    8  C   UNL     1      42.567 -13.293   6.068  1.00  0.00     0.155 C 
HETATM    9  C   UNL     1      43.110 -14.587   5.532  1.00  0.00     0.001 C 
HETATM   10  H   UNL     1      42.119 -10.906   6.557  1.00  0.00     0.164 HD
ENDROOT
BRANCH   6  11
HETATM   11  C   UNL     1      40.979  -9.357   5.814  1.00  0.00     0.087 C 
HETATM   12  C   UNL     1      41.464  -8.610   4.573  1.00  0.00     0.032 C 
BRANCH  11  13
HETATM   13  C   UNL     1      41.366  -8.647   7.128  1.00  0.00     0.085 C 
BRANCH  13  14
HETATM   14  C   UNL     1      41.471  -9.556   8.318  1.00  0.00     0.058 A 
HETATM   15  N   UNL     1      42.540 -10.347   8.499  1.00  0.00    -0.179 NA
HETATM   16  N   UNL     1      42.271 -10.999   9.644  1.00  0.00    -0.282 N 
HETATM   17  H   UNL     1      42.949 -11.672   9.985  1.00  0.00     0.189 HD
HETATM   18  C   UNL     1      41.077 -10.648  10.208  1.00  0.00     0.026 A 
HETATM   19  C   UNL     1      40.583 -11.239  11.471  1.00  0.00     0.070 C 
HETATM   20  C   UNL     1      40.529  -9.713   9.361  1.00  0.00     0.055 A 
ENDBRANCH  13  14
ENDBRANCH  11  13
ENDBRANCH   6  11
BRANCH   1  21
HETATM   21  C   UNL     1      43.069 -16.672   4.225  1.00  0.00    -0.030 A 
HETATM   22  C   UNL     1      43.371 -17.779   5.028  1.00  0.00     0.014 A 
HETATM   23  C   UNL     1      43.958 -18.931   4.483  1.00  0.00     0.037 A 
HETATM   24  C   UNL     1      44.253 -18.993   3.123  1.00  0.00     0.068 A 
HETATM   25  C   UNL     1      43.965 -17.893   2.316  1.00  0.00     0.037 A 
HETATM   26  C   UNL     1      43.373 -16.748   2.858  1.00  0.00     0.014 A 
BRANCH  24  27
HETATM   27  O   UNL     1      44.821 -20.049   2.467  1.00  0.00    -0.352 OA
BRANCH  27  28
HETATM   28  C   UNL     1      44.318 -21.348   2.772  1.00  0.00     0.171 C 
HETATM   29  C   UNL     1      43.966 -22.030   1.462  1.00  0.00     0.034 C 
ENDBRANCH  27  28
ENDBRANCH  24  27
ENDBRANCH   1  21
TORSDOF 6
ENDMDL
MODEL 4
REMARK VINA RESULT:      -6.9      2.715      3.718
REMARK  6 active torsions:
REMARK  status: ('A' for Active; 'I' for Inactive)
REMARK    1  A    between atoms: C_2  and  O_3 
REMARK    2  A    between atoms: O_3  and  C_4 
REMARK    3  A    between atoms: C_7  and  C_8 
REMARK       I    between atoms: N_11  and  C_12 
REMARK       I    between atoms: C_12  and  N_13 
REMARK    4  A    between atoms: N_13  and  C_14 
REMARK    5  A    between atoms: C_14  and  C_15 
REMARK    6  A    between atoms: C_15  and  C_16 
ROOT
HETATM    1  C   UNL     1      41.576 -16.504   2.009  1.00  0.00    -0.049 C 
HETATM    2  C   UNL     1      40.177 -16.485   2.576  1.00  0.00     0.059 C 
HETATM    3  C   UNL     1      39.509 -15.120   2.391  1.00  0.00     0.132 C 
HETATM    4  N   UNL     1      39.691 -14.618   1.035  1.00  0.00    -0.331 N 
HETATM    5  C   UNL     1      38.589 -14.123   0.359  1.00  0.00     0.318 C 
HETATM    6  N   UNL     1      38.857 -13.558  -0.863  1.00  0.00    -0.338 N 
HETATM    7  O   UNL     1      37.443 -14.208   0.797  1.00  0.00    -0.247 OA
HETATM    8  C   UNL     1      41.071 -14.479   0.579  1.00  0.00     0.155 C 
HETATM    9  C   UNL     1      41.960 -15.555   1.133  1.00  0.00     0.001 C 
HETATM   10  H   UNL     1      39.714 -13.017  -0.892  1.00  0.00     0.164 HD
ENDROOT
BRANCH   6  11
HETATM   11  C   UNL     1      37.797 -12.922  -1.644  1.00  0.00     0.087 C 
HETATM   12  C   UNL     1      38.050 -13.136  -3.135  1.00  0.00     0.032 C 
BRANCH  11  13
HETATM   13  C   UNL     1      37.650 -11.432  -1.270  1.00  0.00     0.085 C 
BRANCH  13  14
HETATM   14  C   UNL     1      36.551 -11.143  -0.290  1.00  0.00     0.058 A 
HETATM   15  N   UNL     1      36.809 -10.963   1.015  1.00  0.00    -0.179 NA
HETATM   16  N   UNL     1      35.599 -10.736   1.557  1.00  0.00    -0.282 N 
HETATM   17  H   UNL     1      35.542 -10.575   2.557  1.00  0.00     0.189 HD
HETATM   18  C   UNL     1      34.579 -10.753   0.648  1.00  0.00     0.026 A 
HETATM   19  C   UNL     1      33.167 -10.524   1.025  1.00  0.00     0.070 C 
HETATM   20  C   UNL     1      35.168 -11.023  -0.565  1.00  0.00     0.055 A 
ENDBRANCH  13  14
ENDBRANCH  11  13
ENDBRANCH   6  11
BRANCH   1  21
HETATM   21  C   UNL     1      42.505 -17.575   2.429  1.00  0.00    -0.030 A 
HETATM   22  C   UNL     1      43.187 -18.365   1.496  1.00  0.00     0.014 A 
HETATM   23  C   UNL     1      44.092 -19.355   1.907  1.00  0.00     0.037 A 
HETATM   24  C   UNL     1      44.328 -19.571   3.262  1.00  0.00     0.068 A 
HETATM   25  C   UNL     1      43.648 -18.796   4.201  1.00  0.00     0.037 A 
HETATM   26  C   UNL     1      42.752 -17.804   3.790  1.00  0.00     0.014 A 
BRANCH  24  27
HETATM   27  O   UNL     1      45.180 -20.497   3.796  1.00  0.00    -0.352 OA
BRANCH  27  28
HETATM   28  C   UNL     1      44.766 -21.143   4.999  1.00  0.00     0.171 C 
HETATM   29  C   UNL     1      44.760 -22.640   4.745  1.00  0.00     0.034 C 
ENDBRANCH  27  28
ENDBRANCH  24  27
ENDBRANCH   1  21
TORSDOF 6
ENDMDL
MODEL 5
REMARK VINA RESULT:      -6.9      5.745      8.828
REMARK  6 active torsions:
REMARK  status: ('A' for Active; 'I' for Inactive)
REMARK    1  A    between atoms: C_2  and  O_3 
REMARK    2  A    between atoms: O_3  and  C_4 
REMARK    3  A    between atoms: C_7  and  C_8 
REMARK       I    between atoms: N_11  and  C_12 
REMARK       I    between atoms: C_12  and  N_13 
REMARK    4  A    between atoms: N_13  and  C_14 
REMARK    5  A    between atoms: C_14  and  C_15 
REMARK    6  A    between atoms: C_15  and  C_16 
ROOT
HETATM    1  C   UNL     1      41.407 -12.220   5.554  1.00  0.00    -0.049 C 
HETATM    2  C   UNL     1      40.680 -11.881   4.275  1.00  0.00     0.059 C 
HETATM    3  C   UNL     1      41.484 -12.295   3.039  1.00  0.00     0.132 C 
HETATM    4  N   UNL     1      42.008 -13.649   3.175  1.00  0.00    -0.331 N 
HETATM    5  C   UNL     1      41.845 -14.531   2.121  1.00  0.00     0.318 C 
HETATM    6  N   UNL     1      42.467 -15.745   2.271  1.00  0.00    -0.338 N 
HETATM    7  O   UNL     1      41.164 -14.270   1.131  1.00  0.00    -0.247 OA
HETATM    8  C   UNL     1      42.858 -13.897   4.335  1.00  0.00     0.155 C 
HETATM    9  C   UNL     1      42.417 -13.113   5.538  1.00  0.00     0.001 C 
HETATM   10  H   UNL     1      43.381 -15.692   2.709  1.00  0.00     0.164 HD
ENDROOT
BRANCH   6  11
HETATM   11  C   UNL     1      42.446 -16.737   1.198  1.00  0.00     0.087 C 
HETATM   12  C   UNL     1      41.207 -17.621   1.331  1.00  0.00     0.032 C 
BRANCH  11  13
HETATM   13  C   UNL     1      43.758 -17.548   1.165  1.00  0.00     0.085 C 
BRANCH  13  14
HETATM   14  C   UNL     1      44.009 -18.374   2.394  1.00  0.00     0.058 A 
HETATM   15  N   UNL     1      43.919 -17.841   3.623  1.00  0.00    -0.179 NA
HETATM   16  N   UNL     1      44.211 -18.866   4.442  1.00  0.00    -0.282 N 
HETATM   17  H   UNL     1      44.211 -18.697   5.443  1.00  0.00     0.189 HD
HETATM   18  C   UNL     1      44.472 -20.036   3.787  1.00  0.00     0.026 A 
HETATM   19  C   UNL     1      44.813 -21.291   4.493  1.00  0.00     0.070 C 
HETATM   20  C   UNL     1      44.355 -19.744   2.448  1.00  0.00     0.055 A 
ENDBRANCH  13  14
ENDBRANCH  11  13
ENDBRANCH   6  11
BRANCH   1  21
HETATM   21  C   UNL     1      40.992 -11.562   6.811  1.00  0.00    -0.030 A 
HETATM   22  C   UNL     1      39.665 -11.599   7.256  1.00  0.00     0.014 A 
HETATM   23  C   UNL     1      39.289 -10.999   8.468  1.00  0.00     0.037 A 
HETATM   24  C   UNL     1      40.239 -10.351   9.254  1.00  0.00     0.068 A 
HETATM   25  C   UNL     1      41.562 -10.300   8.815  1.00  0.00     0.037 A 
HETATM   26  C   UNL     1      41.936 -10.905   7.612  1.00  0.00     0.014 A 
BRANCH  24  27
HETATM   27  O   UNL     1      40.010  -9.729  10.450  1.00  0.00    -0.352 OA
BRANCH  27  28
HETATM   28  C   UNL     1      40.911 -10.022  11.516  1.00  0.00     0.171 C 
HETATM   29  C   UNL     1      40.303 -11.138  12.347  1.00  0.00     0.034 C 
ENDBRANCH  27  28
ENDBRANCH  24  27
ENDBRANCH   1  21
TORSDOF 6
ENDMDL
MODEL 6
REMARK VINA RESULT:      -6.8      5.672      7.907
REMARK  6 active torsions:
REMARK  status: ('A' for Active; 'I' for Inactive)
REMARK    1  A    between atoms: C_2  and  O_3 
REMARK    2  A    between atoms: O_3  and  C_4 
REMARK    3  A    between atoms: C_7  and  C_8 
REMARK       I    between atoms: N_11  and  C_12 
REMARK       I    between atoms: C_12  and  N_13 
REMARK    4  A    between atoms: N_13  and  C_14 
REMARK    5  A    between atoms: C_14  and  C_15 
REMARK    6  A    between atoms: C_15  and  C_16 
ROOT
HETATM    1  C   UNL     1      41.103 -14.784   3.433  1.00  0.00    -0.049 C 
HETATM    2  C   UNL     1      40.598 -13.802   2.403  1.00  0.00     0.059 C 
HETATM    3  C   UNL     1      39.552 -12.852   2.992  1.00  0.00     0.132 C 
HETATM    4  N   UNL     1      39.984 -12.315   4.277  1.00  0.00    -0.331 N 
HETATM    5  C   UNL     1      39.877 -10.952   4.494  1.00  0.00     0.318 C 
HETATM    6  N   UNL     1      40.188 -10.536   5.764  1.00  0.00    -0.338 N 
HETATM    7  O   UNL     1      39.559 -10.158   3.611  1.00  0.00    -0.247 OA
HETATM    8  C   UNL     1      40.296 -13.295   5.312  1.00  0.00     0.155 C 
HETATM    9  C   UNL     1      40.915 -14.540   4.746  1.00  0.00     0.001 C 
HETATM   10  H   UNL     1      39.868 -11.160   6.497  1.00  0.00     0.164 HD
ENDROOT
BRANCH   6  11
HETATM   11  C   UNL     1      40.036  -9.135   6.153  1.00  0.00     0.087 C 
HETATM   12  C   UNL     1      41.408  -8.511   6.398  1.00  0.00     0.032 C 
BRANCH  11  13
HETATM   13  C   UNL     1      39.090  -8.994   7.364  1.00  0.00     0.085 C 
BRANCH  13  14
HETATM   14  C   UNL     1      39.362  -9.960   8.480  1.00  0.00     0.058 A 
HETATM   15  N   UNL     1      38.997 -11.249   8.393  1.00  0.00    -0.179 NA
HETATM   16  N   UNL     1      39.397 -11.780   9.561  1.00  0.00    -0.282 N 
HETATM   17  H   UNL     1      39.219 -12.764   9.729  1.00  0.00     0.189 HD
HETATM   18  C   UNL     1      40.014 -10.884  10.388  1.00  0.00     0.026 A 
HETATM   19  C   UNL     1      40.537 -11.254  11.722  1.00  0.00     0.070 C 
HETATM   20  C   UNL     1      40.001  -9.686   9.713  1.00  0.00     0.055 A 
ENDBRANCH  13  14
ENDBRANCH  11  13
ENDBRANCH   6  11
BRANCH   1  21
HETATM   21  C   UNL     1      41.802 -16.005   2.978  1.00  0.00    -0.030 A 
HETATM   22  C   UNL     1      41.152 -16.986   2.219  1.00  0.00     0.014 A 
HETATM   23  C   UNL     1      41.835 -18.123   1.764  1.00  0.00     0.037 A 
HETATM   24  C   UNL     1      43.185 -18.297   2.064  1.00  0.00     0.068 A 
HETATM   25  C   UNL     1      43.840 -17.331   2.826  1.00  0.00     0.037 A 
HETATM   26  C   UNL     1      43.160 -16.194   3.272  1.00  0.00     0.014 A 
BRANCH  24  27
HETATM   27  O   UNL     1      43.967 -19.353   1.684  1.00  0.00    -0.352 OA
BRANCH  27  28
HETATM   28  C   UNL     1      43.996 -20.484   2.552  1.00  0.00     0.171 C 
HETATM   29  C   UNL     1      43.861 -21.731   1.697  1.00  0.00     0.034 C 
ENDBRANCH  27  28
ENDBRANCH  24  27
ENDBRANCH   1  21
TORSDOF 6
ENDMDL
MODEL 7
REMARK VINA RESULT:      -6.7      1.866      2.298
REMARK  6 active torsions:
REMARK  status: ('A' for Active; 'I' for Inactive)
REMARK    1  A    between atoms: C_2  and  O_3 
REMARK    2  A    between atoms: O_3  and  C_4 
REMARK    3  A    between atoms: C_7  and  C_8 
REMARK       I    between atoms: N_11  and  C_12 
REMARK       I    between atoms: C_12  and  N_13 
REMARK    4  A    between atoms: N_13  and  C_14 
REMARK    5  A    between atoms: C_14  and  C_15 
REMARK    6  A    between atoms: C_15  and  C_16 
ROOT
HETATM    1  C   UNL     1      41.179 -15.412   3.102  1.00  0.00    -0.049 C 
HETATM    2  C   UNL     1      39.797 -14.805   3.099  1.00  0.00     0.059 C 
HETATM    3  C   UNL     1      39.625 -13.792   1.964  1.00  0.00     0.132 C 
HETATM    4  N   UNL     1      40.131 -14.317   0.701  1.00  0.00    -0.331 N 
HETATM    5  C   UNL     1      39.340 -14.201  -0.429  1.00  0.00     0.318 C 
HETATM    6  N   UNL     1      39.928 -14.607  -1.600  1.00  0.00    -0.338 N 
HETATM    7  O   UNL     1      38.179 -13.795  -0.392  1.00  0.00    -0.247 OA
HETATM    8  C   UNL     1      41.530 -14.732   0.690  1.00  0.00     0.155 C 
HETATM    9  C   UNL     1      41.954 -15.328   2.002  1.00  0.00     0.001 C 
HETATM   10  H   UNL     1      40.909 -14.361  -1.679  1.00  0.00     0.164 HD
ENDROOT
BRANCH   6  11
HETATM   11  C   UNL     1      39.235 -14.459  -2.878  1.00  0.00     0.087 C 
HETATM   12  C   UNL     1      39.268 -15.780  -3.644  1.00  0.00     0.032 C 
BRANCH  11  13
HETATM   13  C   UNL     1      39.815 -13.282  -3.692  1.00  0.00     0.085 C 
BRANCH  13  14
HETATM   14  C   UNL     1      41.069 -12.689  -3.119  1.00  0.00     0.058 A 
HETATM   15  N   UNL     1      42.204 -13.401  -3.038  1.00  0.00    -0.179 NA
HETATM   16  N   UNL     1      43.081 -12.549  -2.478  1.00  0.00    -0.282 N 
HETATM   17  H   UNL     1      44.027 -12.875  -2.309  1.00  0.00     0.189 HD
HETATM   18  C   UNL     1      42.555 -11.317  -2.209  1.00  0.00     0.026 A 
HETATM   19  C   UNL     1      43.344 -10.226  -1.596  1.00  0.00     0.070 C 
HETATM   20  C   UNL     1      41.241 -11.380  -2.610  1.00  0.00     0.055 A 
ENDBRANCH  13  14
ENDBRANCH  11  13
ENDBRANCH   6  11
BRANCH   1  21
HETATM   21  C   UNL     1      41.659 -16.096   4.322  1.00  0.00    -0.030 A 
HETATM   22  C   UNL     1      40.853 -16.221   5.460  1.00  0.00     0.014 A 
HETATM   23  C   UNL     1      41.308 -16.902   6.600  1.00  0.00     0.037 A 
HETATM   24  C   UNL     1      42.580 -17.469   6.617  1.00  0.00     0.068 A 
HETATM   25  C   UNL     1      43.394 -17.344   5.492  1.00  0.00     0.037 A 
HETATM   26  C   UNL     1      42.937 -16.672   4.354  1.00  0.00     0.014 A 
BRANCH  24  27
HETATM   27  O   UNL     1      43.143 -18.157   7.656  1.00  0.00    -0.352 OA
BRANCH  27  28
HETATM   28  C   UNL     1      44.162 -19.101   7.332  1.00  0.00     0.171 C 
HETATM   29  C   UNL     1      43.582 -20.493   7.512  1.00  0.00     0.034 C 
ENDBRANCH  27  28
ENDBRANCH  24  27
ENDBRANCH   1  21
TORSDOF 6
ENDMDL
MODEL 8
REMARK VINA RESULT:      -6.7      1.689      3.166
REMARK  6 active torsions:
REMARK  status: ('A' for Active; 'I' for Inactive)
REMARK    1  A    between atoms: C_2  and  O_3 
REMARK    2  A    between atoms: O_3  and  C_4 
REMARK    3  A    between atoms: C_7  and  C_8 
REMARK       I    between atoms: N_11  and  C_12 
REMARK       I    between atoms: C_12  and  N_13 
REMARK    4  A    between atoms: N_13  and  C_14 
REMARK    5  A    between atoms: C_14  and  C_15 
REMARK    6  A    between atoms: C_15  and  C_16 
ROOT
HETATM    1  C   UNL     1      42.695 -16.592   1.883  1.00  0.00    -0.049 C 
HETATM    2  C   UNL     1      42.330 -16.990   0.473  1.00  0.00     0.059 C 
HETATM    3  C   UNL     1      41.344 -16.003  -0.156  1.00  0.00     0.132 C 
HETATM    4  N   UNL     1      41.757 -14.622   0.066  1.00  0.00    -0.331 N 
HETATM    5  C   UNL     1      41.759 -13.751  -1.009  1.00  0.00     0.318 C 
HETATM    6  N   UNL     1      42.042 -12.444  -0.702  1.00  0.00    -0.338 N 
HETATM    7  O   UNL     1      41.556 -14.116  -2.165  1.00  0.00    -0.247 OA
HETATM    8  C   UNL     1      41.929 -14.218   1.458  1.00  0.00     0.155 C 
HETATM    9  C   UNL     1      42.464 -15.334   2.309  1.00  0.00     0.001 C 
HETATM   10  H   UNL     1      41.633 -12.123   0.169  1.00  0.00     0.164 HD
ENDROOT
BRANCH   6  11
HETATM   11  C   UNL     1      41.994 -11.404  -1.729  1.00  0.00     0.087 C 
HETATM   12  C   UNL     1      43.207 -10.486  -1.597  1.00  0.00     0.032 C 
BRANCH  11  13
HETATM   13  C   UNL     1      40.656 -10.638  -1.681  1.00  0.00     0.085 C 
BRANCH  13  14
HETATM   14  C   UNL     1      39.447 -11.478  -1.975  1.00  0.00     0.058 A 
HETATM   15  N   UNL     1      38.685 -11.973  -0.987  1.00  0.00    -0.179 NA
HETATM   16  N   UNL     1      37.725 -12.659  -1.631  1.00  0.00    -0.282 N 
HETATM   17  H   UNL     1      37.021 -13.136  -1.078  1.00  0.00     0.189 HD
HETATM   18  C   UNL     1      37.836 -12.612  -2.992  1.00  0.00     0.026 A 
HETATM   19  C   UNL     1      36.884 -13.294  -3.898  1.00  0.00     0.070 C 
HETATM   20  C   UNL     1      38.955 -11.854  -3.247  1.00  0.00     0.055 A 
ENDBRANCH  13  14
ENDBRANCH  11  13
ENDBRANCH   6  11
BRANCH   1  21
HETATM   21  C   UNL     1      43.306 -17.599   2.777  1.00  0.00    -0.030 A 
HETATM   22  C   UNL     1      43.882 -18.773   2.277  1.00  0.00     0.014 A 
HETATM   23  C   UNL     1      44.489 -19.705   3.133  1.00  0.00     0.037 A 
HETATM   24  C   UNL     1      44.528 -19.475   4.506  1.00  0.00     0.068 A 
HETATM   25  C   UNL     1      43.950 -18.314   5.016  1.00  0.00     0.037 A 
HETATM   26  C   UNL     1      43.352 -17.382   4.162  1.00  0.00     0.014 A 
BRANCH  24  27
HETATM   27  O   UNL     1      45.086 -20.296   5.447  1.00  0.00    -0.352 OA
BRANCH  27  28
HETATM   28  C   UNL     1      44.346 -21.457   5.815  1.00  0.00     0.171 C 
HETATM   29  C   UNL     1      44.971 -22.650   5.115  1.00  0.00     0.034 C 
ENDBRANCH  27  28
ENDBRANCH  24  27
ENDBRANCH   1  21
TORSDOF 6
ENDMDL
MODEL 9
REMARK VINA RESULT:      -6.7      1.949      2.896
REMARK  6 active torsions:
REMARK  status: ('A' for Active; 'I' for Inactive)
REMARK    1  A    between atoms: C_2  and  O_3 
REMARK    2  A    between atoms: O_3  and  C_4 
REMARK    3  A    between atoms: C_7  and  C_8 
REMARK       I    between atoms: N_11  and  C_12 
REMARK       I    between atoms: C_12  and  N_13 
REMARK    4  A    between atoms: N_13  and  C_14 
REMARK    5  A    between atoms: C_14  and  C_15 
REMARK    6  A    between atoms: C_15  and  C_16 
ROOT
HETATM    1  C   UNL     1      42.044 -16.715   2.046  1.00  0.00    -0.049 C 
HETATM    2  C   UNL     1      40.875 -16.142   2.812  1.00  0.00     0.059 C 
HETATM    3  C   UNL     1      40.411 -14.808   2.222  1.00  0.00     0.132 C 
HETATM    4  N   UNL     1      40.292 -14.881   0.770  1.00  0.00    -0.331 N 
HETATM    5  C   UNL     1      39.141 -14.394   0.175  1.00  0.00     0.318 C 
HETATM    6  N   UNL     1      39.150 -14.386  -1.197  1.00  0.00    -0.338 N 
HETATM    7  O   UNL     1      38.161 -14.025   0.819  1.00  0.00    -0.247 OA
HETATM    8  C   UNL     1      41.497 -15.268   0.044  1.00  0.00     0.155 C 
HETATM    9  C   UNL     1      42.320 -16.268   0.805  1.00  0.00     0.001 C 
HETATM   10  H   UNL     1      40.042 -14.127  -1.605  1.00  0.00     0.164 HD
ENDROOT
BRANCH   6  11
HETATM   11  C   UNL     1      38.033 -13.819  -1.952  1.00  0.00     0.087 C 
HETATM   12  C   UNL     1      37.701 -14.717  -3.142  1.00  0.00     0.032 C 
BRANCH  11  13
HETATM   13  C   UNL     1      38.325 -12.362  -2.365  1.00  0.00     0.085 C 
BRANCH  13  14
HETATM   14  C   UNL     1      37.216 -11.698  -3.128  1.00  0.00     0.058 A 
HETATM   15  N   UNL     1      36.034 -11.430  -2.550  1.00  0.00    -0.179 NA
HETATM   16  N   UNL     1      35.317 -10.853  -3.530  1.00  0.00    -0.282 N 
HETATM   17  H   UNL     1      34.367 -10.564  -3.324  1.00  0.00     0.189 HD
HETATM   18  C   UNL     1      35.997 -10.731  -4.709  1.00  0.00     0.026 A 
HETATM   19  C   UNL     1      35.400 -10.123  -5.919  1.00  0.00     0.070 C 
HETATM   20  C   UNL     1      37.237 -11.280  -4.480  1.00  0.00     0.055 A 
ENDBRANCH  13  14
ENDBRANCH  11  13
ENDBRANCH   6  11
BRANCH   1  21
HETATM   21  C   UNL     1      42.869 -17.767   2.679  1.00  0.00    -0.030 A 
HETATM   22  C   UNL     1      43.134 -18.981   2.033  1.00  0.00     0.014 A 
HETATM   23  C   UNL     1      43.946 -19.957   2.629  1.00  0.00     0.037 A 
HETATM   24  C   UNL     1      44.506 -19.733   3.885  1.00  0.00     0.068 A 
HETATM   25  C   UNL     1      44.241 -18.532   4.541  1.00  0.00     0.037 A 
HETATM   26  C   UNL     1      43.438 -17.556   3.943  1.00  0.00     0.014 A 
BRANCH  24  27
HETATM   27  O   UNL     1      45.311 -20.595   4.576  1.00  0.00    -0.352 OA
BRANCH  27  28
HETATM   28  C   UNL     1      44.710 -21.791   5.069  1.00  0.00     0.171 C 
HETATM   29  C   UNL     1      44.081 -21.474   6.414  1.00  0.00     0.034 C 
ENDBRANCH  27  28
ENDBRANCH  24  27
ENDBRANCH   1  21
TORSDOF 6
ENDMDL
MODEL 10
REMARK VINA RESULT:      -6.6      2.242      2.975
REMARK  6 active torsions:
REMARK  status: ('A' for Active; 'I' for Inactive)
REMARK    1  A    between atoms: C_2  and  O_3 
REMARK    2  A    between atoms: O_3  and  C_4 
REMARK    3  A    between atoms: C_7  and  C_8 
REMARK       I    between atoms: N_11  and  C_12 
REMARK       I    between atoms: C_12  and  N_13 
REMARK    4  A    between atoms: N_13  and  C_14 
REMARK    5  A    between atoms: C_14  and  C_15 
REMARK    6  A    between atoms: C_15  and  C_16 
ROOT
HETATM    1  C   UNL     1      41.888 -17.137   1.859  1.00  0.00    -0.049 C 
HETATM    2  C   UNL     1      42.382 -16.682   0.507  1.00  0.00     0.059 C 
HETATM    3  C   UNL     1      41.251 -16.098  -0.342  1.00  0.00     0.132 C 
HETATM    4  N   UNL     1      40.437 -15.162   0.426  1.00  0.00    -0.331 N 
HETATM    5  C   UNL     1      40.135 -13.933  -0.135  1.00  0.00     0.318 C 
HETATM    6  N   UNL     1      39.269 -13.155   0.591  1.00  0.00    -0.338 N 
HETATM    7  O   UNL     1      40.628 -13.541  -1.191  1.00  0.00    -0.247 OA
HETATM    8  C   UNL     1      39.825 -15.688   1.642  1.00  0.00     0.155 C 
HETATM    9  C   UNL     1      40.704 -16.695   2.328  1.00  0.00     0.001 C 
HETATM   10  H   UNL     1      38.518 -13.673   1.035  1.00  0.00     0.164 HD
ENDROOT
BRANCH   6  11
HETATM   11  C   UNL     1      38.801 -11.870   0.075  1.00  0.00     0.087 C 
HETATM   12  C   UNL     1      38.827 -10.822   1.185  1.00  0.00     0.032 C 
BRANCH  11  13
HETATM   13  C   UNL     1      37.412 -12.009  -0.583  1.00  0.00     0.085 C 
BRANCH  13  14
HETATM   14  C   UNL     1      37.424 -11.945  -2.082  1.00  0.00     0.058 A 
HETATM   15  N   UNL     1      37.629 -13.043  -2.826  1.00  0.00    -0.179 NA
HETATM   16  N   UNL     1      37.575 -12.592  -4.092  1.00  0.00    -0.282 N 
HETATM   17  H   UNL     1      37.711 -13.257  -4.846  1.00  0.00     0.189 HD
HETATM   18  C   UNL     1      37.333 -11.251  -4.187  1.00  0.00     0.026 A 
HETATM   19  C   UNL     1      37.230 -10.545  -5.483  1.00  0.00     0.070 C 
HETATM   20  C   UNL     1      37.236 -10.800  -2.891  1.00  0.00     0.055 A 
ENDBRANCH  13  14
ENDBRANCH  11  13
ENDBRANCH   6  11
BRANCH   1  21
HETATM   21  C   UNL     1      42.722 -18.066   2.652  1.00  0.00    -0.030 A 
HETATM   22  C   UNL     1      43.355 -19.169   2.066  1.00  0.00     0.014 A 
HETATM   23  C   UNL     1      44.171 -20.024   2.822  1.00  0.00     0.037 A 
HETATM   24  C   UNL     1      44.366 -19.787   4.181  1.00  0.00     0.068 A 
HETATM   25  C   UNL     1      43.734 -18.696   4.777  1.00  0.00     0.037 A 
HETATM   26  C   UNL     1      42.927 -17.841   4.021  1.00  0.00     0.014 A 
BRANCH  24  27
HETATM   27  O   UNL     1      45.133 -20.536   5.029  1.00  0.00    -0.352 OA
BRANCH  27  28
HETATM   28  C   UNL     1      44.548 -21.727   5.551  1.00  0.00     0.171 C 
HETATM   29  C   UNL     1      43.836 -21.370   6.843  1.00  0.00     0.034 C 
ENDBRANCH  27  28
ENDBRANCH  24  27
ENDBRANCH   1  21
TORSDOF 6
ENDMDL
