MODEL 1
REMARK VINA RESULT:     -10.9      0.000      0.000
REMARK  7 active torsions:
REMARK  status: ('A' for Active; 'I' for Inactive)
REMARK    1  A    between atoms: C_3  and  N_4 
REMARK       I    between atoms: N_4  and  C_5 
REMARK    2  A    between atoms: C_5  and  C_6 
REMARK    3  A    between atoms: C_6  and  N_7 
REMARK    4  A    between atoms: N_10  and  C_11 
REMARK    5  A    between atoms: C_11  and  C_12 
REMARK    6  A    between atoms: C_27  and  C_28 
REMARK       I    between atoms: C_28  and  N_29 
REMARK    7  A    between atoms: N_29  and  C_30 
ROOT
HETATM    1  N   UNL     1      42.077 -15.557   3.758  1.00  0.00    -0.290 N 
HETATM    2  C   UNL     1      40.936 -15.799   3.008  1.00  0.00     0.332 C 
HETATM    3  O   UNL     1      40.708 -16.944   2.611  1.00  0.00    -0.246 OA
HETATM    4  N   UNL     1      40.092 -14.724   2.786  1.00  0.00    -0.261 N 
HETATM    5  C   UNL     1      40.117 -13.569   3.557  1.00  0.00     0.264 C 
HETATM    6  O   UNL     1      39.278 -12.673   3.486  1.00  0.00    -0.267 OA
HETATM    7  C   UNL     1      41.194 -13.455   4.559  1.00  0.00     0.059 A 
HETATM    8  C   UNL     1      42.161 -14.453   4.639  1.00  0.00     0.056 A 
HETATM    9  C   UNL     1      41.232 -12.347   5.417  1.00  0.00     0.020 A 
HETATM   10  C   UNL     1      42.221 -12.251   6.399  1.00  0.00     0.018 A 
HETATM   11  C   UNL     1      43.167 -13.271   6.536  1.00  0.00     0.034 A 
HETATM   12  C   UNL     1      43.146 -14.354   5.633  1.00  0.00     0.048 A 
ENDROOT
BRANCH   1  13
HETATM   13  C   UNL     1      43.228 -16.439   3.532  1.00  0.00     0.237 C 
BRANCH  13  14
HETATM   14  C   UNL     1      43.198 -17.856   4.113  1.00  0.00     0.240 C 
HETATM   15  N   UNL     1      44.075 -18.736   3.514  1.00  0.00    -0.325 N 
HETATM   16  H   UNL     1      44.825 -18.273   3.005  1.00  0.00     0.169 HD
HETATM   17  O   UNL     1      42.550 -18.062   5.136  1.00  0.00    -0.271 OA
BRANCH  15  18
HETATM   18  C   UNL     1      44.310 -20.097   3.821  1.00  0.00     0.040 A 
HETATM   19  C   UNL     1      44.300 -21.181   2.924  1.00  0.00    -0.035 A 
HETATM   20  C   UNL     1      44.124 -21.075   1.435  1.00  0.00     0.050 C 
HETATM   21  C   UNL     1      44.486 -22.485   3.434  1.00  0.00     0.009 A 
HETATM   22  C   UNL     1      44.745 -22.712   4.783  1.00  0.00     0.001 A 
HETATM   23  C   UNL     1      44.826 -21.636   5.655  1.00  0.00     0.002 A 
HETATM   24  C   UNL     1      44.611 -20.343   5.175  1.00  0.00     0.030 A 
ENDBRANCH  15  18
ENDBRANCH  13  14
ENDBRANCH   1  13
BRANCH   4  25
HETATM   25  C   UNL     1      38.927 -14.918   1.922  1.00  0.00     0.175 C 
BRANCH  25  26
HETATM   26  C   UNL     1      39.085 -14.410   0.502  1.00  0.00    -0.037 A 
HETATM   27  C   UNL     1      40.303 -14.542  -0.187  1.00  0.00     0.048 A 
HETATM   28  C   UNL     1      40.358 -14.100  -1.493  1.00  0.00     0.105 A 
HETATM   29  C   UNL     1      39.273 -13.524  -2.115  1.00  0.00     0.105 A 
HETATM   30  O   UNL     1      41.441 -14.178  -2.315  1.00  0.00    -0.323 OA
HETATM   31  O   UNL     1      39.535 -13.170  -3.401  1.00  0.00    -0.323 OA
HETATM   32  C   UNL     1      38.072 -13.353  -1.466  1.00  0.00     0.040 A 
HETATM   33  C   UNL     1      40.900 -13.615  -3.531  1.00  0.00     0.352 A 
HETATM   34  C   UNL     1      37.982 -13.801  -0.145  1.00  0.00     0.012 A 
ENDBRANCH  25  26
ENDBRANCH   4  25
BRANCH  11  35
HETATM   35  C   UNL     1      44.203 -13.289   7.616  1.00  0.00     0.252 C 
HETATM   36  N   UNL     1      44.106 -12.338   8.616  1.00  0.00    -0.352 N 
HETATM   37  H   UNL     1      43.293 -11.746   8.669  1.00  0.00     0.163 HD
HETATM   38  O   UNL     1      45.073 -14.153   7.598  1.00  0.00    -0.268 OA
BRANCH  36  39
HETATM   39  C   UNL     1      44.969 -12.373   9.797  1.00  0.00     0.084 C 
HETATM   40  C   UNL     1      45.662 -11.021  10.007  1.00  0.00     0.025 C 
HETATM   41  C   UNL     1      44.714  -9.934  10.508  1.00  0.00     0.002 C 
HETATM   42  C   UNL     1      43.956 -10.377  11.754  1.00  0.00     0.000 C 
HETATM   43  C   UNL     1      43.220 -11.694  11.527  1.00  0.00     0.002 C 
HETATM   44  C   UNL     1      44.164 -12.792  11.036  1.00  0.00     0.025 C 
ENDBRANCH  36  39
ENDBRANCH  11  35
TORSDOF 7
ENDMDL
MODEL 2
REMARK VINA RESULT:     -10.2      1.958      2.664
REMARK  7 active torsions:
REMARK  status: ('A' for Active; 'I' for Inactive)
REMARK    1  A    between atoms: C_3  and  N_4 
REMARK       I    between atoms: N_4  and  C_5 
REMARK    2  A    between atoms: C_5  and  C_6 
REMARK    3  A    between atoms: C_6  and  N_7 
REMARK    4  A    between atoms: N_10  and  C_11 
REMARK    5  A    between atoms: C_11  and  C_12 
REMARK    6  A    between atoms: C_27  and  C_28 
REMARK       I    between atoms: C_28  and  N_29 
REMARK    7  A    between atoms: N_29  and  C_30 
ROOT
HETATM    1  N   UNL     1      41.304 -14.280   4.860  1.00  0.00    -0.290 N 
HETATM    2  C   UNL     1      40.450 -14.823   3.913  1.00  0.00     0.332 C 
HETATM    3  O   UNL     1      40.277 -16.044   3.887  1.00  0.00    -0.246 OA
HETATM    4  N   UNL     1      39.803 -13.935   3.069  1.00  0.00    -0.261 N 
HETATM    5  C   UNL     1      39.665 -12.583   3.355  1.00  0.00     0.264 C 
HETATM    6  O   UNL     1      38.962 -11.809   2.708  1.00  0.00    -0.267 OA
HETATM    7  C   UNL     1      40.369 -12.073   4.547  1.00  0.00     0.059 A 
HETATM    8  C   UNL     1      41.183 -12.934   5.279  1.00  0.00     0.056 A 
HETATM    9  C   UNL     1      40.212 -10.734   4.929  1.00  0.00     0.020 A 
HETATM   10  C   UNL     1      40.838 -10.253   6.081  1.00  0.00     0.018 A 
HETATM   11  C   UNL     1      41.612 -11.114   6.865  1.00  0.00     0.034 A 
HETATM   12  C   UNL     1      41.802 -12.446   6.439  1.00  0.00     0.048 A 
ENDROOT
BRANCH   1  13
HETATM   13  C   UNL     1      42.398 -15.130   5.342  1.00  0.00     0.237 C 
BRANCH  13  14
HETATM   14  C   UNL     1      43.112 -16.051   4.346  1.00  0.00     0.240 C 
HETATM   15  N   UNL     1      42.903 -17.396   4.562  1.00  0.00    -0.325 N 
HETATM   16  H   UNL     1      42.080 -17.589   5.129  1.00  0.00     0.169 HD
HETATM   17  O   UNL     1      43.659 -15.551   3.366  1.00  0.00    -0.271 OA
BRANCH  15  18
HETATM   18  C   UNL     1      43.393 -18.497   3.822  1.00  0.00     0.040 A 
HETATM   19  C   UNL     1      42.996 -18.893   2.531  1.00  0.00    -0.035 A 
HETATM   20  C   UNL     1      42.028 -18.150   1.653  1.00  0.00     0.050 C 
HETATM   21  C   UNL     1      43.551 -20.071   1.982  1.00  0.00     0.009 A 
HETATM   22  C   UNL     1      44.524 -20.804   2.658  1.00  0.00     0.001 A 
HETATM   23  C   UNL     1      44.965 -20.373   3.899  1.00  0.00     0.002 A 
HETATM   24  C   UNL     1      44.405 -19.231   4.472  1.00  0.00     0.030 A 
ENDBRANCH  15  18
ENDBRANCH  13  14
ENDBRANCH   1  13
BRANCH   4  25
HETATM   25  C   UNL     1      38.966 -14.474   1.998  1.00  0.00     0.175 C 
BRANCH  25  26
HETATM   26  C   UNL     1      39.575 -14.414   0.610  1.00  0.00    -0.037 A 
HETATM   27  C   UNL     1      39.004 -13.622  -0.402  1.00  0.00     0.048 A 
HETATM   28  C   UNL     1      39.642 -13.581  -1.625  1.00  0.00     0.105 A 
HETATM   29  C   UNL     1      40.787 -14.300  -1.876  1.00  0.00     0.105 A 
HETATM   30  O   UNL     1      39.248 -12.846  -2.703  1.00  0.00    -0.323 OA
HETATM   31  O   UNL     1      41.258 -14.110  -3.138  1.00  0.00    -0.323 OA
HETATM   32  C   UNL     1      41.361 -15.107  -0.921  1.00  0.00     0.040 A 
HETATM   33  C   UNL     1      40.296 -13.164  -3.645  1.00  0.00     0.352 A 
HETATM   34  C   UNL     1      40.745 -15.162   0.332  1.00  0.00     0.012 A 
ENDBRANCH  25  26
ENDBRANCH   4  25
BRANCH  11  35
HETATM   35  C   UNL     1      42.243 -10.702   8.158  1.00  0.00     0.252 C 
HETATM   36  N   UNL     1      41.449 -10.048   9.081  1.00  0.00    -0.352 N 
HETATM   37  H   UNL     1      40.456  -9.972   8.926  1.00  0.00     0.163 HD
HETATM   38  O   UNL     1      43.418 -10.983   8.367  1.00  0.00    -0.268 OA
BRANCH  36  39
HETATM   39  C   UNL     1      41.925  -9.751  10.432  1.00  0.00     0.084 C 
HETATM   40  C   UNL     1      41.220  -8.513  10.999  1.00  0.00     0.025 C 
HETATM   41  C   UNL     1      39.763  -8.772  11.375  1.00  0.00     0.002 C 
HETATM   42  C   UNL     1      39.625  -9.973  12.304  1.00  0.00     0.000 C 
HETATM   43  C   UNL     1      40.277 -11.220  11.714  1.00  0.00     0.002 C 
HETATM   44  C   UNL     1      41.741 -10.972  11.346  1.00  0.00     0.025 C 
ENDBRANCH  36  39
ENDBRANCH  11  35
TORSDOF 7
ENDMDL
MODEL 3
REMARK VINA RESULT:     -10.1      1.813      2.845
REMARK  7 active torsions:
REMARK  status: ('A' for Active; 'I' for Inactive)
REMARK    1  A    between atoms: C_3  and  N_4 
REMARK       I    between atoms: N_4  and  C_5 
REMARK    2  A    between atoms: C_5  and  C_6 
REMARK    3  A    between atoms: C_6  and  N_7 
REMARK    4  A    between atoms: N_10  and  C_11 
REMARK    5  A    between atoms: C_11  and  C_12 
REMARK    6  A    between atoms: C_27  and  C_28 
REMARK       I    between atoms: C_28  and  N_29 
REMARK    7  A    between atoms: N_29  and  C_30 
ROOT
HETATM    1  N   UNL     1      41.210 -13.874   5.155  1.00  0.00    -0.290 N 
HETATM    2  C   UNL     1      40.388 -14.564   4.276  1.00  0.00     0.332 C 
HETATM    3  O   UNL     1      40.269 -15.786   4.396  1.00  0.00    -0.246 OA
HETATM    4  N   UNL     1      39.712 -13.813   3.330  1.00  0.00    -0.261 N 
HETATM    5  C   UNL     1      39.511 -12.444   3.451  1.00  0.00     0.264 C 
HETATM    6  O   UNL     1      38.781 -11.785   2.713  1.00  0.00    -0.267 OA
HETATM    7  C   UNL     1      40.181 -11.765   4.577  1.00  0.00     0.059 A 
HETATM    8  C   UNL     1      41.025 -12.495   5.409  1.00  0.00     0.056 A 
HETATM    9  C   UNL     1      39.962 -10.398   4.795  1.00  0.00     0.020 A 
HETATM   10  C   UNL     1      40.555  -9.755   5.884  1.00  0.00     0.018 A 
HETATM   11  C   UNL     1      41.360 -10.482   6.768  1.00  0.00     0.034 A 
HETATM   12  C   UNL     1      41.611 -11.844   6.505  1.00  0.00     0.048 A 
ENDROOT
BRANCH   1  13
HETATM   13  C   UNL     1      42.335 -14.612   5.739  1.00  0.00     0.237 C 
BRANCH  13  14
HETATM   14  C   UNL     1      43.150 -15.550   4.842  1.00  0.00     0.240 C 
HETATM   15  N   UNL     1      42.796 -16.879   4.937  1.00  0.00    -0.325 N 
HETATM   16  H   UNL     1      41.867 -17.021   5.329  1.00  0.00     0.169 HD
HETATM   17  O   UNL     1      43.912 -15.060   4.013  1.00  0.00    -0.271 OA
BRANCH  15  18
HETATM   18  C   UNL     1      43.328 -17.988   4.239  1.00  0.00     0.040 A 
HETATM   19  C   UNL     1      44.224 -18.952   4.738  1.00  0.00    -0.035 A 
HETATM   20  C   UNL     1      44.715 -19.030   6.156  1.00  0.00     0.050 C 
HETATM   21  C   UNL     1      44.703 -19.951   3.861  1.00  0.00     0.009 A 
HETATM   22  C   UNL     1      44.259 -20.041   2.544  1.00  0.00     0.001 A 
HETATM   23  C   UNL     1      43.322 -19.133   2.074  1.00  0.00     0.002 A 
HETATM   24  C   UNL     1      42.862 -18.119   2.916  1.00  0.00     0.030 A 
ENDBRANCH  15  18
ENDBRANCH  13  14
ENDBRANCH   1  13
BRANCH   4  25
HETATM   25  C   UNL     1      38.909 -14.513   2.327  1.00  0.00     0.175 C 
BRANCH  25  26
HETATM   26  C   UNL     1      39.563 -14.666   0.968  1.00  0.00    -0.037 A 
HETATM   27  C   UNL     1      39.116 -13.929  -0.143  1.00  0.00     0.048 A 
HETATM   28  C   UNL     1      39.791 -14.086  -1.336  1.00  0.00     0.105 A 
HETATM   29  C   UNL     1      40.858 -14.946  -1.464  1.00  0.00     0.105 A 
HETATM   30  O   UNL     1      39.515 -13.432  -2.499  1.00  0.00    -0.323 OA
HETATM   31  O   UNL     1      41.386 -14.942  -2.717  1.00  0.00    -0.323 OA
HETATM   32  C   UNL     1      41.308 -15.704  -0.408  1.00  0.00     0.040 A 
HETATM   33  C   UNL     1      40.550 -13.958  -3.358  1.00  0.00     0.352 A 
HETATM   34  C   UNL     1      40.652 -15.560   0.817  1.00  0.00     0.012 A 
ENDBRANCH  25  26
ENDBRANCH   4  25
BRANCH  11  35
HETATM   35  C   UNL     1      41.960  -9.891   8.005  1.00  0.00     0.252 C 
HETATM   36  N   UNL     1      42.755 -10.707   8.787  1.00  0.00    -0.352 N 
HETATM   37  H   UNL     1      43.013 -11.623   8.457  1.00  0.00     0.163 HD
HETATM   38  O   UNL     1      41.756  -8.710   8.264  1.00  0.00    -0.268 OA
BRANCH  36  39
HETATM   39  C   UNL     1      43.515 -10.182   9.922  1.00  0.00     0.084 C 
HETATM   40  C   UNL     1      42.616 -10.022  11.154  1.00  0.00     0.025 C 
HETATM   41  C   UNL     1      42.234 -11.354  11.794  1.00  0.00     0.002 C 
HETATM   42  C   UNL     1      43.461 -12.205  12.101  1.00  0.00     0.000 C 
HETATM   43  C   UNL     1      44.327 -12.413  10.861  1.00  0.00     0.002 C 
HETATM   44  C   UNL     1      44.724 -11.082  10.220  1.00  0.00     0.025 C 
ENDBRANCH  36  39
ENDBRANCH  11  35
TORSDOF 7
ENDMDL
MODEL 4
REMARK VINA RESULT:     -10.0      2.652      9.149
REMARK  7 active torsions:
REMARK  status: ('A' for Active; 'I' for Inactive)
REMARK    1  A    between atoms: C_3  and  N_4 
REMARK       I    between atoms: N_4  and  C_5 
REMARK    2  A    between atoms: C_5  and  C_6 
REMARK    3  A    between atoms: C_6  and  N_7 
REMARK    4  A    between atoms: N_10  and  C_11 
REMARK    5  A    between atoms: C_11  and  C_12 
REMARK    6  A    between atoms: C_27  and  C_28 
REMARK       I    between atoms: C_28  and  N_29 
REMARK    7  A    between atoms: N_29  and  C_30 
ROOT
HETATM    1  N   UNL     1      41.092 -13.267   5.165  1.00  0.00    -0.290 N 
HETATM    2  C   UNL     1      41.789 -12.473   6.062  1.00  0.00     0.332 C 
HETATM    3  O   UNL     1      42.810 -12.917   6.593  1.00  0.00    -0.246 OA
HETATM    4  N   UNL     1      41.305 -11.193   6.276  1.00  0.00    -0.261 N 
HETATM    5  C   UNL     1      40.438 -10.555   5.398  1.00  0.00     0.264 C 
HETATM    6  O   UNL     1      40.122  -9.370   5.479  1.00  0.00    -0.267 OA
HETATM    7  C   UNL     1      39.918 -11.353   4.271  1.00  0.00     0.059 A 
HETATM    8  C   UNL     1      40.252 -12.701   4.176  1.00  0.00     0.056 A 
HETATM    9  C   UNL     1      39.095 -10.747   3.311  1.00  0.00     0.020 A 
HETATM   10  C   UNL     1      38.635 -11.481   2.215  1.00  0.00     0.018 A 
HETATM   11  C   UNL     1      39.007 -12.821   2.069  1.00  0.00     0.034 A 
HETATM   12  C   UNL     1      39.792 -13.429   3.070  1.00  0.00     0.048 A 
ENDROOT
BRANCH   1  13
HETATM   13  C   UNL     1      41.188 -14.720   5.340  1.00  0.00     0.237 C 
BRANCH  13  14
HETATM   14  C   UNL     1      42.196 -15.502   4.491  1.00  0.00     0.240 C 
HETATM   15  N   UNL     1      41.931 -16.851   4.389  1.00  0.00    -0.325 N 
HETATM   16  H   UNL     1      40.966 -17.089   4.611  1.00  0.00     0.169 HD
HETATM   17  O   UNL     1      43.038 -14.878   3.849  1.00  0.00    -0.271 OA
BRANCH  15  18
HETATM   18  C   UNL     1      42.643 -17.841   3.673  1.00  0.00     0.040 A 
HETATM   19  C   UNL     1      42.506 -18.160   2.309  1.00  0.00    -0.035 A 
HETATM   20  C   UNL     1      41.628 -17.434   1.329  1.00  0.00     0.050 C 
HETATM   21  C   UNL     1      43.258 -19.236   1.786  1.00  0.00     0.009 A 
HETATM   22  C   UNL     1      44.173 -19.936   2.568  1.00  0.00     0.001 A 
HETATM   23  C   UNL     1      44.358 -19.573   3.894  1.00  0.00     0.002 A 
HETATM   24  C   UNL     1      43.601 -18.535   4.437  1.00  0.00     0.030 A 
ENDBRANCH  15  18
ENDBRANCH  13  14
ENDBRANCH   1  13
BRANCH   4  25
HETATM   25  C   UNL     1      41.958 -10.358   7.284  1.00  0.00     0.175 C 
BRANCH  25  26
HETATM   26  C   UNL     1      41.518 -10.610   8.714  1.00  0.00    -0.037 A 
HETATM   27  C   UNL     1      42.452 -10.665   9.763  1.00  0.00     0.048 A 
HETATM   28  C   UNL     1      41.973 -10.850  11.044  1.00  0.00     0.105 A 
HETATM   29  C   UNL     1      40.631 -11.001  11.307  1.00  0.00     0.105 A 
HETATM   30  O   UNL     1      42.728 -10.897  12.177  1.00  0.00    -0.323 OA
HETATM   31  O   UNL     1      40.372 -11.160  12.633  1.00  0.00    -0.323 OA
HETATM   32  C   UNL     1      39.689 -10.980  10.305  1.00  0.00     0.040 A 
HETATM   33  C   UNL     1      41.702 -11.062  13.180  1.00  0.00     0.352 A 
HETATM   34  C   UNL     1      40.141 -10.783   8.997  1.00  0.00     0.012 A 
ENDBRANCH  25  26
ENDBRANCH   4  25
BRANCH  11  35
HETATM   35  C   UNL     1      38.629 -13.652   0.882  1.00  0.00     0.252 C 
HETATM   36  N   UNL     1      39.390 -13.518  -0.264  1.00  0.00    -0.352 N 
HETATM   37  H   UNL     1      40.238 -12.974  -0.244  1.00  0.00     0.163 HD
HETATM   38  O   UNL     1      37.692 -14.436   0.974  1.00  0.00    -0.268 OA
BRANCH  36  39
HETATM   39  C   UNL     1      39.206 -14.399  -1.417  1.00  0.00     0.084 C 
HETATM   40  C   UNL     1      38.549 -13.645  -2.581  1.00  0.00     0.025 C 
HETATM   41  C   UNL     1      39.492 -12.655  -3.260  1.00  0.00     0.002 C 
HETATM   42  C   UNL     1      40.797 -13.319  -3.685  1.00  0.00     0.000 C 
HETATM   43  C   UNL     1      41.479 -14.021  -2.515  1.00  0.00     0.002 C 
HETATM   44  C   UNL     1      40.545 -15.024  -1.836  1.00  0.00     0.025 C 
ENDBRANCH  36  39
ENDBRANCH  11  35
TORSDOF 7
ENDMDL
MODEL 5
REMARK VINA RESULT:      -9.8      2.696      4.057
REMARK  7 active torsions:
REMARK  status: ('A' for Active; 'I' for Inactive)
REMARK    1  A    between atoms: C_3  and  N_4 
REMARK       I    between atoms: N_4  and  C_5 
REMARK    2  A    between atoms: C_5  and  C_6 
REMARK    3  A    between atoms: C_6  and  N_7 
REMARK    4  A    between atoms: N_10  and  C_11 
REMARK    5  A    between atoms: C_11  and  C_12 
REMARK    6  A    between atoms: C_27  and  C_28 
REMARK       I    between atoms: C_28  and  N_29 
REMARK    7  A    between atoms: N_29  and  C_30 
ROOT
HETATM    1  N   UNL     1      40.614 -14.122   2.427  1.00  0.00    -0.290 N 
HETATM    2  C   UNL     1      40.824 -14.694   1.182  1.00  0.00     0.332 C 
HETATM    3  O   UNL     1      40.433 -15.844   0.973  1.00  0.00    -0.246 OA
HETATM    4  N   UNL     1      41.437 -13.903   0.224  1.00  0.00    -0.261 N 
HETATM    5  C   UNL     1      41.495 -12.518   0.310  1.00  0.00     0.264 C 
HETATM    6  O   UNL     1      41.886 -11.786  -0.597  1.00  0.00    -0.267 OA
HETATM    7  C   UNL     1      40.997 -11.901   1.555  1.00  0.00     0.059 A 
HETATM    8  C   UNL     1      40.568 -12.718   2.597  1.00  0.00     0.056 A 
HETATM    9  C   UNL     1      40.963 -10.505   1.675  1.00  0.00     0.020 A 
HETATM   10  C   UNL     1      40.452  -9.911   2.831  1.00  0.00     0.018 A 
HETATM   11  C   UNL     1      39.960 -10.711   3.866  1.00  0.00     0.034 A 
HETATM   12  C   UNL     1      40.049 -12.114   3.751  1.00  0.00     0.048 A 
ENDROOT
BRANCH   1  13
HETATM   13  C   UNL     1      40.532 -15.030   3.577  1.00  0.00     0.237 C 
BRANCH  13  14
HETATM   14  C   UNL     1      41.784 -15.812   3.991  1.00  0.00     0.240 C 
HETATM   15  N   UNL     1      41.750 -17.152   3.671  1.00  0.00    -0.325 N 
HETATM   16  H   UNL     1      41.072 -17.376   2.946  1.00  0.00     0.169 HD
HETATM   17  O   UNL     1      42.758 -15.190   4.408  1.00  0.00    -0.271 OA
BRANCH  15  18
HETATM   18  C   UNL     1      42.740 -18.139   3.892  1.00  0.00     0.040 A 
HETATM   19  C   UNL     1      43.577 -18.728   2.926  1.00  0.00    -0.035 A 
HETATM   20  C   UNL     1      43.634 -18.344   1.474  1.00  0.00     0.050 C 
HETATM   21  C   UNL     1      44.459 -19.755   3.329  1.00  0.00     0.009 A 
HETATM   22  C   UNL     1      44.566 -20.145   4.662  1.00  0.00     0.001 A 
HETATM   23  C   UNL     1      43.791 -19.514   5.624  1.00  0.00     0.002 A 
HETATM   24  C   UNL     1      42.890 -18.520   5.240  1.00  0.00     0.030 A 
ENDBRANCH  15  18
ENDBRANCH  13  14
ENDBRANCH   1  13
BRANCH   4  25
HETATM   25  C   UNL     1      41.760 -14.499  -1.072  1.00  0.00     0.175 C 
BRANCH  25  26
HETATM   26  C   UNL     1      40.575 -14.737  -1.987  1.00  0.00    -0.037 A 
HETATM   27  C   UNL     1      39.480 -13.856  -2.004  1.00  0.00     0.048 A 
HETATM   28  C   UNL     1      38.460 -14.111  -2.897  1.00  0.00     0.105 A 
HETATM   29  C   UNL     1      38.481 -15.200  -3.738  1.00  0.00     0.105 A 
HETATM   30  O   UNL     1      37.344 -13.349  -3.070  1.00  0.00    -0.323 OA
HETATM   31  O   UNL     1      37.387 -15.260  -4.544  1.00  0.00    -0.323 OA
HETATM   32  C   UNL     1      39.521 -16.100  -3.732  1.00  0.00     0.040 A 
HETATM   33  C   UNL     1      36.687 -14.068  -4.137  1.00  0.00     0.352 A 
HETATM   34  C   UNL     1      40.576 -15.864  -2.847  1.00  0.00     0.012 A 
ENDBRANCH  25  26
ENDBRANCH   4  25
BRANCH  11  35
HETATM   35  C   UNL     1      39.317 -10.155   5.098  1.00  0.00     0.252 C 
HETATM   36  N   UNL     1      40.124  -9.925   6.197  1.00  0.00    -0.352 N 
HETATM   37  H   UNL     1      41.124 -10.014   6.114  1.00  0.00     0.163 HD
HETATM   38  O   UNL     1      38.119  -9.894   5.083  1.00  0.00    -0.268 OA
BRANCH  36  39
HETATM   39  C   UNL     1      39.626  -9.234   7.386  1.00  0.00     0.084 C 
HETATM   40  C   UNL     1      38.876 -10.205   8.307  1.00  0.00     0.025 C 
HETATM   41  C   UNL     1      39.802 -11.175   9.037  1.00  0.00     0.002 C 
HETATM   42  C   UNL     1      40.915 -10.442   9.779  1.00  0.00     0.000 C 
HETATM   43  C   UNL     1      41.698  -9.518   8.850  1.00  0.00     0.002 C 
HETATM   44  C   UNL     1      40.778  -8.536   8.124  1.00  0.00     0.025 C 
ENDBRANCH  36  39
ENDBRANCH  11  35
TORSDOF 7
ENDMDL
MODEL 6
REMARK VINA RESULT:      -9.8      3.539      8.495
REMARK  7 active torsions:
REMARK  status: ('A' for Active; 'I' for Inactive)
REMARK    1  A    between atoms: C_3  and  N_4 
REMARK       I    between atoms: N_4  and  C_5 
REMARK    2  A    between atoms: C_5  and  C_6 
REMARK    3  A    between atoms: C_6  and  N_7 
REMARK    4  A    between atoms: N_10  and  C_11 
REMARK    5  A    between atoms: C_11  and  C_12 
REMARK    6  A    between atoms: C_27  and  C_28 
REMARK       I    between atoms: C_28  and  N_29 
REMARK    7  A    between atoms: N_29  and  C_30 
ROOT
HETATM    1  N   UNL     1      41.809 -14.014   2.826  1.00  0.00    -0.290 N 
HETATM    2  C   UNL     1      42.798 -14.897   3.232  1.00  0.00     0.332 C 
HETATM    3  O   UNL     1      43.851 -14.957   2.592  1.00  0.00    -0.246 OA
HETATM    4  N   UNL     1      42.547 -15.637   4.374  1.00  0.00    -0.261 N 
HETATM    5  C   UNL     1      41.583 -15.283   5.310  1.00  0.00     0.264 C 
HETATM    6  O   UNL     1      41.451 -15.827   6.404  1.00  0.00    -0.267 OA
HETATM    7  C   UNL     1      40.709 -14.143   4.974  1.00  0.00     0.059 A 
HETATM    8  C   UNL     1      40.835 -13.529   3.731  1.00  0.00     0.056 A 
HETATM    9  C   UNL     1      39.764 -13.692   5.905  1.00  0.00     0.020 A 
HETATM   10  C   UNL     1      38.963 -12.585   5.616  1.00  0.00     0.018 A 
HETATM   11  C   UNL     1      39.113 -11.917   4.397  1.00  0.00     0.034 A 
HETATM   12  C   UNL     1      40.033 -12.414   3.450  1.00  0.00     0.048 A 
ENDROOT
BRANCH   1  13
HETATM   13  C   UNL     1      41.757 -13.675   1.399  1.00  0.00     0.237 C 
BRANCH  13  14
HETATM   14  C   UNL     1      40.888 -14.527   0.468  1.00  0.00     0.240 C 
HETATM   15  N   UNL     1      40.646 -13.958  -0.764  1.00  0.00    -0.325 N 
HETATM   16  H   UNL     1      41.312 -13.227  -1.008  1.00  0.00     0.169 HD
HETATM   17  O   UNL     1      40.617 -15.678   0.801  1.00  0.00    -0.271 OA
BRANCH  15  18
HETATM   18  C   UNL     1      39.908 -14.483  -1.851  1.00  0.00     0.040 A 
HETATM   19  C   UNL     1      38.620 -14.096  -2.265  1.00  0.00    -0.035 A 
HETATM   20  C   UNL     1      37.818 -12.971  -1.673  1.00  0.00     0.050 C 
HETATM   21  C   UNL     1      38.014 -14.791  -3.335  1.00  0.00     0.009 A 
HETATM   22  C   UNL     1      38.685 -15.797  -4.026  1.00  0.00     0.001 A 
HETATM   23  C   UNL     1      39.982 -16.129  -3.662  1.00  0.00     0.002 A 
HETATM   24  C   UNL     1      40.584 -15.476  -2.587  1.00  0.00     0.030 A 
ENDBRANCH  15  18
ENDBRANCH  13  14
ENDBRANCH   1  13
BRANCH   4  25
HETATM   25  C   UNL     1      43.525 -16.646   4.782  1.00  0.00     0.175 C 
BRANCH  25  26
HETATM   26  C   UNL     1      43.539 -17.908   3.942  1.00  0.00    -0.037 A 
HETATM   27  C   UNL     1      44.328 -19.014   4.303  1.00  0.00     0.048 A 
HETATM   28  C   UNL     1      44.252 -20.145   3.516  1.00  0.00     0.105 A 
HETATM   29  C   UNL     1      43.455 -20.204   2.396  1.00  0.00     0.105 A 
HETATM   30  O   UNL     1      44.919 -21.313   3.734  1.00  0.00    -0.323 OA
HETATM   31  O   UNL     1      43.518 -21.410   1.772  1.00  0.00    -0.323 OA
HETATM   32  C   UNL     1      42.689 -19.133   1.995  1.00  0.00     0.040 A 
HETATM   33  C   UNL     1      44.423 -22.117   2.642  1.00  0.00     0.352 A 
HETATM   34  C   UNL     1      42.735 -17.976   2.777  1.00  0.00     0.012 A 
ENDBRANCH  25  26
ENDBRANCH   4  25
BRANCH  11  35
HETATM   35  C   UNL     1      38.358 -10.673   4.045  1.00  0.00     0.252 C 
HETATM   36  N   UNL     1      38.095 -10.437   2.709  1.00  0.00    -0.352 N 
HETATM   37  H   UNL     1      38.300 -11.147   2.023  1.00  0.00     0.163 HD
HETATM   38  O   UNL     1      37.974  -9.932   4.943  1.00  0.00    -0.268 OA
BRANCH  36  39
HETATM   39  C   UNL     1      37.227  -9.341   2.277  1.00  0.00     0.084 C 
HETATM   40  C   UNL     1      37.781  -8.672   1.013  1.00  0.00     0.025 C 
HETATM   41  C   UNL     1      37.622  -9.531  -0.239  1.00  0.00     0.002 C 
HETATM   42  C   UNL     1      36.180  -9.987  -0.430  1.00  0.00     0.000 C 
HETATM   43  C   UNL     1      35.647 -10.704   0.808  1.00  0.00     0.002 C 
HETATM   44  C   UNL     1      35.792  -9.845   2.064  1.00  0.00     0.025 C 
ENDBRANCH  36  39
ENDBRANCH  11  35
TORSDOF 7
ENDMDL
MODEL 7
REMARK VINA RESULT:      -9.7      2.527      3.388
REMARK  7 active torsions:
REMARK  status: ('A' for Active; 'I' for Inactive)
REMARK    1  A    between atoms: C_3  and  N_4 
REMARK       I    between atoms: N_4  and  C_5 
REMARK    2  A    between atoms: C_5  and  C_6 
REMARK    3  A    between atoms: C_6  and  N_7 
REMARK    4  A    between atoms: N_10  and  C_11 
REMARK    5  A    between atoms: C_11  and  C_12 
REMARK    6  A    between atoms: C_27  and  C_28 
REMARK       I    between atoms: C_28  and  N_29 
REMARK    7  A    between atoms: N_29  and  C_30 
ROOT
HETATM    1  N   UNL     1      42.106 -13.535   3.198  1.00  0.00    -0.290 N 
HETATM    2  C   UNL     1      42.181 -13.630   1.817  1.00  0.00     0.332 C 
HETATM    3  O   UNL     1      42.448 -14.719   1.302  1.00  0.00    -0.246 OA
HETATM    4  N   UNL     1      41.906 -12.482   1.094  1.00  0.00    -0.261 N 
HETATM    5  C   UNL     1      41.213 -11.401   1.623  1.00  0.00     0.264 C 
HETATM    6  O   UNL     1      40.817 -10.444   0.961  1.00  0.00    -0.267 OA
HETATM    7  C   UNL     1      40.893 -11.449   3.063  1.00  0.00     0.059 A 
HETATM    8  C   UNL     1      41.351 -12.518   3.829  1.00  0.00     0.056 A 
HETATM    9  C   UNL     1      40.135 -10.423   3.643  1.00  0.00     0.020 A 
HETATM   10  C   UNL     1      39.787 -10.482   4.994  1.00  0.00     0.018 A 
HETATM   11  C   UNL     1      40.186 -11.576   5.768  1.00  0.00     0.034 A 
HETATM   12  C   UNL     1      40.992 -12.574   5.183  1.00  0.00     0.048 A 
ENDROOT
BRANCH   1  13
HETATM   13  C   UNL     1      42.916 -14.476   3.980  1.00  0.00     0.237 C 
BRANCH  13  14
HETATM   14  C   UNL     1      42.646 -15.978   3.840  1.00  0.00     0.240 C 
HETATM   15  N   UNL     1      43.744 -16.722   3.463  1.00  0.00    -0.325 N 
HETATM   16  H   UNL     1      44.629 -16.247   3.633  1.00  0.00     0.169 HD
HETATM   17  O   UNL     1      41.566 -16.422   4.218  1.00  0.00    -0.271 OA
BRANCH  15  18
HETATM   18  C   UNL     1      43.841 -18.119   3.267  1.00  0.00     0.040 A 
HETATM   19  C   UNL     1      44.374 -19.064   4.163  1.00  0.00    -0.035 A 
HETATM   20  C   UNL     1      44.864 -18.765   5.552  1.00  0.00     0.050 C 
HETATM   21  C   UNL     1      44.451 -20.415   3.757  1.00  0.00     0.009 A 
HETATM   22  C   UNL     1      43.953 -20.838   2.528  1.00  0.00     0.001 A 
HETATM   23  C   UNL     1      43.362 -19.918   1.676  1.00  0.00     0.002 A 
HETATM   24  C   UNL     1      43.307 -18.573   2.045  1.00  0.00     0.030 A 
ENDBRANCH  15  18
ENDBRANCH  13  14
ENDBRANCH   1  13
BRANCH   4  25
HETATM   25  C   UNL     1      42.065 -12.517  -0.360  1.00  0.00     0.175 C 
BRANCH  25  26
HETATM   26  C   UNL     1      40.944 -13.204  -1.116  1.00  0.00    -0.037 A 
HETATM   27  C   UNL     1      41.202 -13.960  -2.272  1.00  0.00     0.048 A 
HETATM   28  C   UNL     1      40.137 -14.595  -2.879  1.00  0.00     0.105 A 
HETATM   29  C   UNL     1      38.852 -14.487  -2.398  1.00  0.00     0.105 A 
HETATM   30  O   UNL     1      40.208 -15.390  -3.983  1.00  0.00    -0.323 OA
HETATM   31  O   UNL     1      37.957 -15.197  -3.135  1.00  0.00    -0.323 OA
HETATM   32  C   UNL     1      38.556 -13.734  -1.286  1.00  0.00     0.040 A 
HETATM   33  C   UNL     1      38.828 -15.791  -4.118  1.00  0.00     0.352 A 
HETATM   34  C   UNL     1      39.614 -13.087  -0.642  1.00  0.00     0.012 A 
ENDBRANCH  25  26
ENDBRANCH   4  25
BRANCH  11  35
HETATM   35  C   UNL     1      39.783 -11.758   7.198  1.00  0.00     0.252 C 
HETATM   36  N   UNL     1      40.439 -11.005   8.153  1.00  0.00    -0.352 N 
HETATM   37  H   UNL     1      41.073 -10.274   7.869  1.00  0.00     0.163 HD
HETATM   38  O   UNL     1      38.874 -12.535   7.469  1.00  0.00    -0.268 OA
BRANCH  36  39
HETATM   39  C   UNL     1      40.009 -10.990   9.551  1.00  0.00     0.084 C 
HETATM   40  C   UNL     1      41.212 -10.840  10.491  1.00  0.00     0.025 C 
HETATM   41  C   UNL     1      41.815  -9.437  10.473  1.00  0.00     0.002 C 
HETATM   42  C   UNL     1      40.761  -8.367  10.734  1.00  0.00     0.000 C 
HETATM   43  C   UNL     1      39.590  -8.481   9.762  1.00  0.00     0.002 C 
HETATM   44  C   UNL     1      38.973  -9.880   9.782  1.00  0.00     0.025 C 
ENDBRANCH  36  39
ENDBRANCH  11  35
TORSDOF 7
ENDMDL
MODEL 8
REMARK VINA RESULT:      -9.6      1.955      2.797
REMARK  7 active torsions:
REMARK  status: ('A' for Active; 'I' for Inactive)
REMARK    1  A    between atoms: C_3  and  N_4 
REMARK       I    between atoms: N_4  and  C_5 
REMARK    2  A    between atoms: C_5  and  C_6 
REMARK    3  A    between atoms: C_6  and  N_7 
REMARK    4  A    between atoms: N_10  and  C_11 
REMARK    5  A    between atoms: C_11  and  C_12 
REMARK    6  A    between atoms: C_27  and  C_28 
REMARK       I    between atoms: C_28  and  N_29 
REMARK    7  A    between atoms: N_29  and  C_30 
ROOT
HETATM    1  N   UNL     1      41.025 -14.539   4.844  1.00  0.00    -0.290 N 
HETATM    2  C   UNL     1      41.063 -14.941   3.518  1.00  0.00     0.332 C 
HETATM    3  O   UNL     1      40.680 -16.076   3.221  1.00  0.00    -0.246 OA
HETATM    4  N   UNL     1      41.499 -14.009   2.592  1.00  0.00    -0.261 N 
HETATM    5  C   UNL     1      41.526 -12.644   2.846  1.00  0.00     0.264 C 
HETATM    6  O   UNL     1      41.754 -11.787   1.995  1.00  0.00    -0.267 OA
HETATM    7  C   UNL     1      41.203 -12.211   4.220  1.00  0.00     0.059 A 
HETATM    8  C   UNL     1      40.962 -13.171   5.199  1.00  0.00     0.056 A 
HETATM    9  C   UNL     1      41.144 -10.844   4.524  1.00  0.00     0.020 A 
HETATM   10  C   UNL     1      40.795 -10.423   5.808  1.00  0.00     0.018 A 
HETATM   11  C   UNL     1      40.490 -11.369   6.792  1.00  0.00     0.034 A 
HETATM   12  C   UNL     1      40.604 -12.741   6.485  1.00  0.00     0.048 A 
ENDROOT
BRANCH   1  13
HETATM   13  C   UNL     1      41.146 -15.585   5.866  1.00  0.00     0.237 C 
BRANCH  13  14
HETATM   14  C   UNL     1      42.382 -16.491   5.853  1.00  0.00     0.240 C 
HETATM   15  N   UNL     1      42.209 -17.681   5.180  1.00  0.00    -0.325 N 
HETATM   16  H   UNL     1      41.425 -17.666   4.530  1.00  0.00     0.169 HD
HETATM   17  O   UNL     1      43.445 -16.045   6.277  1.00  0.00    -0.271 OA
BRANCH  15  18
HETATM   18  C   UNL     1      43.146 -18.719   4.965  1.00  0.00     0.040 A 
HETATM   19  C   UNL     1      43.814 -19.021   3.764  1.00  0.00    -0.035 A 
HETATM   20  C   UNL     1      43.721 -18.224   2.493  1.00  0.00     0.050 C 
HETATM   21  C   UNL     1      44.664 -20.149   3.725  1.00  0.00     0.009 A 
HETATM   22  C   UNL     1      44.904 -20.921   4.859  1.00  0.00     0.001 A 
HETATM   23  C   UNL     1      44.300 -20.581   6.060  1.00  0.00     0.002 A 
HETATM   24  C   UNL     1      43.432 -19.490   6.109  1.00  0.00     0.030 A 
ENDBRANCH  15  18
ENDBRANCH  13  14
ENDBRANCH   1  13
BRANCH   4  25
HETATM   25  C   UNL     1      41.642 -14.424   1.196  1.00  0.00     0.175 C 
BRANCH  25  26
HETATM   26  C   UNL     1      40.498 -14.026   0.284  1.00  0.00    -0.037 A 
HETATM   27  C   UNL     1      40.738 -13.532  -1.010  1.00  0.00     0.048 A 
HETATM   28  C   UNL     1      39.646 -13.234  -1.800  1.00  0.00     0.105 A 
HETATM   29  C   UNL     1      38.355 -13.388  -1.349  1.00  0.00     0.105 A 
HETATM   30  O   UNL     1      39.692 -12.778  -3.082  1.00  0.00    -0.323 OA
HETATM   31  O   UNL     1      37.430 -13.050  -2.286  1.00  0.00    -0.323 OA
HETATM   32  C   UNL     1      38.080 -13.842  -0.080  1.00  0.00     0.040 A 
HETATM   33  C   UNL     1      38.283 -12.694  -3.392  1.00  0.00     0.352 A 
HETATM   34  C   UNL     1      39.164 -14.162   0.742  1.00  0.00     0.012 A 
ENDBRANCH  25  26
ENDBRANCH   4  25
BRANCH  11  35
HETATM   35  C   UNL     1      40.023 -11.001   8.166  1.00  0.00     0.252 C 
HETATM   36  N   UNL     1      40.979 -10.871   9.157  1.00  0.00    -0.352 N 
HETATM   37  H   UNL     1      41.957 -10.901   8.918  1.00  0.00     0.163 HD
HETATM   38  O   UNL     1      38.829 -10.799   8.359  1.00  0.00    -0.268 OA
BRANCH  36  39
HETATM   39  C   UNL     1      40.644 -10.359  10.485  1.00  0.00     0.084 C 
HETATM   40  C   UNL     1      41.061 -11.354  11.575  1.00  0.00     0.025 C 
HETATM   41  C   UNL     1      42.573 -11.419  11.782  1.00  0.00     0.002 C 
HETATM   42  C   UNL     1      43.167 -10.036  12.026  1.00  0.00     0.000 C 
HETATM   43  C   UNL     1      42.800  -9.060  10.912  1.00  0.00     0.002 C 
HETATM   44  C   UNL     1      41.287  -8.981  10.706  1.00  0.00     0.025 C 
ENDBRANCH  36  39
ENDBRANCH  11  35
TORSDOF 7
ENDMDL
MODEL 9
REMARK VINA RESULT:      -9.3      2.699      4.022
REMARK  7 active torsions:
REMARK  status: ('A' for Active; 'I' for Inactive)
REMARK    1  A    between atoms: C_3  and  N_4 
REMARK       I    between atoms: N_4  and  C_5 
REMARK    2  A    between atoms: C_5  and  C_6 
REMARK    3  A    between atoms: C_6  and  N_7 
REMARK    4  A    between atoms: N_10  and  C_11 
REMARK    5  A    between atoms: C_11  and  C_12 
REMARK    6  A    between atoms: C_27  and  C_28 
REMARK       I    between atoms: C_28  and  N_29 
REMARK    7  A    between atoms: N_29  and  C_30 
ROOT
HETATM    1  N   UNL     1      41.031 -14.121   1.912  1.00  0.00    -0.290 N 
HETATM    2  C   UNL     1      40.711 -14.466   0.608  1.00  0.00     0.332 C 
HETATM    3  O   UNL     1      41.102 -15.545   0.158  1.00  0.00    -0.246 OA
HETATM    4  N   UNL     1      39.923 -13.575  -0.101  1.00  0.00    -0.261 N 
HETATM    5  C   UNL     1      39.150 -12.596   0.509  1.00  0.00     0.264 C 
HETATM    6  O   UNL     1      38.323 -11.902  -0.080  1.00  0.00    -0.267 OA
HETATM    7  C   UNL     1      39.304 -12.431   1.967  1.00  0.00     0.059 A 
HETATM    8  C   UNL     1      40.249 -13.197   2.644  1.00  0.00     0.056 A 
HETATM    9  C   UNL     1      38.501 -11.509   2.653  1.00  0.00     0.020 A 
HETATM   10  C   UNL     1      38.607 -11.378   4.039  1.00  0.00     0.018 A 
HETATM   11  C   UNL     1      39.508 -12.179   4.748  1.00  0.00     0.034 A 
HETATM   12  C   UNL     1      40.344 -13.065   4.037  1.00  0.00     0.048 A 
ENDROOT
BRANCH   1  13
HETATM   13  C   UNL     1      42.267 -14.681   2.469  1.00  0.00     0.237 C 
BRANCH  13  14
HETATM   14  C   UNL     1      42.275 -16.145   2.924  1.00  0.00     0.240 C 
HETATM   15  N   UNL     1      43.521 -16.736   2.919  1.00  0.00    -0.325 N 
HETATM   16  H   UNL     1      44.285 -16.064   2.924  1.00  0.00     0.169 HD
HETATM   17  O   UNL     1      41.249 -16.620   3.403  1.00  0.00    -0.271 OA
BRANCH  15  18
HETATM   18  C   UNL     1      43.876 -18.052   3.297  1.00  0.00     0.040 A 
HETATM   19  C   UNL     1      44.244 -18.493   4.581  1.00  0.00    -0.035 A 
HETATM   20  C   UNL     1      44.237 -17.649   5.825  1.00  0.00     0.050 C 
HETATM   21  C   UNL     1      44.638 -19.839   4.749  1.00  0.00     0.009 A 
HETATM   22  C   UNL     1      44.606 -20.747   3.694  1.00  0.00     0.001 A 
HETATM   23  C   UNL     1      44.175 -20.328   2.444  1.00  0.00     0.002 A 
HETATM   24  C   UNL     1      43.813 -18.994   2.251  1.00  0.00     0.030 A 
ENDBRANCH  15  18
ENDBRANCH  13  14
ENDBRANCH   1  13
BRANCH   4  25
HETATM   25  C   UNL     1      39.641 -13.859  -1.508  1.00  0.00     0.175 C 
BRANCH  25  26
HETATM   26  C   UNL     1      40.417 -13.020  -2.505  1.00  0.00    -0.037 A 
HETATM   27  C   UNL     1      39.757 -12.242  -3.472  1.00  0.00     0.048 A 
HETATM   28  C   UNL     1      40.529 -11.468  -4.314  1.00  0.00     0.105 A 
HETATM   29  C   UNL     1      41.903 -11.458  -4.242  1.00  0.00     0.105 A 
HETATM   30  O   UNL     1      40.059 -10.634  -5.283  1.00  0.00    -0.323 OA
HETATM   31  O   UNL     1      42.468 -10.620  -5.152  1.00  0.00    -0.323 OA
HETATM   32  C   UNL     1      42.587 -12.225  -3.327  1.00  0.00     0.040 A 
HETATM   33  C   UNL     1      41.293 -10.079  -5.787  1.00  0.00     0.352 A 
HETATM   34  C   UNL     1      41.833 -13.012  -2.453  1.00  0.00     0.012 A 
ENDBRANCH  25  26
ENDBRANCH   4  25
BRANCH  11  35
HETATM   35  C   UNL     1      39.621 -12.163   6.240  1.00  0.00     0.252 C 
HETATM   36  N   UNL     1      40.178 -11.044   6.831  1.00  0.00    -0.352 N 
HETATM   37  H   UNL     1      40.378 -10.229   6.274  1.00  0.00     0.163 HD
HETATM   38  O   UNL     1      39.192 -13.115   6.883  1.00  0.00    -0.268 OA
BRANCH  36  39
HETATM   39  C   UNL     1      40.183 -10.863   8.283  1.00  0.00     0.084 C 
HETATM   40  C   UNL     1      41.425 -10.083   8.731  1.00  0.00     0.025 C 
HETATM   41  C   UNL     1      41.366  -8.601   8.364  1.00  0.00     0.002 C 
HETATM   42  C   UNL     1      40.081  -7.948   8.862  1.00  0.00     0.000 C 
HETATM   43  C   UNL     1      38.843  -8.692   8.369  1.00  0.00     0.002 C 
HETATM   44  C   UNL     1      38.889 -10.174   8.742  1.00  0.00     0.025 C 
ENDBRANCH  36  39
ENDBRANCH  11  35
TORSDOF 7
ENDMDL
MODEL 10
REMARK VINA RESULT:      -9.2      3.293      4.689
REMARK  7 active torsions:
REMARK  status: ('A' for Active; 'I' for Inactive)
REMARK    1  A    between atoms: C_3  and  N_4 
REMARK       I    between atoms: N_4  and  C_5 
REMARK    2  A    between atoms: C_5  and  C_6 
REMARK    3  A    between atoms: C_6  and  N_7 
REMARK    4  A    between atoms: N_10  and  C_11 
REMARK    5  A    between atoms: C_11  and  C_12 
REMARK    6  A    between atoms: C_27  and  C_28 
REMARK       I    between atoms: C_28  and  N_29 
REMARK    7  A    between atoms: N_29  and  C_30 
ROOT
HETATM    1  N   UNL     1      39.662 -12.394   5.462  1.00  0.00    -0.290 N 
HETATM    2  C   UNL     1      39.307 -12.421   4.123  1.00  0.00     0.332 C 
HETATM    3  O   UNL     1      38.948 -13.488   3.616  1.00  0.00    -0.246 OA
HETATM    4  N   UNL     1      39.341 -11.217   3.440  1.00  0.00    -0.261 N 
HETATM    5  C   UNL     1      39.330  -9.984   4.079  1.00  0.00     0.264 C 
HETATM    6  O   UNL     1      39.198  -8.908   3.500  1.00  0.00    -0.267 OA
HETATM    7  C   UNL     1      39.430  -9.990   5.551  1.00  0.00     0.059 A 
HETATM    8  C   UNL     1      39.599 -11.200   6.219  1.00  0.00     0.056 A 
HETATM    9  C   UNL     1      39.354  -8.783   6.260  1.00  0.00     0.020 A 
HETATM   10  C   UNL     1      39.401  -8.782   7.655  1.00  0.00     0.018 A 
HETATM   11  C   UNL     1      39.511  -9.991   8.349  1.00  0.00     0.034 A 
HETATM   12  C   UNL     1      39.638 -11.192   7.621  1.00  0.00     0.048 A 
ENDROOT
BRANCH   1  13
HETATM   13  C   UNL     1      40.194 -13.633   6.040  1.00  0.00     0.237 C 
BRANCH  13  14
HETATM   14  C   UNL     1      41.182 -14.468   5.218  1.00  0.00     0.240 C 
HETATM   15  N   UNL     1      40.643 -15.611   4.668  1.00  0.00    -0.325 N 
HETATM   16  H   UNL     1      39.627 -15.589   4.610  1.00  0.00     0.169 HD
HETATM   17  O   UNL     1      42.291 -13.999   4.973  1.00  0.00    -0.271 OA
BRANCH  15  18
HETATM   18  C   UNL     1      41.270 -16.578   3.847  1.00  0.00     0.040 A 
HETATM   19  C   UNL     1      42.145 -17.599   4.260  1.00  0.00    -0.035 A 
HETATM   20  C   UNL     1      42.507 -17.910   5.685  1.00  0.00     0.050 C 
HETATM   21  C   UNL     1      42.731 -18.429   3.278  1.00  0.00     0.009 A 
HETATM   22  C   UNL     1      42.412 -18.301   1.929  1.00  0.00     0.001 A 
HETATM   23  C   UNL     1      41.495 -17.340   1.531  1.00  0.00     0.002 A 
HETATM   24  C   UNL     1      40.930 -16.490   2.482  1.00  0.00     0.030 A 
ENDBRANCH  15  18
ENDBRANCH  13  14
ENDBRANCH   1  13
BRANCH   4  25
HETATM   25  C   UNL     1      39.063 -11.220   2.004  1.00  0.00     0.175 C 
BRANCH  25  26
HETATM   26  C   UNL     1      40.287 -11.230   1.109  1.00  0.00    -0.037 A 
HETATM   27  C   UNL     1      40.929 -10.035   0.742  1.00  0.00     0.048 A 
HETATM   28  C   UNL     1      42.066 -10.125  -0.036  1.00  0.00     0.105 A 
HETATM   29  C   UNL     1      42.560 -11.334  -0.468  1.00  0.00     0.105 A 
HETATM   30  O   UNL     1      42.828  -9.078  -0.456  1.00  0.00    -0.323 OA
HETATM   31  O   UNL     1      43.692 -11.202  -1.210  1.00  0.00    -0.323 OA
HETATM   32  C   UNL     1      41.945 -12.524  -0.151  1.00  0.00     0.040 A 
HETATM   33  C   UNL     1      43.873  -9.772  -1.173  1.00  0.00     0.352 A 
HETATM   34  C   UNL     1      40.798 -12.467   0.644  1.00  0.00     0.012 A 
ENDBRANCH  25  26
ENDBRANCH   4  25
BRANCH  11  35
HETATM   35  C   UNL     1      39.481 -10.085   9.843  1.00  0.00     0.252 C 
HETATM   36  N   UNL     1      40.652 -10.434  10.489  1.00  0.00    -0.352 N 
HETATM   37  H   UNL     1      41.513 -10.496   9.970  1.00  0.00     0.163 HD
HETATM   38  O   UNL     1      38.442  -9.821  10.438  1.00  0.00    -0.268 OA
BRANCH  36  39
HETATM   39  C   UNL     1      40.767 -10.394  11.947  1.00  0.00     0.084 C 
HETATM   40  C   UNL     1      41.705 -11.498  12.451  1.00  0.00     0.025 C 
HETATM   41  C   UNL     1      43.176 -11.220  12.146  1.00  0.00     0.002 C 
HETATM   42  C   UNL     1      43.605  -9.845  12.646  1.00  0.00     0.000 C 
HETATM   43  C   UNL     1      42.706  -8.740  12.099  1.00  0.00     0.002 C 
HETATM   44  C   UNL     1      41.232  -9.005  12.410  1.00  0.00     0.025 C 
ENDBRANCH  36  39
ENDBRANCH  11  35
TORSDOF 7
ENDMDL
