MODEL 1
REMARK VINA RESULT:      -9.0      0.000      0.000
REMARK  3 active torsions:
REMARK  status: ('A' for Active; 'I' for Inactive)
REMARK    1  A    between atoms: C_2  and  C_3 
REMARK    2  A    between atoms: C_6  and  C_7 
REMARK       I    between atoms: C_7  and  N_8 
REMARK    3  A    between atoms: N_8  and  N_9 
ROOT
HETATM    1  C   UNL     1      43.343 -16.309   4.753  1.00  0.00    -0.021 A 
HETATM    2  C   UNL     1      43.892 -16.661   6.003  1.00  0.00     0.011 A 
HETATM    3  C   UNL     1      44.313 -15.689   6.922  1.00  0.00     0.018 A 
HETATM    4  C   UNL     1      44.214 -14.331   6.604  1.00  0.00     0.033 A 
HETATM    5  C   UNL     1      43.685 -13.972   5.357  1.00  0.00     0.018 A 
HETATM    6  C   UNL     1      43.260 -14.943   4.444  1.00  0.00     0.011 A 
ENDROOT
BRANCH   4   7
HETATM    7  C   UNL     1      44.599 -13.228   7.536  1.00  0.00     0.266 C 
HETATM    8  N   UNL     1      43.568 -12.454   8.066  1.00  0.00    -0.284 N 
HETATM    9  H   UNL     1      42.597 -12.702   7.918  1.00  0.00     0.184 HD
HETATM   10  O   UNL     1      45.788 -13.060   7.794  1.00  0.00    -0.266 OA
BRANCH   8  11
HETATM   11  N   UNL     1      43.805 -11.366   8.940  1.00  0.00    -0.220 NA
HETATM   12  C   UNL     1      42.694 -10.379   9.008  1.00  0.00     0.153 C 
HETATM   13  C   UNL     1      42.632  -9.949  10.439  1.00  0.00    -0.036 A 
HETATM   14  C   UNL     1      43.472 -10.751  11.208  1.00  0.00    -0.036 A 
HETATM   15  C   UNL     1      41.859  -8.956  11.018  1.00  0.00     0.009 A 
HETATM   16  C   UNL     1      44.150 -11.757  10.334  1.00  0.00     0.153 C 
HETATM   17  C   UNL     1      43.558 -10.588  12.581  1.00  0.00     0.009 A 
HETATM   18  C   UNL     1      42.784  -9.590  13.178  1.00  0.00     0.001 A 
HETATM   19  C   UNL     1      41.942  -8.778  12.401  1.00  0.00     0.001 A 
ENDBRANCH   8  11
ENDBRANCH   4   7
BRANCH   1  20
HETATM   20  C   UNL     1      42.869 -17.398   3.794  1.00  0.00     0.139 A 
HETATM   21  C   UNL     1      43.325 -18.790   4.233  1.00  0.00     0.054 C 
HETATM   22  N   UNL     1      41.425 -17.345   3.646  1.00  0.00    -0.321 N 
HETATM   23  C   UNL     1      41.028 -17.065   2.365  1.00  0.00     0.324 A 
HETATM   24  H   UNL     1      40.748 -17.383   4.394  1.00  0.00     0.165 HD
HETATM   25  O   UNL     1      39.872 -16.926   2.008  1.00  0.00    -0.247 OA
HETATM   26  N   UNL     1      42.122 -16.977   1.581  1.00  0.00    -0.277 N 
HETATM   27  C   UNL     1      43.253 -17.191   2.307  1.00  0.00     0.258 A 
HETATM   28  H   UNL     1      42.096 -16.805   0.591  1.00  0.00     0.173 HD
HETATM   29  O   UNL     1      44.379 -17.220   1.830  1.00  0.00    -0.270 OA
ENDBRANCH   1  20
TORSDOF 3
ENDMDL
MODEL 2
REMARK VINA RESULT:      -9.0      1.144      1.551
REMARK  3 active torsions:
REMARK  status: ('A' for Active; 'I' for Inactive)
REMARK    1  A    between atoms: C_2  and  C_3 
REMARK    2  A    between atoms: C_6  and  C_7 
REMARK       I    between atoms: C_7  and  N_8 
REMARK    3  A    between atoms: N_8  and  N_9 
ROOT
HETATM    1  C   UNL     1      43.380 -16.396   5.164  1.00  0.00    -0.021 A 
HETATM    2  C   UNL     1      43.724 -16.628   6.511  1.00  0.00     0.011 A 
HETATM    3  C   UNL     1      44.138 -15.588   7.354  1.00  0.00     0.018 A 
HETATM    4  C   UNL     1      44.241 -14.283   6.863  1.00  0.00     0.033 A 
HETATM    5  C   UNL     1      43.918 -14.046   5.521  1.00  0.00     0.018 A 
HETATM    6  C   UNL     1      43.499 -15.084   4.682  1.00  0.00     0.011 A 
ENDROOT
BRANCH   4   7
HETATM    7  C   UNL     1      44.634 -13.108   7.699  1.00  0.00     0.266 C 
HETATM    8  N   UNL     1      43.606 -12.379   8.295  1.00  0.00    -0.284 N 
HETATM    9  H   UNL     1      42.647 -12.700   8.259  1.00  0.00     0.184 HD
HETATM   10  O   UNL     1      45.827 -12.845   7.825  1.00  0.00    -0.266 OA
BRANCH   8  11
HETATM   11  N   UNL     1      43.848 -11.231   9.088  1.00  0.00    -0.220 NA
HETATM   12  C   UNL     1      42.708 -10.278   9.153  1.00  0.00     0.153 C 
HETATM   13  C   UNL     1      42.701  -9.762  10.557  1.00  0.00    -0.036 A 
HETATM   14  C   UNL     1      43.605 -10.488  11.329  1.00  0.00    -0.036 A 
HETATM   15  C   UNL     1      41.923  -8.760  11.114  1.00  0.00     0.009 A 
HETATM   16  C   UNL     1      44.275 -11.525  10.484  1.00  0.00     0.153 C 
HETATM   17  C   UNL     1      43.753 -10.238  12.683  1.00  0.00     0.009 A 
HETATM   18  C   UNL     1      42.974  -9.229  13.258  1.00  0.00     0.001 A 
HETATM   19  C   UNL     1      42.068  -8.494  12.478  1.00  0.00     0.001 A 
ENDBRANCH   8  11
ENDBRANCH   4   7
BRANCH   1  20
HETATM   20  C   UNL     1      42.905 -17.552   4.287  1.00  0.00     0.139 A 
HETATM   21  C   UNL     1      41.588 -18.148   4.784  1.00  0.00     0.054 C 
HETATM   22  N   UNL     1      42.794 -17.122   2.904  1.00  0.00    -0.321 N 
HETATM   23  C   UNL     1      43.641 -17.797   2.065  1.00  0.00     0.324 A 
HETATM   24  H   UNL     1      42.256 -16.338   2.565  1.00  0.00     0.165 HD
HETATM   25  O   UNL     1      43.759 -17.580   0.872  1.00  0.00    -0.247 OA
HETATM   26  N   UNL     1      44.307 -18.729   2.776  1.00  0.00    -0.277 N 
HETATM   27  C   UNL     1      43.927 -18.699   4.083  1.00  0.00     0.258 A 
HETATM   28  H   UNL     1      44.970 -19.374   2.383  1.00  0.00     0.173 HD
HETATM   29  O   UNL     1      44.338 -19.476   4.934  1.00  0.00    -0.270 OA
ENDBRANCH   1  20
TORSDOF 3
ENDMDL
MODEL 3
REMARK VINA RESULT:      -8.9      3.007      9.677
REMARK  3 active torsions:
REMARK  status: ('A' for Active; 'I' for Inactive)
REMARK    1  A    between atoms: C_2  and  C_3 
REMARK    2  A    between atoms: C_6  and  C_7 
REMARK       I    between atoms: C_7  and  N_8 
REMARK    3  A    between atoms: N_8  and  N_9 
ROOT
HETATM    1  C   UNL     1      42.965 -10.516  11.379  1.00  0.00    -0.021 A 
HETATM    2  C   UNL     1      42.631 -10.261  10.033  1.00  0.00     0.011 A 
HETATM    3  C   UNL     1      43.174 -11.018   8.985  1.00  0.00     0.018 A 
HETATM    4  C   UNL     1      44.086 -12.042   9.255  1.00  0.00     0.033 A 
HETATM    5  C   UNL     1      44.436 -12.292  10.589  1.00  0.00     0.018 A 
HETATM    6  C   UNL     1      43.890 -11.540  11.634  1.00  0.00     0.011 A 
ENDROOT
BRANCH   4   7
HETATM    7  C   UNL     1      44.681 -12.925   8.207  1.00  0.00     0.266 C 
HETATM    8  N   UNL     1      43.817 -13.787   7.534  1.00  0.00    -0.284 N 
HETATM    9  H   UNL     1      42.815 -13.734   7.669  1.00  0.00     0.184 HD
HETATM   10  O   UNL     1      45.887 -12.848   7.984  1.00  0.00    -0.266 OA
BRANCH   8  11
HETATM   11  N   UNL     1      44.263 -14.689   6.539  1.00  0.00    -0.220 NA
HETATM   12  C   UNL     1      44.252 -16.117   6.954  1.00  0.00     0.153 C 
HETATM   13  C   UNL     1      43.823 -16.880   5.741  1.00  0.00    -0.036 A 
HETATM   14  C   UNL     1      43.403 -15.993   4.752  1.00  0.00    -0.036 A 
HETATM   15  C   UNL     1      43.766 -18.250   5.548  1.00  0.00     0.009 A 
HETATM   16  C   UNL     1      43.538 -14.587   5.243  1.00  0.00     0.153 C 
HETATM   17  C   UNL     1      42.909 -16.452   3.542  1.00  0.00     0.009 A 
HETATM   18  C   UNL     1      42.847 -17.832   3.334  1.00  0.00     0.001 A 
HETATM   19  C   UNL     1      43.275 -18.725   4.329  1.00  0.00     0.001 A 
ENDBRANCH   8  11
ENDBRANCH   4   7
BRANCH   1  20
HETATM   20  C   UNL     1      42.329  -9.688  12.493  1.00  0.00     0.139 A 
HETATM   21  C   UNL     1      43.275  -9.493  13.678  1.00  0.00     0.054 C 
HETATM   22  N   UNL     1      41.874  -8.411  11.973  1.00  0.00    -0.321 N 
HETATM   23  C   UNL     1      40.518  -8.245  12.073  1.00  0.00     0.324 A 
HETATM   24  H   UNL     1      42.436  -7.736  11.474  1.00  0.00     0.165 HD
HETATM   25  O   UNL     1      39.902  -7.276  11.665  1.00  0.00    -0.247 OA
HETATM   26  N   UNL     1      39.993  -9.320  12.697  1.00  0.00    -0.277 N 
HETATM   27  C   UNL     1      40.968 -10.212  13.020  1.00  0.00     0.258 A 
HETATM   28  H   UNL     1      39.019  -9.427  12.915  1.00  0.00     0.173 HD
HETATM   29  O   UNL     1      40.772 -11.248  13.639  1.00  0.00    -0.270 OA
ENDBRANCH   1  20
TORSDOF 3
ENDMDL
MODEL 4
REMARK VINA RESULT:      -8.4      6.595      8.889
REMARK  3 active torsions:
REMARK  status: ('A' for Active; 'I' for Inactive)
REMARK    1  A    between atoms: C_2  and  C_3 
REMARK    2  A    between atoms: C_6  and  C_7 
REMARK       I    between atoms: C_7  and  N_8 
REMARK    3  A    between atoms: N_8  and  N_9 
ROOT
HETATM    1  C   UNL     1      40.558 -14.360  -1.037  1.00  0.00    -0.021 A 
HETATM    2  C   UNL     1      40.895 -13.483   0.014  1.00  0.00     0.011 A 
HETATM    3  C   UNL     1      41.675 -13.903   1.100  1.00  0.00     0.018 A 
HETATM    4  C   UNL     1      42.125 -15.224   1.174  1.00  0.00     0.033 A 
HETATM    5  C   UNL     1      41.781 -16.108   0.143  1.00  0.00     0.018 A 
HETATM    6  C   UNL     1      41.007 -15.686  -0.943  1.00  0.00     0.011 A 
ENDROOT
BRANCH   4   7
HETATM    7  C   UNL     1      42.995 -15.747   2.272  1.00  0.00     0.266 C 
HETATM    8  N   UNL     1      43.176 -17.128   2.337  1.00  0.00    -0.284 N 
HETATM    9  H   UNL     1      42.829 -17.737   1.607  1.00  0.00     0.184 HD
HETATM   10  O   UNL     1      43.508 -14.948   3.052  1.00  0.00    -0.266 OA
BRANCH   8  11
HETATM   11  N   UNL     1      43.955 -17.746   3.344  1.00  0.00    -0.220 NA
HETATM   12  C   UNL     1      43.292 -17.825   4.673  1.00  0.00     0.153 C 
HETATM   13  C   UNL     1      43.695 -19.149   5.240  1.00  0.00    -0.036 A 
HETATM   14  C   UNL     1      44.356 -19.896   4.267  1.00  0.00    -0.036 A 
HETATM   15  C   UNL     1      43.454 -19.666   6.502  1.00  0.00     0.009 A 
HETATM   16  C   UNL     1      44.442 -19.110   2.998  1.00  0.00     0.153 C 
HETATM   17  C   UNL     1      44.790 -21.185   4.527  1.00  0.00     0.009 A 
HETATM   18  C   UNL     1      44.554 -21.719   5.796  1.00  0.00     0.001 A 
HETATM   19  C   UNL     1      43.893 -20.964   6.778  1.00  0.00     0.001 A 
ENDBRANCH   8  11
ENDBRANCH   4   7
BRANCH   1  20
HETATM   20  C   UNL     1      39.731 -13.855  -2.216  1.00  0.00     0.139 A 
HETATM   21  C   UNL     1      40.067 -12.408  -2.578  1.00  0.00     0.054 C 
HETATM   22  N   UNL     1      39.900 -14.732  -3.362  1.00  0.00    -0.321 N 
HETATM   23  C   UNL     1      38.734 -15.340  -3.748  1.00  0.00     0.324 A 
HETATM   24  H   UNL     1      40.777 -14.993  -3.788  1.00  0.00     0.165 HD
HETATM   25  O   UNL     1      38.636 -16.149  -4.652  1.00  0.00    -0.247 OA
HETATM   26  N   UNL     1      37.730 -14.889  -2.967  1.00  0.00    -0.277 N 
HETATM   27  C   UNL     1      38.194 -13.987  -2.060  1.00  0.00     0.258 A 
HETATM   28  H   UNL     1      36.769 -15.163  -3.068  1.00  0.00     0.173 HD
HETATM   29  O   UNL     1      37.484 -13.385  -1.267  1.00  0.00    -0.270 OA
ENDBRANCH   1  20
TORSDOF 3
ENDMDL
MODEL 5
REMARK VINA RESULT:      -8.1      3.096      3.802
REMARK  3 active torsions:
REMARK  status: ('A' for Active; 'I' for Inactive)
REMARK    1  A    between atoms: C_2  and  C_3 
REMARK    2  A    between atoms: C_6  and  C_7 
REMARK       I    between atoms: C_7  and  N_8 
REMARK    3  A    between atoms: N_8  and  N_9 
ROOT
HETATM    1  C   UNL     1      40.560 -13.611   3.638  1.00  0.00    -0.021 A 
HETATM    2  C   UNL     1      39.862 -14.129   4.748  1.00  0.00     0.011 A 
HETATM    3  C   UNL     1      39.695 -13.384   5.924  1.00  0.00     0.018 A 
HETATM    4  C   UNL     1      40.242 -12.103   6.029  1.00  0.00     0.033 A 
HETATM    5  C   UNL     1      40.953 -11.586   4.937  1.00  0.00     0.018 A 
HETATM    6  C   UNL     1      41.114 -12.328   3.762  1.00  0.00     0.011 A 
ENDROOT
BRANCH   4   7
HETATM    7  C   UNL     1      40.079 -11.223   7.226  1.00  0.00     0.266 C 
HETATM    8  N   UNL     1      41.092 -11.256   8.183  1.00  0.00    -0.284 N 
HETATM    9  H   UNL     1      41.952 -11.763   8.018  1.00  0.00     0.184 HD
HETATM   10  O   UNL     1      39.076 -10.517   7.309  1.00  0.00    -0.266 OA
BRANCH   8  11
HETATM   11  N   UNL     1      41.041 -10.488   9.372  1.00  0.00    -0.220 NA
HETATM   12  C   UNL     1      40.472 -11.207  10.543  1.00  0.00     0.153 C 
HETATM   13  C   UNL     1      41.278 -10.753  11.718  1.00  0.00    -0.036 A 
HETATM   14  C   UNL     1      42.368 -10.004  11.279  1.00  0.00    -0.036 A 
HETATM   15  C   UNL     1      41.086 -11.021  13.063  1.00  0.00     0.009 A 
HETATM   16  C   UNL     1      42.346  -9.906   9.787  1.00  0.00     0.153 C 
HETATM   17  C   UNL     1      43.301  -9.506  12.173  1.00  0.00     0.009 A 
HETATM   18  C   UNL     1      43.119  -9.769  13.533  1.00  0.00     0.001 A 
HETATM   19  C   UNL     1      42.018 -10.519  13.975  1.00  0.00     0.001 A 
ENDBRANCH   8  11
ENDBRANCH   4   7
BRANCH   1  20
HETATM   20  C   UNL     1      40.694 -14.443   2.365  1.00  0.00     0.139 A 
HETATM   21  C   UNL     1      41.109 -13.594   1.163  1.00  0.00     0.054 C 
HETATM   22  N   UNL     1      41.624 -15.538   2.576  1.00  0.00    -0.321 N 
HETATM   23  C   UNL     1      41.039 -16.770   2.445  1.00  0.00     0.324 A 
HETATM   24  H   UNL     1      42.577 -15.457   2.901  1.00  0.00     0.165 HD
HETATM   25  O   UNL     1      41.606 -17.834   2.620  1.00  0.00    -0.247 OA
HETATM   26  N   UNL     1      39.748 -16.603   2.092  1.00  0.00    -0.277 N 
HETATM   27  C   UNL     1      39.447 -15.280   1.980  1.00  0.00     0.258 A 
HETATM   28  H   UNL     1      39.109 -17.356   1.909  1.00  0.00     0.173 HD
HETATM   29  O   UNL     1      38.360 -14.853   1.620  1.00  0.00    -0.270 OA
ENDBRANCH   1  20
TORSDOF 3
ENDMDL
MODEL 6
REMARK VINA RESULT:      -7.9      1.968      2.796
REMARK  3 active torsions:
REMARK  status: ('A' for Active; 'I' for Inactive)
REMARK    1  A    between atoms: C_2  and  C_3 
REMARK    2  A    between atoms: C_6  and  C_7 
REMARK       I    between atoms: C_7  and  N_8 
REMARK    3  A    between atoms: N_8  and  N_9 
ROOT
HETATM    1  C   UNL     1      41.708 -14.962   3.952  1.00  0.00    -0.021 A 
HETATM    2  C   UNL     1      40.625 -14.059   3.949  1.00  0.00     0.011 A 
HETATM    3  C   UNL     1      40.597 -12.941   4.793  1.00  0.00     0.018 A 
HETATM    4  C   UNL     1      41.648 -12.706   5.684  1.00  0.00     0.033 A 
HETATM    5  C   UNL     1      42.721 -13.607   5.706  1.00  0.00     0.018 A 
HETATM    6  C   UNL     1      42.750 -14.719   4.858  1.00  0.00     0.011 A 
ENDROOT
BRANCH   4   7
HETATM    7  C   UNL     1      41.723 -11.519   6.590  1.00  0.00     0.266 C 
HETATM    8  N   UNL     1      42.345 -11.699   7.824  1.00  0.00    -0.284 N 
HETATM    9  H   UNL     1      42.826 -12.561   8.047  1.00  0.00     0.184 HD
HETATM   10  O   UNL     1      41.244 -10.454   6.208  1.00  0.00    -0.266 OA
BRANCH   8  11
HETATM   11  N   UNL     1      42.455 -10.659   8.779  1.00  0.00    -0.220 NA
HETATM   12  C   UNL     1      41.257 -10.489   9.643  1.00  0.00     0.153 C 
HETATM   13  C   UNL     1      41.790 -10.153  10.999  1.00  0.00    -0.036 A 
HETATM   14  C   UNL     1      43.173 -10.316  11.015  1.00  0.00    -0.036 A 
HETATM   15  C   UNL     1      41.098  -9.776  12.139  1.00  0.00     0.009 A 
HETATM   16  C   UNL     1      43.645 -10.761   9.667  1.00  0.00     0.153 C 
HETATM   17  C   UNL     1      43.905 -10.113  12.173  1.00  0.00     0.009 A 
HETATM   18  C   UNL     1      43.220  -9.733  13.330  1.00  0.00     0.001 A 
HETATM   19  C   UNL     1      41.827  -9.563  13.312  1.00  0.00     0.001 A 
ENDBRANCH   8  11
ENDBRANCH   4   7
BRANCH   1  20
HETATM   20  C   UNL     1      41.712 -16.151   2.995  1.00  0.00     0.139 A 
HETATM   21  C   UNL     1      40.352 -16.361   2.330  1.00  0.00     0.054 C 
HETATM   22  N   UNL     1      42.759 -15.992   2.000  1.00  0.00    -0.321 N 
HETATM   23  C   UNL     1      43.711 -16.976   2.064  1.00  0.00     0.324 A 
HETATM   24  H   UNL     1      42.883 -15.200   1.387  1.00  0.00     0.165 HD
HETATM   25  O   UNL     1      44.706 -17.029   1.364  1.00  0.00    -0.247 OA
HETATM   26  N   UNL     1      43.358 -17.861   3.018  1.00  0.00    -0.277 N 
HETATM   27  C   UNL     1      42.185 -17.496   3.603  1.00  0.00     0.258 A 
HETATM   28  H   UNL     1      43.880 -18.690   3.242  1.00  0.00     0.173 HD
HETATM   29  O   UNL     1      41.614 -18.153   4.462  1.00  0.00    -0.270 OA
ENDBRANCH   1  20
TORSDOF 3
ENDMDL
MODEL 7
REMARK VINA RESULT:      -7.8      6.670      8.986
REMARK  3 active torsions:
REMARK  status: ('A' for Active; 'I' for Inactive)
REMARK    1  A    between atoms: C_2  and  C_3 
REMARK    2  A    between atoms: C_6  and  C_7 
REMARK       I    between atoms: C_7  and  N_8 
REMARK    3  A    between atoms: N_8  and  N_9 
ROOT
HETATM    1  C   UNL     1      40.404 -14.210  -0.848  1.00  0.00    -0.021 A 
HETATM    2  C   UNL     1      40.968 -15.493  -1.008  1.00  0.00     0.011 A 
HETATM    3  C   UNL     1      41.818 -16.048  -0.041  1.00  0.00     0.018 A 
HETATM    4  C   UNL     1      42.145 -15.322   1.108  1.00  0.00     0.033 A 
HETATM    5  C   UNL     1      41.603 -14.040   1.267  1.00  0.00     0.018 A 
HETATM    6  C   UNL     1      40.751 -13.490   0.304  1.00  0.00     0.011 A 
ENDROOT
BRANCH   4   7
HETATM    7  C   UNL     1      43.008 -15.850   2.208  1.00  0.00     0.266 C 
HETATM    8  N   UNL     1      43.240 -17.224   2.232  1.00  0.00    -0.284 N 
HETATM    9  H   UNL     1      42.934 -17.820   1.473  1.00  0.00     0.184 HD
HETATM   10  O   UNL     1      43.472 -15.060   3.027  1.00  0.00    -0.266 OA
BRANCH   8  11
HETATM   11  N   UNL     1      44.019 -17.848   3.236  1.00  0.00    -0.220 NA
HETATM   12  C   UNL     1      43.364 -17.911   4.570  1.00  0.00     0.153 C 
HETATM   13  C   UNL     1      43.754 -19.237   5.141  1.00  0.00    -0.036 A 
HETATM   14  C   UNL     1      44.398 -19.998   4.167  1.00  0.00    -0.036 A 
HETATM   15  C   UNL     1      43.515 -19.746   6.407  1.00  0.00     0.009 A 
HETATM   16  C   UNL     1      44.485 -19.219   2.893  1.00  0.00     0.153 C 
HETATM   17  C   UNL     1      44.818 -21.291   4.430  1.00  0.00     0.009 A 
HETATM   18  C   UNL     1      44.584 -21.816   5.704  1.00  0.00     0.001 A 
HETATM   19  C   UNL     1      43.939 -21.048   6.686  1.00  0.00     0.001 A 
ENDBRANCH   8  11
ENDBRANCH   4   7
BRANCH   1  20
HETATM   20  C   UNL     1      39.459 -13.654  -1.911  1.00  0.00     0.139 A 
HETATM   21  C   UNL     1      38.025 -14.150  -1.723  1.00  0.00     0.054 C 
HETATM   22  N   UNL     1      39.512 -12.203  -1.921  1.00  0.00    -0.321 N 
HETATM   23  C   UNL     1      39.970 -11.693  -3.108  1.00  0.00     0.324 A 
HETATM   24  H   UNL     1      39.356 -11.595  -1.131  1.00  0.00     0.165 HD
HETATM   25  O   UNL     1      40.142 -10.509  -3.338  1.00  0.00    -0.247 OA
HETATM   26  N   UNL     1      40.187 -12.712  -3.964  1.00  0.00    -0.277 N 
HETATM   27  C   UNL     1      39.886 -13.904  -3.380  1.00  0.00     0.258 A 
HETATM   28  H   UNL     1      40.500 -12.598  -4.912  1.00  0.00     0.173 HD
HETATM   29  O   UNL     1      39.943 -14.982  -3.954  1.00  0.00    -0.270 OA
ENDBRANCH   1  20
TORSDOF 3
ENDMDL
MODEL 8
REMARK VINA RESULT:      -7.8      3.670      9.406
REMARK  3 active torsions:
REMARK  status: ('A' for Active; 'I' for Inactive)
REMARK    1  A    between atoms: C_2  and  C_3 
REMARK    2  A    between atoms: C_6  and  C_7 
REMARK       I    between atoms: C_7  and  N_8 
REMARK    3  A    between atoms: N_8  and  N_9 
ROOT
HETATM    1  C   UNL     1      40.691 -12.642   5.247  1.00  0.00    -0.021 A 
HETATM    2  C   UNL     1      41.953 -12.874   5.830  1.00  0.00     0.011 A 
HETATM    3  C   UNL     1      42.812 -13.874   5.351  1.00  0.00     0.018 A 
HETATM    4  C   UNL     1      42.420 -14.685   4.283  1.00  0.00     0.033 A 
HETATM    5  C   UNL     1      41.160 -14.473   3.708  1.00  0.00     0.018 A 
HETATM    6  C   UNL     1      40.307 -13.471   4.183  1.00  0.00     0.011 A 
ENDROOT
BRANCH   4   7
HETATM    7  C   UNL     1      43.285 -15.745   3.681  1.00  0.00     0.266 C 
HETATM    8  N   UNL     1      43.505 -16.894   4.440  1.00  0.00    -0.284 N 
HETATM    9  H   UNL     1      43.008 -17.052   5.307  1.00  0.00     0.184 HD
HETATM   10  O   UNL     1      43.752 -15.561   2.559  1.00  0.00    -0.266 OA
BRANCH   8  11
HETATM   11  N   UNL     1      44.326 -17.956   3.991  1.00  0.00    -0.220 NA
HETATM   12  C   UNL     1      44.561 -19.021   5.003  1.00  0.00     0.153 C 
HETATM   13  C   UNL     1      44.554 -20.305   4.237  1.00  0.00    -0.036 A 
HETATM   14  C   UNL     1      44.140 -20.070   2.928  1.00  0.00    -0.036 A 
HETATM   15  C   UNL     1      44.848 -21.585   4.678  1.00  0.00     0.009 A 
HETATM   16  C   UNL     1      43.856 -18.614   2.741  1.00  0.00     0.153 C 
HETATM   17  C   UNL     1      44.002 -21.110   2.023  1.00  0.00     0.009 A 
HETATM   18  C   UNL     1      44.295 -22.405   2.455  1.00  0.00     0.001 A 
HETATM   19  C   UNL     1      44.718 -22.641   3.773  1.00  0.00     0.001 A 
ENDBRANCH   8  11
ENDBRANCH   4   7
BRANCH   1  20
HETATM   20  C   UNL     1      39.798 -11.524   5.780  1.00  0.00     0.139 A 
HETATM   21  C   UNL     1      38.708 -11.132   4.783  1.00  0.00     0.054 C 
HETATM   22  N   UNL     1      39.224 -11.905   7.058  1.00  0.00    -0.321 N 
HETATM   23  C   UNL     1      39.615 -11.088   8.086  1.00  0.00     0.324 A 
HETATM   24  H   UNL     1      38.687 -12.740   7.245  1.00  0.00     0.165 HD
HETATM   25  O   UNL     1      39.299 -11.235   9.253  1.00  0.00    -0.247 OA
HETATM   26  N   UNL     1      40.393 -10.106   7.588  1.00  0.00    -0.277 N 
HETATM   27  C   UNL     1      40.538 -10.242   6.242  1.00  0.00     0.258 A 
HETATM   28  H   UNL     1      40.786  -9.361   8.137  1.00  0.00     0.173 HD
HETATM   29  O   UNL     1      41.151  -9.455   5.534  1.00  0.00    -0.270 OA
ENDBRANCH   1  20
TORSDOF 3
ENDMDL
MODEL 9
REMARK VINA RESULT:      -7.8      6.910     10.029
REMARK  3 active torsions:
REMARK  status: ('A' for Active; 'I' for Inactive)
REMARK    1  A    between atoms: C_2  and  C_3 
REMARK    2  A    between atoms: C_6  and  C_7 
REMARK       I    between atoms: C_7  and  N_8 
REMARK    3  A    between atoms: N_8  and  N_9 
ROOT
HETATM    1  C   UNL     1      42.152 -11.960  -0.872  1.00  0.00    -0.021 A 
HETATM    2  C   UNL     1      42.222 -11.938   0.536  1.00  0.00     0.011 A 
HETATM    3  C   UNL     1      41.986 -13.088   1.302  1.00  0.00     0.018 A 
HETATM    4  C   UNL     1      41.652 -14.293   0.676  1.00  0.00     0.033 A 
HETATM    5  C   UNL     1      41.563 -14.320  -0.722  1.00  0.00     0.018 A 
HETATM    6  C   UNL     1      41.805 -13.173  -1.484  1.00  0.00     0.011 A 
ENDROOT
BRANCH   4   7
HETATM    7  C   UNL     1      41.425 -15.576   1.409  1.00  0.00     0.266 C 
HETATM    8  N   UNL     1      42.553 -16.304   1.783  1.00  0.00    -0.284 N 
HETATM    9  H   UNL     1      43.484 -15.924   1.666  1.00  0.00     0.184 HD
HETATM   10  O   UNL     1      40.270 -15.923   1.650  1.00  0.00    -0.266 OA
BRANCH   8  11
HETATM   11  N   UNL     1      42.468 -17.546   2.458  1.00  0.00    -0.220 NA
HETATM   12  C   UNL     1      42.514 -18.735   1.565  1.00  0.00     0.153 C 
HETATM   13  C   UNL     1      43.313 -19.758   2.308  1.00  0.00    -0.036 A 
HETATM   14  C   UNL     1      43.883 -19.179   3.440  1.00  0.00    -0.036 A 
HETATM   15  C   UNL     1      43.553 -21.082   1.980  1.00  0.00     0.009 A 
HETATM   16  C   UNL     1      43.488 -17.739   3.524  1.00  0.00     0.153 C 
HETATM   17  C   UNL     1      44.714 -19.907   4.275  1.00  0.00     0.009 A 
HETATM   18  C   UNL     1      44.964 -21.244   3.957  1.00  0.00     0.001 A 
HETATM   19  C   UNL     1      44.386 -21.828   2.819  1.00  0.00     0.001 A 
ENDBRANCH   8  11
ENDBRANCH   4   7
BRANCH   1  20
HETATM   20  C   UNL     1      42.446 -10.692  -1.670  1.00  0.00     0.139 A 
HETATM   21  C   UNL     1      43.575  -9.869  -1.049  1.00  0.00     0.054 C 
HETATM   22  N   UNL     1      42.741 -11.024  -3.052  1.00  0.00    -0.321 N 
HETATM   23  C   UNL     1      41.838 -10.493  -3.935  1.00  0.00     0.324 A 
HETATM   24  H   UNL     1      43.450 -11.669  -3.372  1.00  0.00     0.165 HD
HETATM   25  O   UNL     1      41.853 -10.672  -5.140  1.00  0.00    -0.247 OA
HETATM   26  N   UNL     1      40.947  -9.748  -3.250  1.00  0.00    -0.277 N 
HETATM   27  C   UNL     1      41.230  -9.763  -1.919  1.00  0.00     0.258 A 
HETATM   28  H   UNL     1      40.198  -9.230  -3.674  1.00  0.00     0.173 HD
HETATM   29  O   UNL     1      40.610  -9.126  -1.079  1.00  0.00    -0.270 OA
ENDBRANCH   1  20
TORSDOF 3
ENDMDL
MODEL 10
REMARK VINA RESULT:      -7.7      5.402      9.876
REMARK  3 active torsions:
REMARK  status: ('A' for Active; 'I' for Inactive)
REMARK    1  A    between atoms: C_2  and  C_3 
REMARK    2  A    between atoms: C_6  and  C_7 
REMARK       I    between atoms: C_7  and  N_8 
REMARK    3  A    between atoms: N_8  and  N_9 
ROOT
HETATM    1  C   UNL     1      43.680 -17.895   4.544  1.00  0.00    -0.021 A 
HETATM    2  C   UNL     1      43.672 -18.728   3.407  1.00  0.00     0.011 A 
HETATM    3  C   UNL     1      43.025 -18.350   2.223  1.00  0.00     0.018 A 
HETATM    4  C   UNL     1      42.347 -17.129   2.150  1.00  0.00     0.033 A 
HETATM    5  C   UNL     1      42.335 -16.302   3.281  1.00  0.00     0.018 A 
HETATM    6  C   UNL     1      42.986 -16.679   4.461  1.00  0.00     0.011 A 
ENDROOT
BRANCH   4   7
HETATM    7  C   UNL     1      41.666 -16.627   0.919  1.00  0.00     0.266 C 
HETATM    8  N   UNL     1      42.089 -15.399   0.413  1.00  0.00    -0.284 N 
HETATM    9  H   UNL     1      42.898 -14.926   0.796  1.00  0.00     0.184 HD
HETATM   10  O   UNL     1      40.781 -17.312   0.411  1.00  0.00    -0.266 OA
BRANCH   8  11
HETATM   11  N   UNL     1      41.506 -14.805  -0.732  1.00  0.00    -0.220 NA
HETATM   12  C   UNL     1      41.392 -15.713  -1.904  1.00  0.00     0.153 C 
HETATM   13  C   UNL     1      40.087 -15.368  -2.548  1.00  0.00    -0.036 A 
HETATM   14  C   UNL     1      39.375 -14.493  -1.730  1.00  0.00    -0.036 A 
HETATM   15  C   UNL     1      39.555 -15.829  -3.741  1.00  0.00     0.009 A 
HETATM   16  C   UNL     1      40.168 -14.196  -0.497  1.00  0.00     0.153 C 
HETATM   17  C   UNL     1      38.107 -14.058  -2.079  1.00  0.00     0.009 A 
HETATM   18  C   UNL     1      37.559 -14.515  -3.280  1.00  0.00     0.001 A 
HETATM   19  C   UNL     1      38.279 -15.392  -4.106  1.00  0.00     0.001 A 
ENDBRANCH   8  11
ENDBRANCH   4   7
BRANCH   1  20
HETATM   20  C   UNL     1      44.422 -18.332   5.805  1.00  0.00     0.139 A 
HETATM   21  C   UNL     1      45.867 -18.736   5.512  1.00  0.00     0.054 C 
HETATM   22  N   UNL     1      44.367 -17.284   6.809  1.00  0.00    -0.321 N 
HETATM   23  C   UNL     1      43.707 -17.668   7.947  1.00  0.00     0.324 A 
HETATM   24  H   UNL     1      44.660 -16.326   6.688  1.00  0.00     0.165 HD
HETATM   25  O   UNL     1      43.496 -16.948   8.907  1.00  0.00    -0.247 OA
HETATM   26  N   UNL     1      43.343 -18.961   7.823  1.00  0.00    -0.277 N 
HETATM   27  C   UNL     1      43.743 -19.460   6.622  1.00  0.00     0.258 A 
HETATM   28  H   UNL     1      42.867 -19.485   8.536  1.00  0.00     0.173 HD
HETATM   29  O   UNL     1      43.586 -20.623   6.277  1.00  0.00    -0.270 OA
ENDBRANCH   1  20
TORSDOF 3
ENDMDL
