MODEL 1
REMARK VINA RESULT:      -8.2      0.000      0.000
REMARK  7 active torsions:
REMARK  status: ('A' for Active; 'I' for Inactive)
REMARK    1  A    between atoms: C_2  and  N_3 
REMARK       I    between atoms: N_3  and  C_4 
REMARK    2  A    between atoms: C_4  and  C_5 
REMARK    3  A    between atoms: C_9  and  N_10 
REMARK       I    between atoms: N_10  and  C_11 
REMARK    4  A    between atoms: C_11  and  C_12 
REMARK    5  A    between atoms: C_12  and  S_13 
REMARK    6  A    between atoms: S_13  and  C_14 
REMARK    7  A    between atoms: C_14  and  C_15 
ROOT
HETATM    1  N   UNL     1      42.228 -14.446   3.066  1.00  0.00    -0.326 N 
HETATM    2  C   UNL     1      41.398 -14.403   4.179  1.00  0.00     0.231 C 
HETATM    3  O   UNL     1      40.199 -14.667   4.200  1.00  0.00    -0.272 OA
HETATM    4  H   UNL     1      43.227 -14.352   3.246  1.00  0.00     0.169 HD
ENDROOT
BRANCH   2   5
HETATM    5  C   UNL     1      42.114 -13.992   5.458  1.00  0.00     0.177 C 
BRANCH   5   6
HETATM    6  S   UNL     1      43.632 -14.976   5.721  1.00  0.00    -0.147 SA
BRANCH   6   7
HETATM    7  C   UNL     1      42.888 -16.559   6.272  1.00  0.00     0.113 C 
HETATM    8  C   UNL     1      43.435 -16.929   7.648  1.00  0.00     0.029 C 
BRANCH   7   9
HETATM    9  C   UNL     1      43.150 -17.623   5.249  1.00  0.00     0.118 A 
HETATM   10  N   UNL     1      42.654 -17.669   4.025  1.00  0.00    -0.232 NA
HETATM   11  C   UNL     1      43.197 -18.795   3.450  1.00  0.00     0.085 A 
HETATM   12  C   UNL     1      44.084 -19.418   4.320  1.00  0.00     0.062 A 
HETATM   13  C   UNL     1      42.990 -19.346   2.176  1.00  0.00     0.034 A 
HETATM   14  N   UNL     1      44.044 -18.650   5.452  1.00  0.00    -0.342 N 
HETATM   15  C   UNL     1      44.804 -20.568   3.990  1.00  0.00     0.032 A 
HETATM   16  H   UNL     1      44.594 -18.796   6.287  1.00  0.00     0.167 HD
HETATM   17  C   UNL     1      44.587 -21.102   2.715  1.00  0.00     0.002 A 
HETATM   18  C   UNL     1      43.693 -20.505   1.822  1.00  0.00     0.002 A 
ENDBRANCH   7   9
ENDBRANCH   6   7
ENDBRANCH   5   6
ENDBRANCH   2   5
BRANCH   1  19
HETATM   19  C   UNL     1      41.851 -14.707   1.723  1.00  0.00     0.040 A 
HETATM   20  C   UNL     1      41.666 -13.624   0.835  1.00  0.00    -0.034 A 
HETATM   21  C   UNL     1      41.316 -13.873  -0.510  1.00  0.00     0.026 A 
HETATM   22  C   UNL     1      41.848 -12.190   1.255  1.00  0.00     0.050 C 
HETATM   23  C   UNL     1      41.139 -15.179  -0.977  1.00  0.00     0.032 A 
HETATM   24  C   UNL     1      41.280 -16.241  -0.088  1.00  0.00     0.019 A 
HETATM   25  C   UNL     1      41.635 -16.006   1.245  1.00  0.00     0.031 A 
BRANCH  23  26
HETATM   26  C   UNL     1      40.783 -15.477  -2.392  1.00  0.00     0.251 C 
HETATM   27  N   UNL     1      39.435 -15.600  -2.671  1.00  0.00    -0.357 N 
HETATM   28  H   UNL     1      38.763 -15.318  -1.972  1.00  0.00     0.162 HD
HETATM   29  O   UNL     1      41.659 -15.562  -3.245  1.00  0.00    -0.268 OA
BRANCH  27  30
HETATM   30  C   UNL     1      38.959 -15.773  -4.027  1.00  0.00     0.118 C 
HETATM   31  C   UNL     1      37.592 -15.142  -4.221  1.00  0.00     0.026 C 
ENDBRANCH  27  30
ENDBRANCH  23  26
ENDBRANCH   1  19
TORSDOF 7
ENDMDL
MODEL 2
REMARK VINA RESULT:      -8.0      4.920      8.818
REMARK  7 active torsions:
REMARK  status: ('A' for Active; 'I' for Inactive)
REMARK    1  A    between atoms: C_2  and  N_3 
REMARK       I    between atoms: N_3  and  C_4 
REMARK    2  A    between atoms: C_4  and  C_5 
REMARK    3  A    between atoms: C_9  and  N_10 
REMARK       I    between atoms: N_10  and  C_11 
REMARK    4  A    between atoms: C_11  and  C_12 
REMARK    5  A    between atoms: C_12  and  S_13 
REMARK    6  A    between atoms: S_13  and  C_14 
REMARK    7  A    between atoms: C_14  and  C_15 
ROOT
HETATM    1  N   UNL     1      40.798 -14.919   6.263  1.00  0.00    -0.326 N 
HETATM    2  C   UNL     1      40.179 -13.940   5.495  1.00  0.00     0.231 C 
HETATM    3  O   UNL     1      40.183 -13.868   4.269  1.00  0.00    -0.272 OA
HETATM    4  H   UNL     1      40.567 -14.924   7.256  1.00  0.00     0.169 HD
ENDROOT
BRANCH   2   5
HETATM    5  C   UNL     1      39.438 -12.898   6.321  1.00  0.00     0.177 C 
BRANCH   5   6
HETATM    6  S   UNL     1      40.501 -11.459   6.694  1.00  0.00    -0.147 SA
BRANCH   6   7
HETATM    7  C   UNL     1      39.591 -10.758   8.123  1.00  0.00     0.113 C 
HETATM    8  C   UNL     1      39.028  -9.389   7.749  1.00  0.00     0.029 C 
BRANCH   7   9
HETATM    9  C   UNL     1      40.496 -10.696   9.317  1.00  0.00     0.118 A 
HETATM   10  N   UNL     1      41.637 -10.035   9.398  1.00  0.00    -0.232 NA
HETATM   11  C   UNL     1      42.089 -10.238  10.682  1.00  0.00     0.085 A 
HETATM   12  C   UNL     1      41.180 -10.992  11.414  1.00  0.00     0.062 A 
HETATM   13  C   UNL     1      43.267  -9.797  11.302  1.00  0.00     0.034 A 
HETATM   14  N   UNL     1      40.173 -11.263  10.529  1.00  0.00    -0.342 N 
HETATM   15  C   UNL     1      41.367 -11.328  12.756  1.00  0.00     0.032 A 
HETATM   16  H   UNL     1      39.324 -11.771  10.733  1.00  0.00     0.167 HD
HETATM   17  C   UNL     1      42.546 -10.878  13.360  1.00  0.00     0.002 A 
HETATM   18  C   UNL     1      43.484 -10.128  12.647  1.00  0.00     0.002 A 
ENDBRANCH   7   9
ENDBRANCH   6   7
ENDBRANCH   5   6
ENDBRANCH   2   5
BRANCH   1  19
HETATM   19  C   UNL     1      41.631 -15.971   5.801  1.00  0.00     0.040 A 
HETATM   20  C   UNL     1      43.034 -15.834   5.899  1.00  0.00    -0.034 A 
HETATM   21  C   UNL     1      43.872 -16.885   5.468  1.00  0.00     0.026 A 
HETATM   22  C   UNL     1      43.692 -14.606   6.470  1.00  0.00     0.050 C 
HETATM   23  C   UNL     1      43.334 -18.061   4.935  1.00  0.00     0.032 A 
HETATM   24  C   UNL     1      41.954 -18.175   4.801  1.00  0.00     0.019 A 
HETATM   25  C   UNL     1      41.113 -17.142   5.233  1.00  0.00     0.031 A 
BRANCH  23  26
HETATM   26  C   UNL     1      44.190 -19.194   4.483  1.00  0.00     0.251 C 
HETATM   27  N   UNL     1      43.846 -19.777   3.279  1.00  0.00    -0.357 N 
HETATM   28  H   UNL     1      43.167 -19.318   2.688  1.00  0.00     0.162 HD
HETATM   29  O   UNL     1      45.161 -19.537   5.147  1.00  0.00    -0.268 OA
BRANCH  27  30
HETATM   30  C   UNL     1      44.668 -20.807   2.680  1.00  0.00     0.118 C 
HETATM   31  C   UNL     1      43.848 -21.725   1.791  1.00  0.00     0.026 C 
ENDBRANCH  27  30
ENDBRANCH  23  26
ENDBRANCH   1  19
TORSDOF 7
ENDMDL
MODEL 3
REMARK VINA RESULT:      -8.0      4.423      8.208
REMARK  7 active torsions:
REMARK  status: ('A' for Active; 'I' for Inactive)
REMARK    1  A    between atoms: C_2  and  N_3 
REMARK       I    between atoms: N_3  and  C_4 
REMARK    2  A    between atoms: C_4  and  C_5 
REMARK    3  A    between atoms: C_9  and  N_10 
REMARK       I    between atoms: N_10  and  C_11 
REMARK    4  A    between atoms: C_11  and  C_12 
REMARK    5  A    between atoms: C_12  and  S_13 
REMARK    6  A    between atoms: S_13  and  C_14 
REMARK    7  A    between atoms: C_14  and  C_15 
ROOT
HETATM    1  N   UNL     1      40.057 -14.892   5.553  1.00  0.00    -0.326 N 
HETATM    2  C   UNL     1      40.429 -13.599   5.896  1.00  0.00     0.231 C 
HETATM    3  O   UNL     1      41.575 -13.159   5.937  1.00  0.00    -0.272 OA
HETATM    4  H   UNL     1      39.060 -15.052   5.415  1.00  0.00     0.169 HD
ENDROOT
BRANCH   2   5
HETATM    5  C   UNL     1      39.250 -12.695   6.232  1.00  0.00     0.177 C 
BRANCH   5   6
HETATM    6  S   UNL     1      39.752 -10.939   6.303  1.00  0.00    -0.147 SA
BRANCH   6   7
HETATM    7  C   UNL     1      39.541 -10.625   8.097  1.00  0.00     0.113 C 
HETATM    8  C   UNL     1      38.819  -9.295   8.302  1.00  0.00     0.029 C 
BRANCH   7   9
HETATM    9  C   UNL     1      40.877 -10.660   8.777  1.00  0.00     0.118 A 
HETATM   10  N   UNL     1      41.135 -10.268  10.012  1.00  0.00    -0.232 NA
HETATM   11  C   UNL     1      42.474 -10.519  10.206  1.00  0.00     0.085 A 
HETATM   12  C   UNL     1      43.031 -11.126   9.087  1.00  0.00     0.062 A 
HETATM   13  C   UNL     1      43.286 -10.267  11.321  1.00  0.00     0.034 A 
HETATM   14  N   UNL     1      41.996 -11.213   8.196  1.00  0.00    -0.342 N 
HETATM   15  C   UNL     1      44.369 -11.519   9.012  1.00  0.00     0.032 A 
HETATM   16  H   UNL     1      42.036 -11.633   7.279  1.00  0.00     0.167 HD
HETATM   17  C   UNL     1      45.163 -11.263  10.135  1.00  0.00     0.002 A 
HETATM   18  C   UNL     1      44.634 -10.644  11.271  1.00  0.00     0.002 A 
ENDBRANCH   7   9
ENDBRANCH   6   7
ENDBRANCH   5   6
ENDBRANCH   2   5
BRANCH   1  19
HETATM   19  C   UNL     1      40.917 -15.987   5.273  1.00  0.00     0.040 A 
HETATM   20  C   UNL     1      41.119 -16.381   3.932  1.00  0.00    -0.034 A 
HETATM   21  C   UNL     1      41.993 -17.451   3.640  1.00  0.00     0.026 A 
HETATM   22  C   UNL     1      40.453 -15.688   2.773  1.00  0.00     0.050 C 
HETATM   23  C   UNL     1      42.656 -18.136   4.663  1.00  0.00     0.032 A 
HETATM   24  C   UNL     1      42.421 -17.773   5.986  1.00  0.00     0.019 A 
HETATM   25  C   UNL     1      41.563 -16.708   6.285  1.00  0.00     0.031 A 
BRANCH  23  26
HETATM   26  C   UNL     1      43.594 -19.261   4.389  1.00  0.00     0.251 C 
HETATM   27  N   UNL     1      43.713 -19.649   3.069  1.00  0.00    -0.357 N 
HETATM   28  H   UNL     1      43.316 -19.064   2.348  1.00  0.00     0.162 HD
HETATM   29  O   UNL     1      44.238 -19.764   5.302  1.00  0.00    -0.268 OA
BRANCH  27  30
HETATM   30  C   UNL     1      44.678 -20.650   2.663  1.00  0.00     0.118 C 
HETATM   31  C   UNL     1      44.026 -21.750   1.844  1.00  0.00     0.026 C 
ENDBRANCH  27  30
ENDBRANCH  23  26
ENDBRANCH   1  19
TORSDOF 7
ENDMDL
MODEL 4
REMARK VINA RESULT:      -7.8      1.214      1.636
REMARK  7 active torsions:
REMARK  status: ('A' for Active; 'I' for Inactive)
REMARK    1  A    between atoms: C_2  and  N_3 
REMARK       I    between atoms: N_3  and  C_4 
REMARK    2  A    between atoms: C_4  and  C_5 
REMARK    3  A    between atoms: C_9  and  N_10 
REMARK       I    between atoms: N_10  and  C_11 
REMARK    4  A    between atoms: C_11  and  C_12 
REMARK    5  A    between atoms: C_12  and  S_13 
REMARK    6  A    between atoms: S_13  and  C_14 
REMARK    7  A    between atoms: C_14  and  C_15 
ROOT
HETATM    1  N   UNL     1      41.961 -15.040   3.420  1.00  0.00    -0.326 N 
HETATM    2  C   UNL     1      43.071 -14.384   3.937  1.00  0.00     0.231 C 
HETATM    3  O   UNL     1      43.867 -13.694   3.305  1.00  0.00    -0.272 OA
HETATM    4  H   UNL     1      41.317 -15.440   4.101  1.00  0.00     0.169 HD
ENDROOT
BRANCH   2   5
HETATM    5  C   UNL     1      43.249 -14.578   5.436  1.00  0.00     0.177 C 
BRANCH   5   6
HETATM    6  S   UNL     1      42.190 -15.927   6.068  1.00  0.00    -0.147 SA
BRANCH   6   7
HETATM    7  C   UNL     1      43.481 -17.126   6.577  1.00  0.00     0.113 C 
HETATM    8  C   UNL     1      44.766 -16.377   6.922  1.00  0.00     0.029 C 
BRANCH   7   9
HETATM    9  C   UNL     1      43.685 -18.140   5.492  1.00  0.00     0.118 A 
HETATM   10  N   UNL     1      44.363 -19.270   5.596  1.00  0.00    -0.232 NA
HETATM   11  C   UNL     1      44.245 -19.884   4.370  1.00  0.00     0.085 A 
HETATM   12  C   UNL     1      43.436 -19.141   3.520  1.00  0.00     0.062 A 
HETATM   13  C   UNL     1      44.795 -21.090   3.911  1.00  0.00     0.034 A 
HETATM   14  N   UNL     1      43.085 -18.043   4.257  1.00  0.00    -0.342 N 
HETATM   15  C   UNL     1      43.119 -19.539   2.219  1.00  0.00     0.032 A 
HETATM   16  H   UNL     1      42.470 -17.300   3.958  1.00  0.00     0.167 HD
HETATM   17  C   UNL     1      43.673 -20.746   1.778  1.00  0.00     0.002 A 
HETATM   18  C   UNL     1      44.500 -21.509   2.606  1.00  0.00     0.002 A 
ENDBRANCH   7   9
ENDBRANCH   6   7
ENDBRANCH   5   6
ENDBRANCH   2   5
BRANCH   1  19
HETATM   19  C   UNL     1      41.573 -15.127   2.057  1.00  0.00     0.040 A 
HETATM   20  C   UNL     1      40.646 -14.194   1.543  1.00  0.00    -0.034 A 
HETATM   21  C   UNL     1      40.273 -14.253   0.183  1.00  0.00     0.026 A 
HETATM   22  C   UNL     1      40.039 -13.103   2.386  1.00  0.00     0.050 C 
HETATM   23  C   UNL     1      40.801 -15.232  -0.665  1.00  0.00     0.032 A 
HETATM   24  C   UNL     1      41.682 -16.176  -0.145  1.00  0.00     0.019 A 
HETATM   25  C   UNL     1      42.065 -16.120   1.200  1.00  0.00     0.031 A 
BRANCH  23  26
HETATM   26  C   UNL     1      40.438 -15.315  -2.108  1.00  0.00     0.251 C 
HETATM   27  N   UNL     1      39.159 -14.914  -2.441  1.00  0.00    -0.357 N 
HETATM   28  H   UNL     1      38.602 -14.430  -1.751  1.00  0.00     0.162 HD
HETATM   29  O   UNL     1      41.267 -15.685  -2.932  1.00  0.00    -0.268 OA
BRANCH  27  30
HETATM   30  C   UNL     1      38.729 -14.839  -3.821  1.00  0.00     0.118 C 
HETATM   31  C   UNL     1      37.220 -14.950  -3.939  1.00  0.00     0.026 C 
ENDBRANCH  27  30
ENDBRANCH  23  26
ENDBRANCH   1  19
TORSDOF 7
ENDMDL
MODEL 5
REMARK VINA RESULT:      -7.7      1.248      1.858
REMARK  7 active torsions:
REMARK  status: ('A' for Active; 'I' for Inactive)
REMARK    1  A    between atoms: C_2  and  N_3 
REMARK       I    between atoms: N_3  and  C_4 
REMARK    2  A    between atoms: C_4  and  C_5 
REMARK    3  A    between atoms: C_9  and  N_10 
REMARK       I    between atoms: N_10  and  C_11 
REMARK    4  A    between atoms: C_11  and  C_12 
REMARK    5  A    between atoms: C_12  and  S_13 
REMARK    6  A    between atoms: S_13  and  C_14 
REMARK    7  A    between atoms: C_14  and  C_15 
ROOT
HETATM    1  N   UNL     1      42.267 -15.360   3.803  1.00  0.00    -0.326 N 
HETATM    2  C   UNL     1      41.750 -14.762   4.946  1.00  0.00     0.231 C 
HETATM    3  O   UNL     1      40.825 -13.955   4.988  1.00  0.00    -0.272 OA
HETATM    4  H   UNL     1      42.926 -16.123   3.954  1.00  0.00     0.169 HD
ENDROOT
BRANCH   2   5
HETATM    5  C   UNL     1      42.440 -15.203   6.229  1.00  0.00     0.177 C 
BRANCH   5   6
HETATM    6  S   UNL     1      42.008 -16.924   6.664  1.00  0.00    -0.147 SA
BRANCH   6   7
HETATM    7  C   UNL     1      43.678 -17.682   6.645  1.00  0.00     0.113 C 
HETATM    8  C   UNL     1      44.736 -16.583   6.579  1.00  0.00     0.029 C 
BRANCH   7   9
HETATM    9  C   UNL     1      43.783 -18.645   5.501  1.00  0.00     0.118 A 
HETATM   10  N   UNL     1      43.467 -18.399   4.242  1.00  0.00    -0.232 NA
HETATM   11  C   UNL     1      43.762 -19.555   3.556  1.00  0.00     0.085 A 
HETATM   12  C   UNL     1      44.318 -20.505   4.403  1.00  0.00     0.062 A 
HETATM   13  C   UNL     1      43.593 -19.865   2.199  1.00  0.00     0.034 A 
HETATM   14  N   UNL     1      44.330 -19.901   5.631  1.00  0.00    -0.342 N 
HETATM   15  C   UNL     1      44.740 -21.765   3.972  1.00  0.00     0.032 A 
HETATM   16  H   UNL     1      44.699 -20.298   6.483  1.00  0.00     0.167 HD
HETATM   17  C   UNL     1      44.566 -22.056   2.615  1.00  0.00     0.002 A 
HETATM   18  C   UNL     1      43.999 -21.125   1.741  1.00  0.00     0.002 A 
ENDBRANCH   7   9
ENDBRANCH   6   7
ENDBRANCH   5   6
ENDBRANCH   2   5
BRANCH   1  19
HETATM   19  C   UNL     1      41.901 -15.097   2.457  1.00  0.00     0.040 A 
HETATM   20  C   UNL     1      41.186 -16.076   1.732  1.00  0.00    -0.034 A 
HETATM   21  C   UNL     1      40.794 -15.815   0.401  1.00  0.00     0.026 A 
HETATM   22  C   UNL     1      40.794 -17.402   2.327  1.00  0.00     0.050 C 
HETATM   23  C   UNL     1      41.113 -14.602  -0.217  1.00  0.00     0.032 A 
HETATM   24  C   UNL     1      41.855 -13.657   0.486  1.00  0.00     0.019 A 
HETATM   25  C   UNL     1      42.241 -13.902   1.809  1.00  0.00     0.031 A 
BRANCH  23  26
HETATM   26  C   UNL     1      40.704 -14.289  -1.615  1.00  0.00     0.251 C 
HETATM   27  N   UNL     1      39.739 -15.108  -2.167  1.00  0.00    -0.357 N 
HETATM   28  H   UNL     1      39.238 -15.749  -1.567  1.00  0.00     0.162 HD
HETATM   29  O   UNL     1      41.188 -13.327  -2.200  1.00  0.00    -0.268 OA
BRANCH  27  30
HETATM   30  C   UNL     1      39.176 -14.835  -3.473  1.00  0.00     0.118 C 
HETATM   31  C   UNL     1      38.985 -16.111  -4.273  1.00  0.00     0.026 C 
ENDBRANCH  27  30
ENDBRANCH  23  26
ENDBRANCH   1  19
TORSDOF 7
ENDMDL
MODEL 6
REMARK VINA RESULT:      -7.4      1.809      2.021
REMARK  7 active torsions:
REMARK  status: ('A' for Active; 'I' for Inactive)
REMARK    1  A    between atoms: C_2  and  N_3 
REMARK       I    between atoms: N_3  and  C_4 
REMARK    2  A    between atoms: C_4  and  C_5 
REMARK    3  A    between atoms: C_9  and  N_10 
REMARK       I    between atoms: N_10  and  C_11 
REMARK    4  A    between atoms: C_11  and  C_12 
REMARK    5  A    between atoms: C_12  and  S_13 
REMARK    6  A    between atoms: S_13  and  C_14 
REMARK    7  A    between atoms: C_14  and  C_15 
ROOT
HETATM    1  N   UNL     1      39.850 -15.176   3.301  1.00  0.00    -0.326 N 
HETATM    2  C   UNL     1      39.949 -14.340   4.406  1.00  0.00     0.231 C 
HETATM    3  O   UNL     1      39.745 -13.128   4.420  1.00  0.00    -0.272 OA
HETATM    4  H   UNL     1      39.896 -16.177   3.489  1.00  0.00     0.169 HD
ENDROOT
BRANCH   2   5
HETATM    5  C   UNL     1      40.341 -15.065   5.685  1.00  0.00     0.177 C 
BRANCH   5   6
HETATM    6  S   UNL     1      42.155 -15.098   5.907  1.00  0.00    -0.147 SA
BRANCH   6   7
HETATM    7  C   UNL     1      42.357 -16.790   6.585  1.00  0.00     0.113 C 
HETATM    8  C   UNL     1      43.361 -16.762   7.736  1.00  0.00     0.029 C 
BRANCH   7   9
HETATM    9  C   UNL     1      42.770 -17.727   5.490  1.00  0.00     0.118 A 
HETATM   10  N   UNL     1      42.311 -17.731   4.251  1.00  0.00    -0.232 NA
HETATM   11  C   UNL     1      43.001 -18.732   3.607  1.00  0.00     0.085 A 
HETATM   12  C   UNL     1      43.936 -19.315   4.453  1.00  0.00     0.062 A 
HETATM   13  C   UNL     1      42.891 -19.197   2.288  1.00  0.00     0.034 A 
HETATM   14  N   UNL     1      43.777 -18.654   5.641  1.00  0.00    -0.342 N 
HETATM   15  C   UNL     1      44.797 -20.340   4.058  1.00  0.00     0.032 A 
HETATM   16  H   UNL     1      44.321 -18.801   6.479  1.00  0.00     0.167 HD
HETATM   17  C   UNL     1      44.676 -20.789   2.738  1.00  0.00     0.002 A 
HETATM   18  C   UNL     1      43.738 -20.231   1.866  1.00  0.00     0.002 A 
ENDBRANCH   7   9
ENDBRANCH   6   7
ENDBRANCH   5   6
ENDBRANCH   2   5
BRANCH   1  19
HETATM   19  C   UNL     1      39.590 -14.796   1.958  1.00  0.00     0.040 A 
HETATM   20  C   UNL     1      40.638 -14.846   1.011  1.00  0.00    -0.034 A 
HETATM   21  C   UNL     1      40.384 -14.497  -0.333  1.00  0.00     0.026 A 
HETATM   22  C   UNL     1      42.033 -15.284   1.368  1.00  0.00     0.050 C 
HETATM   23  C   UNL     1      39.111 -14.090  -0.742  1.00  0.00     0.032 A 
HETATM   24  C   UNL     1      38.092 -14.000   0.202  1.00  0.00     0.019 A 
HETATM   25  C   UNL     1      38.330 -14.353   1.536  1.00  0.00     0.031 A 
BRANCH  23  26
HETATM   26  C   UNL     1      38.806 -13.727  -2.154  1.00  0.00     0.251 C 
HETATM   27  N   UNL     1      37.688 -12.941  -2.356  1.00  0.00    -0.357 N 
HETATM   28  H   UNL     1      37.241 -12.511  -1.559  1.00  0.00     0.162 HD
HETATM   29  O   UNL     1      39.550 -14.089  -3.059  1.00  0.00    -0.268 OA
BRANCH  27  30
HETATM   30  C   UNL     1      37.356 -12.428  -3.668  1.00  0.00     0.118 C 
HETATM   31  C   UNL     1      36.414 -13.360  -4.408  1.00  0.00     0.026 C 
ENDBRANCH  27  30
ENDBRANCH  23  26
ENDBRANCH   1  19
TORSDOF 7
ENDMDL
MODEL 7
REMARK VINA RESULT:      -7.4      2.625      7.770
REMARK  7 active torsions:
REMARK  status: ('A' for Active; 'I' for Inactive)
REMARK    1  A    between atoms: C_2  and  N_3 
REMARK       I    between atoms: N_3  and  C_4 
REMARK    2  A    between atoms: C_4  and  C_5 
REMARK    3  A    between atoms: C_9  and  N_10 
REMARK       I    between atoms: N_10  and  C_11 
REMARK    4  A    between atoms: C_11  and  C_12 
REMARK    5  A    between atoms: C_12  and  S_13 
REMARK    6  A    between atoms: S_13  and  C_14 
REMARK    7  A    between atoms: C_14  and  C_15 
ROOT
HETATM    1  N   UNL     1      42.193 -14.974   2.481  1.00  0.00    -0.326 N 
HETATM    2  C   UNL     1      42.745 -13.743   2.813  1.00  0.00     0.231 C 
HETATM    3  O   UNL     1      43.879 -13.547   3.242  1.00  0.00    -0.272 OA
HETATM    4  H   UNL     1      41.299 -14.949   1.992  1.00  0.00     0.169 HD
ENDROOT
BRANCH   2   5
HETATM    5  C   UNL     1      41.798 -12.572   2.591  1.00  0.00     0.177 C 
BRANCH   5   6
HETATM    6  S   UNL     1      41.828 -12.008   0.852  1.00  0.00    -0.147 SA
BRANCH   6   7
HETATM    7  C   UNL     1      40.035 -12.061   0.475  1.00  0.00     0.113 C 
HETATM    8  C   UNL     1      39.258 -12.430   1.736  1.00  0.00     0.029 C 
BRANCH   7   9
HETATM    9  C   UNL     1      39.783 -13.018  -0.651  1.00  0.00     0.118 A 
HETATM   10  N   UNL     1      40.648 -13.886  -1.145  1.00  0.00    -0.232 NA
HETATM   11  C   UNL     1      39.966 -14.566  -2.129  1.00  0.00     0.085 A 
HETATM   12  C   UNL     1      38.645 -14.142  -2.199  1.00  0.00     0.062 A 
HETATM   13  C   UNL     1      40.407 -15.573  -3.000  1.00  0.00     0.034 A 
HETATM   14  N   UNL     1      38.550 -13.165  -1.245  1.00  0.00    -0.342 N 
HETATM   15  C   UNL     1      37.712 -14.678  -3.089  1.00  0.00     0.032 A 
HETATM   16  H   UNL     1      37.714 -12.655  -1.000  1.00  0.00     0.167 HD
HETATM   17  C   UNL     1      38.169 -15.683  -3.949  1.00  0.00     0.002 A 
HETATM   18  C   UNL     1      39.494 -16.123  -3.909  1.00  0.00     0.002 A 
ENDBRANCH   7   9
ENDBRANCH   6   7
ENDBRANCH   5   6
ENDBRANCH   2   5
BRANCH   1  19
HETATM   19  C   UNL     1      42.784 -16.254   2.653  1.00  0.00     0.040 A 
HETATM   20  C   UNL     1      42.614 -16.933   3.880  1.00  0.00    -0.034 A 
HETATM   21  C   UNL     1      43.173 -18.217   4.054  1.00  0.00     0.026 A 
HETATM   22  C   UNL     1      41.831 -16.351   5.028  1.00  0.00     0.050 C 
HETATM   23  C   UNL     1      43.906 -18.826   3.030  1.00  0.00     0.032 A 
HETATM   24  C   UNL     1      44.107 -18.136   1.838  1.00  0.00     0.019 A 
HETATM   25  C   UNL     1      43.549 -16.866   1.652  1.00  0.00     0.031 A 
BRANCH  23  26
HETATM   26  C   UNL     1      44.498 -20.185   3.176  1.00  0.00     0.251 C 
HETATM   27  N   UNL     1      44.869 -20.556   4.453  1.00  0.00    -0.357 N 
HETATM   28  H   UNL     1      44.572 -19.989   5.234  1.00  0.00     0.162 HD
HETATM   29  O   UNL     1      44.601 -20.921   2.201  1.00  0.00    -0.268 OA
BRANCH  27  30
HETATM   30  C   UNL     1      45.348 -21.892   4.740  1.00  0.00     0.118 C 
HETATM   31  C   UNL     1      44.259 -22.753   5.353  1.00  0.00     0.026 C 
ENDBRANCH  27  30
ENDBRANCH  23  26
ENDBRANCH   1  19
TORSDOF 7
ENDMDL
MODEL 8
REMARK VINA RESULT:      -7.2      3.203      6.530
REMARK  7 active torsions:
REMARK  status: ('A' for Active; 'I' for Inactive)
REMARK    1  A    between atoms: C_2  and  N_3 
REMARK       I    between atoms: N_3  and  C_4 
REMARK    2  A    between atoms: C_4  and  C_5 
REMARK    3  A    between atoms: C_9  and  N_10 
REMARK       I    between atoms: N_10  and  C_11 
REMARK    4  A    between atoms: C_11  and  C_12 
REMARK    5  A    between atoms: C_12  and  S_13 
REMARK    6  A    between atoms: S_13  and  C_14 
REMARK    7  A    between atoms: C_14  and  C_15 
ROOT
HETATM    1  N   UNL     1      41.507 -15.956   3.309  1.00  0.00    -0.326 N 
HETATM    2  C   UNL     1      40.815 -16.497   2.233  1.00  0.00     0.231 C 
HETATM    3  O   UNL     1      39.782 -16.056   1.737  1.00  0.00    -0.272 OA
HETATM    4  H   UNL     1      42.428 -16.350   3.497  1.00  0.00     0.169 HD
ENDROOT
BRANCH   2   5
HETATM    5  C   UNL     1      41.465 -17.750   1.660  1.00  0.00     0.177 C 
BRANCH   5   6
HETATM    6  S   UNL     1      43.219 -17.461   1.238  1.00  0.00    -0.147 SA
BRANCH   6   7
HETATM    7  C   UNL     1      44.002 -18.796   2.221  1.00  0.00     0.113 C 
HETATM    8  C   UNL     1      43.302 -20.122   1.931  1.00  0.00     0.029 C 
BRANCH   7   9
HETATM    9  C   UNL     1      43.967 -18.439   3.677  1.00  0.00     0.118 A 
HETATM   10  N   UNL     1      43.886 -17.220   4.180  1.00  0.00    -0.232 NA
HETATM   11  C   UNL     1      43.847 -17.387   5.546  1.00  0.00     0.085 A 
HETATM   12  C   UNL     1      43.850 -18.736   5.880  1.00  0.00     0.062 A 
HETATM   13  C   UNL     1      43.795 -16.430   6.569  1.00  0.00     0.034 A 
HETATM   14  N   UNL     1      43.919 -19.384   4.677  1.00  0.00    -0.342 N 
HETATM   15  C   UNL     1      43.789 -19.202   7.195  1.00  0.00     0.032 A 
HETATM   16  H   UNL     1      43.909 -20.385   4.541  1.00  0.00     0.167 HD
HETATM   17  C   UNL     1      43.735 -18.233   8.203  1.00  0.00     0.002 A 
HETATM   18  C   UNL     1      43.741 -16.869   7.899  1.00  0.00     0.002 A 
ENDBRANCH   7   9
ENDBRANCH   6   7
ENDBRANCH   5   6
ENDBRANCH   2   5
BRANCH   1  19
HETATM   19  C   UNL     1      41.118 -14.849   4.110  1.00  0.00     0.040 A 
HETATM   20  C   UNL     1      41.627 -13.566   3.808  1.00  0.00    -0.034 A 
HETATM   21  C   UNL     1      41.227 -12.455   4.580  1.00  0.00     0.026 A 
HETATM   22  C   UNL     1      42.577 -13.318   2.667  1.00  0.00     0.050 C 
HETATM   23  C   UNL     1      40.339 -12.605   5.650  1.00  0.00     0.032 A 
HETATM   24  C   UNL     1      39.873 -13.877   5.971  1.00  0.00     0.019 A 
HETATM   25  C   UNL     1      40.257 -14.985   5.206  1.00  0.00     0.031 A 
BRANCH  23  26
HETATM   26  C   UNL     1      39.887 -11.451   6.477  1.00  0.00     0.251 C 
HETATM   27  N   UNL     1      40.498 -11.304   7.707  1.00  0.00    -0.357 N 
HETATM   28  H   UNL     1      41.319 -11.853   7.915  1.00  0.00     0.162 HD
HETATM   29  O   UNL     1      39.046 -10.673   6.043  1.00  0.00    -0.268 OA
BRANCH  27  30
HETATM   30  C   UNL     1      40.227 -10.158   8.549  1.00  0.00     0.118 C 
HETATM   31  C   UNL     1      39.131 -10.455   9.557  1.00  0.00     0.026 C 
ENDBRANCH  27  30
ENDBRANCH  23  26
ENDBRANCH   1  19
TORSDOF 7
ENDMDL
MODEL 9
REMARK VINA RESULT:      -7.0      2.439      7.655
REMARK  7 active torsions:
REMARK  status: ('A' for Active; 'I' for Inactive)
REMARK    1  A    between atoms: C_2  and  N_3 
REMARK       I    between atoms: N_3  and  C_4 
REMARK    2  A    between atoms: C_4  and  C_5 
REMARK    3  A    between atoms: C_9  and  N_10 
REMARK       I    between atoms: N_10  and  C_11 
REMARK    4  A    between atoms: C_11  and  C_12 
REMARK    5  A    between atoms: C_12  and  S_13 
REMARK    6  A    between atoms: S_13  and  C_14 
REMARK    7  A    between atoms: C_14  and  C_15 
ROOT
HETATM    1  N   UNL     1      40.673 -15.499   2.785  1.00  0.00    -0.326 N 
HETATM    2  C   UNL     1      40.943 -14.147   2.951  1.00  0.00     0.231 C 
HETATM    3  O   UNL     1      42.034 -13.653   3.225  1.00  0.00    -0.272 OA
HETATM    4  H   UNL     1      39.756 -15.732   2.406  1.00  0.00     0.169 HD
ENDROOT
BRANCH   2   5
HETATM    5  C   UNL     1      39.727 -13.254   2.752  1.00  0.00     0.177 C 
BRANCH   5   6
HETATM    6  S   UNL     1      40.091 -11.872   1.612  1.00  0.00    -0.147 SA
BRANCH   6   7
HETATM    7  C   UNL     1      41.267 -12.703   0.476  1.00  0.00     0.113 C 
HETATM    8  C   UNL     1      42.239 -11.674  -0.096  1.00  0.00     0.029 C 
BRANCH   7   9
HETATM    9  C   UNL     1      40.508 -13.428  -0.594  1.00  0.00     0.118 A 
HETATM   10  N   UNL     1      39.237 -13.250  -0.907  1.00  0.00    -0.232 NA
HETATM   11  C   UNL     1      38.995 -14.100  -1.963  1.00  0.00     0.085 A 
HETATM   12  C   UNL     1      40.155 -14.769  -2.336  1.00  0.00     0.062 A 
HETATM   13  C   UNL     1      37.808 -14.346  -2.668  1.00  0.00     0.034 A 
HETATM   14  N   UNL     1      41.104 -14.319  -1.458  1.00  0.00    -0.342 N 
HETATM   15  C   UNL     1      40.212 -15.674  -3.398  1.00  0.00     0.032 A 
HETATM   16  H   UNL     1      42.080 -14.576  -1.458  1.00  0.00     0.167 HD
HETATM   17  C   UNL     1      39.018 -15.906  -4.091  1.00  0.00     0.002 A 
HETATM   18  C   UNL     1      37.834 -15.257  -3.732  1.00  0.00     0.002 A 
ENDBRANCH   7   9
ENDBRANCH   6   7
ENDBRANCH   5   6
ENDBRANCH   2   5
BRANCH   1  19
HETATM   19  C   UNL     1      41.566 -16.584   2.986  1.00  0.00     0.040 A 
HETATM   20  C   UNL     1      41.891 -17.422   1.896  1.00  0.00    -0.034 A 
HETATM   21  C   UNL     1      42.799 -18.488   2.078  1.00  0.00     0.026 A 
HETATM   22  C   UNL     1      41.323 -17.217   0.517  1.00  0.00     0.050 C 
HETATM   23  C   UNL     1      43.376 -18.735   3.328  1.00  0.00     0.032 A 
HETATM   24  C   UNL     1      43.021 -17.933   4.409  1.00  0.00     0.019 A 
HETATM   25  C   UNL     1      42.128 -16.869   4.237  1.00  0.00     0.031 A 
BRANCH  23  26
HETATM   26  C   UNL     1      44.347 -19.842   3.551  1.00  0.00     0.251 C 
HETATM   27  N   UNL     1      44.318 -20.440   4.796  1.00  0.00    -0.357 N 
HETATM   28  H   UNL     1      43.550 -20.234   5.420  1.00  0.00     0.162 HD
HETATM   29  O   UNL     1      45.090 -20.204   2.645  1.00  0.00    -0.268 OA
BRANCH  27  30
HETATM   30  C   UNL     1      45.130 -21.600   5.093  1.00  0.00     0.118 C 
HETATM   31  C   UNL     1      44.583 -22.849   4.425  1.00  0.00     0.026 C 
ENDBRANCH  27  30
ENDBRANCH  23  26
ENDBRANCH   1  19
TORSDOF 7
ENDMDL
MODEL 10
REMARK VINA RESULT:      -6.9      2.232      2.576
REMARK  7 active torsions:
REMARK  status: ('A' for Active; 'I' for Inactive)
REMARK    1  A    between atoms: C_2  and  N_3 
REMARK       I    between atoms: N_3  and  C_4 
REMARK    2  A    between atoms: C_4  and  C_5 
REMARK    3  A    between atoms: C_9  and  N_10 
REMARK       I    between atoms: N_10  and  C_11 
REMARK    4  A    between atoms: C_11  and  C_12 
REMARK    5  A    between atoms: C_12  and  S_13 
REMARK    6  A    between atoms: S_13  and  C_14 
REMARK    7  A    between atoms: C_14  and  C_15 
ROOT
HETATM    1  N   UNL     1      42.169 -14.371   1.948  1.00  0.00    -0.326 N 
HETATM    2  C   UNL     1      42.512 -13.577   3.034  1.00  0.00     0.231 C 
HETATM    3  O   UNL     1      42.069 -12.460   3.287  1.00  0.00    -0.272 OA
HETATM    4  H   UNL     1      42.506 -15.333   1.968  1.00  0.00     0.169 HD
ENDROOT
BRANCH   2   5
HETATM    5  C   UNL     1      43.532 -14.222   3.962  1.00  0.00     0.177 C 
BRANCH   5   6
HETATM    6  S   UNL     1      42.798 -14.630   5.585  1.00  0.00    -0.147 SA
BRANCH   6   7
HETATM    7  C   UNL     1      41.512 -15.826   5.056  1.00  0.00     0.113 C 
HETATM    8  C   UNL     1      40.647 -16.209   6.255  1.00  0.00     0.029 C 
BRANCH   7   9
HETATM    9  C   UNL     1      42.161 -17.016   4.417  1.00  0.00     0.118 A 
HETATM   10  N   UNL     1      41.953 -17.452   3.187  1.00  0.00    -0.232 NA
HETATM   11  C   UNL     1      42.788 -18.536   3.036  1.00  0.00     0.085 A 
HETATM   12  C   UNL     1      43.558 -18.732   4.175  1.00  0.00     0.062 A 
HETATM   13  C   UNL     1      42.953 -19.400   1.943  1.00  0.00     0.034 A 
HETATM   14  N   UNL     1      43.149 -17.750   5.035  1.00  0.00    -0.342 N 
HETATM   15  C   UNL     1      44.513 -19.744   4.293  1.00  0.00     0.032 A 
HETATM   16  H   UNL     1      43.523 -17.574   5.957  1.00  0.00     0.167 HD
HETATM   17  C   UNL     1      44.667 -20.595   3.192  1.00  0.00     0.002 A 
HETATM   18  C   UNL     1      43.899 -20.430   2.037  1.00  0.00     0.002 A 
ENDBRANCH   7   9
ENDBRANCH   6   7
ENDBRANCH   5   6
ENDBRANCH   2   5
BRANCH   1  19
HETATM   19  C   UNL     1      41.317 -14.024   0.866  1.00  0.00     0.040 A 
HETATM   20  C   UNL     1      39.953 -14.389   0.916  1.00  0.00    -0.034 A 
HETATM   21  C   UNL     1      39.092 -14.026  -0.141  1.00  0.00     0.026 A 
HETATM   22  C   UNL     1      39.357 -15.143   2.075  1.00  0.00     0.050 C 
HETATM   23  C   UNL     1      39.570 -13.316  -1.247  1.00  0.00     0.032 A 
HETATM   24  C   UNL     1      40.923 -12.995  -1.313  1.00  0.00     0.019 A 
HETATM   25  C   UNL     1      41.785 -13.343  -0.266  1.00  0.00     0.031 A 
BRANCH  23  26
HETATM   26  C   UNL     1      38.686 -12.906  -2.373  1.00  0.00     0.251 C 
HETATM   27  N   UNL     1      38.890 -11.638  -2.881  1.00  0.00    -0.357 N 
HETATM   28  H   UNL     1      39.714 -11.125  -2.602  1.00  0.00     0.162 HD
HETATM   29  O   UNL     1      37.860 -13.690  -2.827  1.00  0.00    -0.268 OA
BRANCH  27  30
HETATM   30  C   UNL     1      38.173 -11.169  -4.048  1.00  0.00     0.118 C 
HETATM   31  C   UNL     1      39.099 -10.463  -5.022  1.00  0.00     0.026 C 
ENDBRANCH  27  30
ENDBRANCH  23  26
ENDBRANCH   1  19
TORSDOF 7
ENDMDL
