MODEL 1
REMARK VINA RESULT:      -8.4      0.000      0.000
REMARK  8 active torsions:
REMARK  status: ('A' for Active; 'I' for Inactive)
REMARK    1  A    between atoms: C_2  and  O_3 
REMARK    2  A    between atoms: O_3  and  C_4 
REMARK    3  A    between atoms: C_5  and  N_6 
REMARK       I    between atoms: N_6  and  C_7 
REMARK    4  A    between atoms: C_7  and  C_8 
REMARK    5  A    between atoms: C_8  and  N_9 
REMARK    6  A    between atoms: C_12  and  C_13 
REMARK       I    between atoms: C_13  and  N_14 
REMARK    7  A    between atoms: N_14  and  C_15 
REMARK    8  A    between atoms: C_23  and  N_24 
ROOT
HETATM    1  N   UNL     1      41.388 -12.322   5.714  1.00  0.00    -0.248 N 
HETATM    2  N   UNL     1      42.518 -12.298   4.980  1.00  0.00     0.007 NA
HETATM    3  N   UNL     1      42.902 -13.551   4.792  1.00  0.00    -0.150 NA
HETATM    4  C   UNL     1      41.957 -14.380   5.352  1.00  0.00     0.187 A 
HETATM    5  C   UNL     1      40.954 -13.611   5.920  1.00  0.00     0.151 A 
ENDROOT
BRANCH   1   6
HETATM    6  C   UNL     1      40.798 -11.082   6.163  1.00  0.00     0.251 C 
BRANCH   6   7
HETATM    7  C   UNL     1      41.596 -10.486   7.302  1.00  0.00     0.241 C 
HETATM    8  N   UNL     1      41.645 -11.291   8.437  1.00  0.00    -0.323 N 
HETATM    9  H   UNL     1      40.854 -11.900   8.593  1.00  0.00     0.169 HD
HETATM   10  O   UNL     1      42.086  -9.364   7.217  1.00  0.00    -0.271 OA
BRANCH   8  11
HETATM   11  C   UNL     1      42.427 -10.983   9.576  1.00  0.00     0.068 A 
HETATM   12  C   UNL     1      43.830 -10.931   9.582  1.00  0.00     0.095 A 
HETATM   13  C   UNL     1      44.517 -10.508  10.724  1.00  0.00     0.039 A 
HETATM   14  C   UNL     1      43.820 -10.209  11.892  1.00  0.00     0.003 A 
HETATM   15  C   UNL     1      42.433 -10.340  11.921  1.00  0.00     0.002 A 
HETATM   16  C   UNL     1      41.740 -10.734  10.773  1.00  0.00     0.032 A 
BRANCH  12  17
HETATM   17  O   UNL     1      44.622 -11.322   8.534  1.00  0.00    -0.349 OA
BRANCH  17  18
HETATM   18  C   UNL     1      45.257 -12.580   8.790  1.00  0.00     0.171 C 
HETATM   19  C   UNL     1      44.753 -13.582   7.768  1.00  0.00     0.034 C 
ENDBRANCH  17  18
ENDBRANCH  12  17
ENDBRANCH   8  11
ENDBRANCH   6   7
ENDBRANCH   1   6
BRANCH   5  20
HETATM   20  N   UNL     1      39.809 -13.945   6.569  1.00  0.00    -0.382 N 
HETATM   21  H   UNL     1      39.543 -14.937   6.520  1.00  0.00     0.157 HD
HETATM   22  H   UNL     1      38.980 -13.359   6.502  1.00  0.00     0.157 HD
ENDBRANCH   5  20
BRANCH   4  23
HETATM   23  C   UNL     1      42.055 -15.835   5.267  1.00  0.00     0.280 C 
HETATM   24  N   UNL     1      43.177 -16.219   4.557  1.00  0.00    -0.320 N 
HETATM   25  H   UNL     1      43.632 -15.441   4.085  1.00  0.00     0.169 HD
HETATM   26  O   UNL     1      41.177 -16.557   5.720  1.00  0.00    -0.265 OA
BRANCH  24  27
HETATM   27  C   UNL     1      43.636 -17.509   4.213  1.00  0.00     0.057 A 
HETATM   28  C   UNL     1      44.387 -18.397   5.002  1.00  0.00     0.060 A 
HETATM   29 CL   UNL     1      45.135 -17.982   6.502  1.00  0.00    -0.082 Cl
HETATM   30  C   UNL     1      44.715 -19.671   4.506  1.00  0.00     0.026 A 
HETATM   31  C   UNL     1      44.337 -20.060   3.223  1.00  0.00     0.002 A 
HETATM   32  C   UNL     1      43.645 -19.171   2.413  1.00  0.00     0.002 A 
HETATM   33  C   UNL     1      43.305 -17.907   2.902  1.00  0.00     0.031 A 
ENDBRANCH  24  27
ENDBRANCH   4  23
TORSDOF 8
ENDMDL
MODEL 2
REMARK VINA RESULT:      -8.3      0.986      2.139
REMARK  8 active torsions:
REMARK  status: ('A' for Active; 'I' for Inactive)
REMARK    1  A    between atoms: C_2  and  O_3 
REMARK    2  A    between atoms: O_3  and  C_4 
REMARK    3  A    between atoms: C_5  and  N_6 
REMARK       I    between atoms: N_6  and  C_7 
REMARK    4  A    between atoms: C_7  and  C_8 
REMARK    5  A    between atoms: C_8  and  N_9 
REMARK    6  A    between atoms: C_12  and  C_13 
REMARK       I    between atoms: C_13  and  N_14 
REMARK    7  A    between atoms: N_14  and  C_15 
REMARK    8  A    between atoms: C_23  and  N_24 
ROOT
HETATM    1  N   UNL     1      41.519 -12.575   5.526  1.00  0.00    -0.248 N 
HETATM    2  N   UNL     1      42.664 -12.567   4.814  1.00  0.00     0.007 NA
HETATM    3  N   UNL     1      43.035 -13.824   4.635  1.00  0.00    -0.150 NA
HETATM    4  C   UNL     1      42.068 -14.641   5.176  1.00  0.00     0.187 A 
HETATM    5  C   UNL     1      41.064 -13.858   5.723  1.00  0.00     0.151 A 
ENDROOT
BRANCH   1   6
HETATM    6  C   UNL     1      40.937 -11.327   5.961  1.00  0.00     0.251 C 
BRANCH   6   7
HETATM    7  C   UNL     1      41.780 -10.685   7.041  1.00  0.00     0.241 C 
HETATM    8  N   UNL     1      42.242 -11.581   8.001  1.00  0.00    -0.323 N 
HETATM    9  H   UNL     1      41.664 -12.392   8.179  1.00  0.00     0.169 HD
HETATM   10  O   UNL     1      41.964  -9.472   7.068  1.00  0.00    -0.271 OA
BRANCH   8  11
HETATM   11  C   UNL     1      43.139 -11.220   9.035  1.00  0.00     0.068 A 
HETATM   12  C   UNL     1      42.764 -10.546  10.209  1.00  0.00     0.095 A 
HETATM   13  C   UNL     1      43.696 -10.330  11.229  1.00  0.00     0.039 A 
HETATM   14  C   UNL     1      45.024 -10.712  11.058  1.00  0.00     0.003 A 
HETATM   15  C   UNL     1      45.424 -11.305   9.863  1.00  0.00     0.002 A 
HETATM   16  C   UNL     1      44.489 -11.550   8.852  1.00  0.00     0.032 A 
BRANCH  12  17
HETATM   17  O   UNL     1      41.520 -10.016  10.431  1.00  0.00    -0.349 OA
BRANCH  17  18
HETATM   18  C   UNL     1      40.655 -10.950  11.087  1.00  0.00     0.171 C 
HETATM   19  C   UNL     1      39.967 -10.235  12.234  1.00  0.00     0.034 C 
ENDBRANCH  17  18
ENDBRANCH  12  17
ENDBRANCH   8  11
ENDBRANCH   6   7
ENDBRANCH   1   6
BRANCH   5  20
HETATM   20  N   UNL     1      39.901 -14.176   6.349  1.00  0.00    -0.382 N 
HETATM   21  H   UNL     1      39.218 -13.412   6.432  1.00  0.00     0.157 HD
HETATM   22  H   UNL     1      39.900 -14.737   7.196  1.00  0.00     0.157 HD
ENDBRANCH   5  20
BRANCH   4  23
HETATM   23  C   UNL     1      42.149 -16.097   5.094  1.00  0.00     0.280 C 
HETATM   24  N   UNL     1      43.316 -16.497   4.473  1.00  0.00    -0.320 N 
HETATM   25  H   UNL     1      43.820 -15.727   4.039  1.00  0.00     0.169 HD
HETATM   26  O   UNL     1      41.227 -16.805   5.475  1.00  0.00    -0.265 OA
BRANCH  24  27
HETATM   27  C   UNL     1      43.779 -17.794   4.160  1.00  0.00     0.057 A 
HETATM   28  C   UNL     1      44.514 -18.669   4.980  1.00  0.00     0.060 A 
HETATM   29 CL   UNL     1      45.232 -18.228   6.487  1.00  0.00    -0.082 Cl
HETATM   30  C   UNL     1      44.848 -19.952   4.514  1.00  0.00     0.026 A 
HETATM   31  C   UNL     1      44.495 -20.364   3.230  1.00  0.00     0.002 A 
HETATM   32  C   UNL     1      43.822 -19.488   2.391  1.00  0.00     0.002 A 
HETATM   33  C   UNL     1      43.474 -18.215   2.851  1.00  0.00     0.031 A 
ENDBRANCH  24  27
ENDBRANCH   4  23
TORSDOF 8
ENDMDL
MODEL 3
REMARK VINA RESULT:      -8.1      5.434      8.674
REMARK  8 active torsions:
REMARK  status: ('A' for Active; 'I' for Inactive)
REMARK    1  A    between atoms: C_2  and  O_3 
REMARK    2  A    between atoms: O_3  and  C_4 
REMARK    3  A    between atoms: C_5  and  N_6 
REMARK       I    between atoms: N_6  and  C_7 
REMARK    4  A    between atoms: C_7  and  C_8 
REMARK    5  A    between atoms: C_8  and  N_9 
REMARK    6  A    between atoms: C_12  and  C_13 
REMARK       I    between atoms: C_13  and  N_14 
REMARK    7  A    between atoms: N_14  and  C_15 
REMARK    8  A    between atoms: C_23  and  N_24 
ROOT
HETATM    1  N   UNL     1      41.751 -14.960   3.641  1.00  0.00    -0.248 N 
HETATM    2  N   UNL     1      42.879 -14.245   3.453  1.00  0.00     0.007 NA
HETATM    3  N   UNL     1      42.811 -13.695   2.251  1.00  0.00    -0.150 NA
HETATM    4  C   UNL     1      41.587 -14.006   1.703  1.00  0.00     0.187 A 
HETATM    5  C   UNL     1      40.873 -14.789   2.595  1.00  0.00     0.151 A 
ENDROOT
BRANCH   1   6
HETATM    6  C   UNL     1      41.598 -15.759   4.834  1.00  0.00     0.251 C 
BRANCH   6   7
HETATM    7  C   UNL     1      41.905 -17.214   4.553  1.00  0.00     0.241 C 
HETATM    8  N   UNL     1      43.017 -17.407   3.738  1.00  0.00    -0.323 N 
HETATM    9  H   UNL     1      43.224 -16.674   3.073  1.00  0.00     0.169 HD
HETATM   10  O   UNL     1      41.177 -18.110   4.969  1.00  0.00    -0.271 OA
BRANCH   8  11
HETATM   11  C   UNL     1      43.551 -18.684   3.439  1.00  0.00     0.068 A 
HETATM   12  C   UNL     1      44.354 -19.431   4.317  1.00  0.00     0.095 A 
HETATM   13  C   UNL     1      44.744 -20.731   3.985  1.00  0.00     0.039 A 
HETATM   14  C   UNL     1      44.406 -21.270   2.746  1.00  0.00     0.003 A 
HETATM   15  C   UNL     1      43.682 -20.506   1.834  1.00  0.00     0.002 A 
HETATM   16  C   UNL     1      43.265 -19.215   2.174  1.00  0.00     0.032 A 
BRANCH  12  17
HETATM   17  O   UNL     1      44.849 -18.956   5.504  1.00  0.00    -0.349 OA
BRANCH  17  18
HETATM   18  C   UNL     1      44.107 -19.452   6.624  1.00  0.00     0.171 C 
HETATM   19  C   UNL     1      44.029 -18.351   7.665  1.00  0.00     0.034 C 
ENDBRANCH  17  18
ENDBRANCH  12  17
ENDBRANCH   8  11
ENDBRANCH   6   7
ENDBRANCH   1   6
BRANCH   5  20
HETATM   20  N   UNL     1      39.630 -15.332   2.536  1.00  0.00    -0.382 N 
HETATM   21  H   UNL     1      38.938 -14.931   3.183  1.00  0.00     0.157 HD
HETATM   22  H   UNL     1      39.501 -16.338   2.470  1.00  0.00     0.157 HD
ENDBRANCH   5  20
BRANCH   4  23
HETATM   23  C   UNL     1      41.173 -13.500   0.396  1.00  0.00     0.280 C 
HETATM   24  N   UNL     1      42.232 -12.915  -0.270  1.00  0.00    -0.320 N 
HETATM   25  H   UNL     1      43.051 -12.788   0.320  1.00  0.00     0.169 HD
HETATM   26  O   UNL     1      40.004 -13.552   0.039  1.00  0.00    -0.265 OA
BRANCH  24  27
HETATM   27  C   UNL     1      42.271 -12.279  -1.531  1.00  0.00     0.057 A 
HETATM   28  C   UNL     1      41.885 -12.806  -2.775  1.00  0.00     0.060 A 
HETATM   29 CL   UNL     1      41.506 -14.467  -3.061  1.00  0.00    -0.082 Cl
HETATM   30  C   UNL     1      41.948 -12.003  -3.927  1.00  0.00     0.026 A 
HETATM   31  C   UNL     1      42.425 -10.695  -3.865  1.00  0.00     0.002 A 
HETATM   32  C   UNL     1      42.865 -10.184  -2.653  1.00  0.00     0.002 A 
HETATM   33  C   UNL     1      42.794 -10.971  -1.501  1.00  0.00     0.031 A 
ENDBRANCH  24  27
ENDBRANCH   4  23
TORSDOF 8
ENDMDL
MODEL 4
REMARK VINA RESULT:      -8.1      2.618      8.485
REMARK  8 active torsions:
REMARK  status: ('A' for Active; 'I' for Inactive)
REMARK    1  A    between atoms: C_2  and  O_3 
REMARK    2  A    between atoms: O_3  and  C_4 
REMARK    3  A    between atoms: C_5  and  N_6 
REMARK       I    between atoms: N_6  and  C_7 
REMARK    4  A    between atoms: C_7  and  C_8 
REMARK    5  A    between atoms: C_8  and  N_9 
REMARK    6  A    between atoms: C_12  and  C_13 
REMARK       I    between atoms: C_13  and  N_14 
REMARK    7  A    between atoms: N_14  and  C_15 
REMARK    8  A    between atoms: C_23  and  N_24 
ROOT
HETATM    1  N   UNL     1      42.610 -14.714   4.238  1.00  0.00    -0.248 N 
HETATM    2  N   UNL     1      43.747 -14.117   3.825  1.00  0.00     0.007 NA
HETATM    3  N   UNL     1      44.345 -13.609   4.891  1.00  0.00    -0.150 NA
HETATM    4  C   UNL     1      43.613 -13.956   6.003  1.00  0.00     0.187 A 
HETATM    5  C   UNL     1      42.511 -14.699   5.611  1.00  0.00     0.151 A 
ENDROOT
BRANCH   1   6
HETATM    6  C   UNL     1      41.696 -15.267   3.267  1.00  0.00     0.251 C 
BRANCH   6   7
HETATM    7  C   UNL     1      41.914 -16.755   3.107  1.00  0.00     0.241 C 
HETATM    8  N   UNL     1      43.255 -17.128   3.077  1.00  0.00    -0.323 N 
HETATM    9  H   UNL     1      43.906 -16.446   2.714  1.00  0.00     0.169 HD
HETATM   10  O   UNL     1      40.970 -17.524   2.955  1.00  0.00    -0.271 OA
BRANCH   8  11
HETATM   11  C   UNL     1      43.688 -18.476   3.049  1.00  0.00     0.068 A 
HETATM   12  C   UNL     1      44.330 -19.123   4.118  1.00  0.00     0.095 A 
HETATM   13  C   UNL     1      44.622 -20.488   4.045  1.00  0.00     0.039 A 
HETATM   14  C   UNL     1      44.349 -21.203   2.881  1.00  0.00     0.003 A 
HETATM   15  C   UNL     1      43.790 -20.550   1.784  1.00  0.00     0.002 A 
HETATM   16  C   UNL     1      43.470 -19.191   1.863  1.00  0.00     0.032 A 
BRANCH  12  17
HETATM   17  O   UNL     1      44.757 -18.493   5.258  1.00  0.00    -0.349 OA
BRANCH  17  18
HETATM   18  C   UNL     1      43.974 -18.871   6.397  1.00  0.00     0.171 C 
HETATM   19  C   UNL     1      43.989 -17.721   7.385  1.00  0.00     0.034 C 
ENDBRANCH  17  18
ENDBRANCH  12  17
ENDBRANCH   8  11
ENDBRANCH   6   7
ENDBRANCH   1   6
BRANCH   5  20
HETATM   20  N   UNL     1      41.508 -15.282   6.317  1.00  0.00    -0.382 N 
HETATM   21  H   UNL     1      41.078 -16.107   5.879  1.00  0.00     0.157 HD
HETATM   22  H   UNL     1      40.795 -14.719   6.774  1.00  0.00     0.157 HD
ENDBRANCH   5  20
BRANCH   4  23
HETATM   23  C   UNL     1      44.037 -13.596   7.354  1.00  0.00     0.280 C 
HETATM   24  N   UNL     1      43.544 -12.357   7.717  1.00  0.00    -0.320 N 
HETATM   25  H   UNL     1      43.127 -11.852   6.939  1.00  0.00     0.169 HD
HETATM   26  O   UNL     1      44.797 -14.311   7.991  1.00  0.00    -0.265 OA
BRANCH  24  27
HETATM   27  C   UNL     1      43.732 -11.619   8.907  1.00  0.00     0.057 A 
HETATM   28  C   UNL     1      42.769 -10.904   9.640  1.00  0.00     0.060 A 
HETATM   29 CL   UNL     1      41.167 -10.568   9.087  1.00  0.00    -0.082 Cl
HETATM   30  C   UNL     1      43.132 -10.264  10.837  1.00  0.00     0.026 A 
HETATM   31  C   UNL     1      44.447 -10.294  11.297  1.00  0.00     0.002 A 
HETATM   32  C   UNL     1      45.418 -10.946  10.551  1.00  0.00     0.002 A 
HETATM   33  C   UNL     1      45.064 -11.596   9.366  1.00  0.00     0.031 A 
ENDBRANCH  24  27
ENDBRANCH   4  23
TORSDOF 8
ENDMDL
MODEL 5
REMARK VINA RESULT:      -8.0      5.150      7.751
REMARK  8 active torsions:
REMARK  status: ('A' for Active; 'I' for Inactive)
REMARK    1  A    between atoms: C_2  and  O_3 
REMARK    2  A    between atoms: O_3  and  C_4 
REMARK    3  A    between atoms: C_5  and  N_6 
REMARK       I    between atoms: N_6  and  C_7 
REMARK    4  A    between atoms: C_7  and  C_8 
REMARK    5  A    between atoms: C_8  and  N_9 
REMARK    6  A    between atoms: C_12  and  C_13 
REMARK       I    between atoms: C_13  and  N_14 
REMARK    7  A    between atoms: N_14  and  C_15 
REMARK    8  A    between atoms: C_23  and  N_24 
ROOT
HETATM    1  N   UNL     1      41.765 -13.676   2.947  1.00  0.00    -0.248 N 
HETATM    2  N   UNL     1      43.107 -13.751   2.845  1.00  0.00     0.007 NA
HETATM    3  N   UNL     1      43.468 -14.980   3.178  1.00  0.00    -0.150 NA
HETATM    4  C   UNL     1      42.329 -15.714   3.420  1.00  0.00     0.187 A 
HETATM    5  C   UNL     1      41.219 -14.905   3.241  1.00  0.00     0.151 A 
ENDROOT
BRANCH   1   6
HETATM    6  C   UNL     1      41.099 -12.411   2.742  1.00  0.00     0.251 C 
BRANCH   6   7
HETATM    7  C   UNL     1      40.974 -12.099   1.267  1.00  0.00     0.241 C 
HETATM    8  N   UNL     1      41.665 -12.984   0.444  1.00  0.00    -0.323 N 
HETATM    9  H   UNL     1      42.490 -13.417   0.836  1.00  0.00     0.169 HD
HETATM   10  O   UNL     1      40.366 -11.108   0.875  1.00  0.00    -0.271 OA
BRANCH   8  11
HETATM   11  C   UNL     1      41.594 -12.949  -0.970  1.00  0.00     0.068 A 
HETATM   12  C   UNL     1      40.581 -13.559  -1.727  1.00  0.00     0.095 A 
HETATM   13  C   UNL     1      40.527 -13.379  -3.112  1.00  0.00     0.039 A 
HETATM   14  C   UNL     1      41.522 -12.656  -3.764  1.00  0.00     0.003 A 
HETATM   15  C   UNL     1      42.579 -12.119  -3.032  1.00  0.00     0.002 A 
HETATM   16  C   UNL     1      42.621 -12.272  -1.643  1.00  0.00     0.032 A 
BRANCH  12  17
HETATM   17  O   UNL     1      39.624 -14.393  -1.208  1.00  0.00    -0.349 OA
BRANCH  17  18
HETATM   18  C   UNL     1      38.375 -13.716  -1.023  1.00  0.00     0.171 C 
HETATM   19  C   UNL     1      37.909 -13.961   0.399  1.00  0.00     0.034 C 
ENDBRANCH  17  18
ENDBRANCH  12  17
ENDBRANCH   8  11
ENDBRANCH   6   7
ENDBRANCH   1   6
BRANCH   5  20
HETATM   20  N   UNL     1      39.887 -15.152   3.341  1.00  0.00    -0.382 N 
HETATM   21  H   UNL     1      39.593 -15.668   4.180  1.00  0.00     0.157 HD
HETATM   22  H   UNL     1      39.352 -15.464   2.535  1.00  0.00     0.157 HD
ENDBRANCH   5  20
BRANCH   4  23
HETATM   23  C   UNL     1      42.380 -17.134   3.757  1.00  0.00     0.280 C 
HETATM   24  N   UNL     1      43.413 -17.768   3.094  1.00  0.00    -0.320 N 
HETATM   25  H   UNL     1      43.839 -17.187   2.375  1.00  0.00     0.169 HD
HETATM   26  O   UNL     1      41.534 -17.644   4.479  1.00  0.00    -0.265 OA
BRANCH  24  27
HETATM   27  C   UNL     1      43.800 -19.125   3.104  1.00  0.00     0.057 A 
HETATM   28  C   UNL     1      44.461 -19.827   4.127  1.00  0.00     0.060 A 
HETATM   29 CL   UNL     1      45.174 -19.091   5.518  1.00  0.00    -0.082 Cl
HETATM   30  C   UNL     1      44.724 -21.200   3.980  1.00  0.00     0.026 A 
HETATM   31  C   UNL     1      44.373 -21.877   2.814  1.00  0.00     0.002 A 
HETATM   32  C   UNL     1      43.774 -21.182   1.773  1.00  0.00     0.002 A 
HETATM   33  C   UNL     1      43.497 -19.820   1.916  1.00  0.00     0.031 A 
ENDBRANCH  24  27
ENDBRANCH   4  23
TORSDOF 8
ENDMDL
MODEL 6
REMARK VINA RESULT:      -7.9      5.044      7.482
REMARK  8 active torsions:
REMARK  status: ('A' for Active; 'I' for Inactive)
REMARK    1  A    between atoms: C_2  and  O_3 
REMARK    2  A    between atoms: O_3  and  C_4 
REMARK    3  A    between atoms: C_5  and  N_6 
REMARK       I    between atoms: N_6  and  C_7 
REMARK    4  A    between atoms: C_7  and  C_8 
REMARK    5  A    between atoms: C_8  and  N_9 
REMARK    6  A    between atoms: C_12  and  C_13 
REMARK       I    between atoms: C_13  and  N_14 
REMARK    7  A    between atoms: N_14  and  C_15 
REMARK    8  A    between atoms: C_23  and  N_24 
ROOT
HETATM    1  N   UNL     1      41.958 -13.609   3.040  1.00  0.00    -0.248 N 
HETATM    2  N   UNL     1      43.296 -13.738   2.937  1.00  0.00     0.007 NA
HETATM    3  N   UNL     1      43.603 -14.992   3.229  1.00  0.00    -0.150 NA
HETATM    4  C   UNL     1      42.432 -15.684   3.445  1.00  0.00     0.187 A 
HETATM    5  C   UNL     1      41.359 -14.822   3.292  1.00  0.00     0.151 A 
ENDROOT
BRANCH   1   6
HETATM    6  C   UNL     1      41.348 -12.310   2.878  1.00  0.00     0.251 C 
BRANCH   6   7
HETATM    7  C   UNL     1      41.186 -11.968   1.413  1.00  0.00     0.241 C 
HETATM    8  N   UNL     1      41.924 -12.784   0.560  1.00  0.00    -0.323 N 
HETATM    9  H   UNL     1      42.781 -13.171   0.932  1.00  0.00     0.169 HD
HETATM   10  O   UNL     1      40.509 -11.010   1.054  1.00  0.00    -0.271 OA
BRANCH   8  11
HETATM   11  C   UNL     1      41.835 -12.718  -0.851  1.00  0.00     0.068 A 
HETATM   12  C   UNL     1      42.716 -11.988  -1.667  1.00  0.00     0.095 A 
HETATM   13  C   UNL     1      42.623 -12.069  -3.059  1.00  0.00     0.039 A 
HETATM   14  C   UNL     1      41.606 -12.814  -3.651  1.00  0.00     0.003 A 
HETATM   15  C   UNL     1      40.676 -13.473  -2.851  1.00  0.00     0.002 A 
HETATM   16  C   UNL     1      40.783 -13.418  -1.458  1.00  0.00     0.032 A 
BRANCH  12  17
HETATM   17  O   UNL     1      43.671 -11.126  -1.193  1.00  0.00    -0.349 OA
BRANCH  17  18
HETATM   18  C   UNL     1      43.423  -9.779  -1.611  1.00  0.00     0.171 C 
HETATM   19  C   UNL     1      43.461  -8.887  -0.384  1.00  0.00     0.034 C 
ENDBRANCH  17  18
ENDBRANCH  12  17
ENDBRANCH   8  11
ENDBRANCH   6   7
ENDBRANCH   1   6
BRANCH   5  20
HETATM   20  N   UNL     1      40.017 -15.014   3.382  1.00  0.00    -0.382 N 
HETATM   21  H   UNL     1      39.598 -14.801   4.297  1.00  0.00     0.157 HD
HETATM   22  H   UNL     1      39.579 -15.840   2.982  1.00  0.00     0.157 HD
ENDBRANCH   5  20
BRANCH   4  23
HETATM   23  C   UNL     1      42.420 -17.115   3.734  1.00  0.00     0.280 C 
HETATM   24  N   UNL     1      43.491 -17.754   3.137  1.00  0.00    -0.320 N 
HETATM   25  H   UNL     1      43.989 -17.161   2.477  1.00  0.00     0.169 HD
HETATM   26  O   UNL     1      41.504 -17.627   4.363  1.00  0.00    -0.265 OA
BRANCH  24  27
HETATM   27  C   UNL     1      43.843 -19.121   3.130  1.00  0.00     0.057 A 
HETATM   28  C   UNL     1      44.461 -19.858   4.155  1.00  0.00     0.060 A 
HETATM   29 CL   UNL     1      45.159 -19.166   5.575  1.00  0.00    -0.082 Cl
HETATM   30  C   UNL     1      44.693 -21.234   3.988  1.00  0.00     0.026 A 
HETATM   31  C   UNL     1      44.353 -21.880   2.802  1.00  0.00     0.002 A 
HETATM   32  C   UNL     1      43.796 -21.151   1.760  1.00  0.00     0.002 A 
HETATM   33  C   UNL     1      43.551 -19.786   1.923  1.00  0.00     0.031 A 
ENDBRANCH  24  27
ENDBRANCH   4  23
TORSDOF 8
ENDMDL
MODEL 7
REMARK VINA RESULT:      -7.7      1.920      2.991
REMARK  8 active torsions:
REMARK  status: ('A' for Active; 'I' for Inactive)
REMARK    1  A    between atoms: C_2  and  O_3 
REMARK    2  A    between atoms: O_3  and  C_4 
REMARK    3  A    between atoms: C_5  and  N_6 
REMARK       I    between atoms: N_6  and  C_7 
REMARK    4  A    between atoms: C_7  and  C_8 
REMARK    5  A    between atoms: C_8  and  N_9 
REMARK    6  A    between atoms: C_12  and  C_13 
REMARK       I    between atoms: C_13  and  N_14 
REMARK    7  A    between atoms: N_14  and  C_15 
REMARK    8  A    between atoms: C_23  and  N_24 
ROOT
HETATM    1  N   UNL     1      40.598 -12.266   5.857  1.00  0.00    -0.248 N 
HETATM    2  N   UNL     1      40.122 -13.378   6.453  1.00  0.00     0.007 NA
HETATM    3  N   UNL     1      40.469 -14.414   5.708  1.00  0.00    -0.150 NA
HETATM    4  C   UNL     1      41.241 -13.957   4.664  1.00  0.00     0.187 A 
HETATM    5  C   UNL     1      41.368 -12.581   4.760  1.00  0.00     0.151 A 
ENDROOT
BRANCH   1   6
HETATM    6  C   UNL     1      40.276 -10.967   6.400  1.00  0.00     0.251 C 
BRANCH   6   7
HETATM    7  C   UNL     1      41.398 -10.455   7.276  1.00  0.00     0.241 C 
HETATM    8  N   UNL     1      41.693 -11.284   8.355  1.00  0.00    -0.323 N 
HETATM    9  H   UNL     1      40.930 -11.836   8.723  1.00  0.00     0.169 HD
HETATM   10  O   UNL     1      41.931  -9.371   7.059  1.00  0.00    -0.271 OA
BRANCH   8  11
HETATM   11  C   UNL     1      42.778 -11.059   9.236  1.00  0.00     0.068 A 
HETATM   12  C   UNL     1      42.674 -10.385  10.464  1.00  0.00     0.095 A 
HETATM   13  C   UNL     1      43.773 -10.307  11.323  1.00  0.00     0.039 A 
HETATM   14  C   UNL     1      45.005 -10.830  10.936  1.00  0.00     0.003 A 
HETATM   15  C   UNL     1      45.140 -11.425   9.684  1.00  0.00     0.002 A 
HETATM   16  C   UNL     1      44.035 -11.531   8.833  1.00  0.00     0.032 A 
BRANCH  12  17
HETATM   17  O   UNL     1      41.549  -9.727  10.890  1.00  0.00    -0.349 OA
BRANCH  17  18
HETATM   18  C   UNL     1      41.221 -10.061  12.243  1.00  0.00     0.171 C 
HETATM   19  C   UNL     1      40.298 -11.265  12.223  1.00  0.00     0.034 C 
ENDBRANCH  17  18
ENDBRANCH  12  17
ENDBRANCH   8  11
ENDBRANCH   6   7
ENDBRANCH   1   6
BRANCH   5  20
HETATM   20  N   UNL     1      42.031 -11.672   3.999  1.00  0.00    -0.382 N 
HETATM   21  H   UNL     1      42.263 -10.786   4.466  1.00  0.00     0.157 HD
HETATM   22  H   UNL     1      41.756 -11.496   3.037  1.00  0.00     0.157 HD
ENDBRANCH   5  20
BRANCH   4  23
HETATM   23  C   UNL     1      41.834 -14.862   3.683  1.00  0.00     0.280 C 
HETATM   24  N   UNL     1      41.975 -16.136   4.202  1.00  0.00    -0.320 N 
HETATM   25  H   UNL     1      41.804 -16.177   5.204  1.00  0.00     0.169 HD
HETATM   26  O   UNL     1      42.208 -14.457   2.592  1.00  0.00    -0.265 OA
BRANCH  24  27
HETATM   27  C   UNL     1      42.523 -17.298   3.617  1.00  0.00     0.057 A 
HETATM   28  C   UNL     1      42.190 -17.883   2.383  1.00  0.00     0.060 A 
HETATM   29 CL   UNL     1      40.831 -17.428   1.419  1.00  0.00    -0.082 Cl
HETATM   30  C   UNL     1      42.882 -19.022   1.937  1.00  0.00     0.026 A 
HETATM   31  C   UNL     1      43.876 -19.609   2.717  1.00  0.00     0.002 A 
HETATM   32  C   UNL     1      44.173 -19.075   3.963  1.00  0.00     0.002 A 
HETATM   33  C   UNL     1      43.499 -17.936   4.409  1.00  0.00     0.031 A 
ENDBRANCH  24  27
ENDBRANCH   4  23
TORSDOF 8
ENDMDL
MODEL 8
REMARK VINA RESULT:      -7.7      5.125      8.404
REMARK  8 active torsions:
REMARK  status: ('A' for Active; 'I' for Inactive)
REMARK    1  A    between atoms: C_2  and  O_3 
REMARK    2  A    between atoms: O_3  and  C_4 
REMARK    3  A    between atoms: C_5  and  N_6 
REMARK       I    between atoms: N_6  and  C_7 
REMARK    4  A    between atoms: C_7  and  C_8 
REMARK    5  A    between atoms: C_8  and  N_9 
REMARK    6  A    between atoms: C_12  and  C_13 
REMARK       I    between atoms: C_13  and  N_14 
REMARK    7  A    between atoms: N_14  and  C_15 
REMARK    8  A    between atoms: C_23  and  N_24 
ROOT
HETATM    1  N   UNL     1      42.384 -15.064   4.307  1.00  0.00    -0.248 N 
HETATM    2  N   UNL     1      43.484 -14.385   3.924  1.00  0.00     0.007 NA
HETATM    3  N   UNL     1      43.226 -13.829   2.752  1.00  0.00    -0.150 NA
HETATM    4  C   UNL     1      41.917 -14.100   2.425  1.00  0.00     0.187 A 
HETATM    5  C   UNL     1      41.344 -14.863   3.429  1.00  0.00     0.151 A 
ENDROOT
BRANCH   1   6
HETATM    6  C   UNL     1      42.417 -15.862   5.511  1.00  0.00     0.251 C 
BRANCH   6   7
HETATM    7  C   UNL     1      42.484 -17.337   5.180  1.00  0.00     0.241 C 
HETATM    8  N   UNL     1      43.780 -17.845   5.138  1.00  0.00    -0.323 N 
HETATM    9  H   UNL     1      44.511 -17.199   4.875  1.00  0.00     0.169 HD
HETATM   10  O   UNL     1      41.472 -17.977   4.915  1.00  0.00    -0.271 OA
BRANCH   8  11
HETATM   11  C   UNL     1      44.072 -19.219   4.960  1.00  0.00     0.068 A 
HETATM   12  C   UNL     1      44.394 -19.806   3.726  1.00  0.00     0.095 A 
HETATM   13  C   UNL     1      44.779 -21.148   3.660  1.00  0.00     0.039 A 
HETATM   14  C   UNL     1      44.772 -21.937   4.808  1.00  0.00     0.003 A 
HETATM   15  C   UNL     1      44.372 -21.385   6.023  1.00  0.00     0.002 A 
HETATM   16  C   UNL     1      44.014 -20.036   6.098  1.00  0.00     0.032 A 
BRANCH  12  17
HETATM   17  O   UNL     1      44.314 -19.161   2.519  1.00  0.00    -0.349 OA
BRANCH  17  18
HETATM   18  C   UNL     1      43.003 -19.262   1.951  1.00  0.00     0.171 C 
HETATM   19  C   UNL     1      42.576 -17.879   1.495  1.00  0.00     0.034 C 
ENDBRANCH  17  18
ENDBRANCH  12  17
ENDBRANCH   8  11
ENDBRANCH   6   7
ENDBRANCH   1   6
BRANCH   5  20
HETATM   20  N   UNL     1      40.093 -15.367   3.589  1.00  0.00    -0.382 N 
HETATM   21  H   UNL     1      39.340 -14.844   3.121  1.00  0.00     0.157 HD
HETATM   22  H   UNL     1      39.775 -15.699   4.495  1.00  0.00     0.157 HD
ENDBRANCH   5  20
BRANCH   4  23
HETATM   23  C   UNL     1      41.297 -13.578   1.209  1.00  0.00     0.280 C 
HETATM   24  N   UNL     1      42.207 -13.526   0.169  1.00  0.00    -0.320 N 
HETATM   25  H   UNL     1      43.164 -13.694   0.470  1.00  0.00     0.169 HD
HETATM   26  O   UNL     1      40.140 -13.182   1.207  1.00  0.00    -0.265 OA
BRANCH  24  27
HETATM   27  C   UNL     1      42.044 -13.065  -1.156  1.00  0.00     0.057 A 
HETATM   28  C   UNL     1      42.523 -11.869  -1.718  1.00  0.00     0.060 A 
HETATM   29 CL   UNL     1      43.215 -10.569  -0.814  1.00  0.00    -0.082 Cl
HETATM   30  C   UNL     1      42.306 -11.597  -3.079  1.00  0.00     0.026 A 
HETATM   31  C   UNL     1      41.585 -12.480  -3.881  1.00  0.00     0.002 A 
HETATM   32  C   UNL     1      41.056 -13.635  -3.324  1.00  0.00     0.002 A 
HETATM   33  C   UNL     1      41.279 -13.920  -1.974  1.00  0.00     0.031 A 
ENDBRANCH  24  27
ENDBRANCH   4  23
TORSDOF 8
ENDMDL
MODEL 9
REMARK VINA RESULT:      -7.6      4.683      7.163
REMARK  8 active torsions:
REMARK  status: ('A' for Active; 'I' for Inactive)
REMARK    1  A    between atoms: C_2  and  O_3 
REMARK    2  A    between atoms: O_3  and  C_4 
REMARK    3  A    between atoms: C_5  and  N_6 
REMARK       I    between atoms: N_6  and  C_7 
REMARK    4  A    between atoms: C_7  and  C_8 
REMARK    5  A    between atoms: C_8  and  N_9 
REMARK    6  A    between atoms: C_12  and  C_13 
REMARK       I    between atoms: C_13  and  N_14 
REMARK    7  A    between atoms: N_14  and  C_15 
REMARK    8  A    between atoms: C_23  and  N_24 
ROOT
HETATM    1  N   UNL     1      41.799 -13.552   3.749  1.00  0.00    -0.248 N 
HETATM    2  N   UNL     1      43.139 -13.611   3.893  1.00  0.00     0.007 NA
HETATM    3  N   UNL     1      43.446 -14.830   4.304  1.00  0.00    -0.150 NA
HETATM    4  C   UNL     1      42.289 -15.575   4.347  1.00  0.00     0.187 A 
HETATM    5  C   UNL     1      41.222 -14.783   3.958  1.00  0.00     0.151 A 
ENDROOT
BRANCH   1   6
HETATM    6  C   UNL     1      41.169 -12.298   3.408  1.00  0.00     0.251 C 
BRANCH   6   7
HETATM    7  C   UNL     1      40.963 -12.186   1.913  1.00  0.00     0.241 C 
HETATM    8  N   UNL     1      41.960 -12.799   1.160  1.00  0.00    -0.323 N 
HETATM    9  H   UNL     1      42.881 -12.840   1.575  1.00  0.00     0.169 HD
HETATM   10  O   UNL     1      40.024 -11.548   1.446  1.00  0.00    -0.271 OA
BRANCH   8  11
HETATM   11  C   UNL     1      41.910 -12.916  -0.250  1.00  0.00     0.068 A 
HETATM   12  C   UNL     1      41.217 -13.926  -0.937  1.00  0.00     0.095 A 
HETATM   13  C   UNL     1      41.127 -13.900  -2.332  1.00  0.00     0.039 A 
HETATM   14  C   UNL     1      41.789 -12.913  -3.059  1.00  0.00     0.003 A 
HETATM   15  C   UNL     1      42.549 -11.955  -2.391  1.00  0.00     0.002 A 
HETATM   16  C   UNL     1      42.618 -11.961  -0.995  1.00  0.00     0.032 A 
BRANCH  12  17
HETATM   17  O   UNL     1      40.637 -15.011  -0.334  1.00  0.00    -0.349 OA
BRANCH  17  18
HETATM   18  C   UNL     1      41.515 -16.142  -0.319  1.00  0.00     0.171 C 
HETATM   19  C   UNL     1      41.229 -16.949   0.933  1.00  0.00     0.034 C 
ENDBRANCH  17  18
ENDBRANCH  12  17
ENDBRANCH   8  11
ENDBRANCH   6   7
ENDBRANCH   1   6
BRANCH   5  20
HETATM   20  N   UNL     1      39.896 -15.045   3.819  1.00  0.00    -0.382 N 
HETATM   21  H   UNL     1      39.284 -14.634   4.536  1.00  0.00     0.157 HD
HETATM   22  H   UNL     1      39.571 -15.977   3.576  1.00  0.00     0.157 HD
ENDBRANCH   5  20
BRANCH   4  23
HETATM   23  C   UNL     1      42.292 -16.990   4.710  1.00  0.00     0.280 C 
HETATM   24  N   UNL     1      43.509 -17.577   4.420  1.00  0.00    -0.320 N 
HETATM   25  H   UNL     1      44.114 -16.980   3.862  1.00  0.00     0.169 HD
HETATM   26  O   UNL     1      41.284 -17.537   5.137  1.00  0.00    -0.265 OA
BRANCH  24  27
HETATM   27  C   UNL     1      43.931 -18.915   4.577  1.00  0.00     0.057 A 
HETATM   28  C   UNL     1      44.038 -19.652   5.770  1.00  0.00     0.060 A 
HETATM   29 CL   UNL     1      43.907 -18.976   7.354  1.00  0.00    -0.082 Cl
HETATM   30  C   UNL     1      44.433 -21.000   5.729  1.00  0.00     0.026 A 
HETATM   31  C   UNL     1      44.760 -21.615   4.522  1.00  0.00     0.002 A 
HETATM   32  C   UNL     1      44.716 -20.882   3.345  1.00  0.00     0.002 A 
HETATM   33  C   UNL     1      44.312 -19.545   3.376  1.00  0.00     0.031 A 
ENDBRANCH  24  27
ENDBRANCH   4  23
TORSDOF 8
ENDMDL
MODEL 10
REMARK VINA RESULT:      -7.6      4.453      8.100
REMARK  8 active torsions:
REMARK  status: ('A' for Active; 'I' for Inactive)
REMARK    1  A    between atoms: C_2  and  O_3 
REMARK    2  A    between atoms: O_3  and  C_4 
REMARK    3  A    between atoms: C_5  and  N_6 
REMARK       I    between atoms: N_6  and  C_7 
REMARK    4  A    between atoms: C_7  and  C_8 
REMARK    5  A    between atoms: C_8  and  N_9 
REMARK    6  A    between atoms: C_12  and  C_13 
REMARK       I    between atoms: C_13  and  N_14 
REMARK    7  A    between atoms: N_14  and  C_15 
REMARK    8  A    between atoms: C_23  and  N_24 
ROOT
HETATM    1  N   UNL     1      42.438 -16.099   6.484  1.00  0.00    -0.248 N 
HETATM    2  N   UNL     1      41.224 -16.634   6.729  1.00  0.00     0.007 NA
HETATM    3  N   UNL     1      40.348 -16.010   5.959  1.00  0.00    -0.150 NA
HETATM    4  C   UNL     1      41.030 -15.120   5.161  1.00  0.00     0.187 A 
HETATM    5  C   UNL     1      42.382 -15.187   5.456  1.00  0.00     0.151 A 
ENDROOT
BRANCH   1   6
HETATM    6  C   UNL     1      43.577 -16.520   7.266  1.00  0.00     0.251 C 
BRANCH   6   7
HETATM    7  C   UNL     1      44.296 -17.671   6.597  1.00  0.00     0.241 C 
HETATM    8  N   UNL     1      43.444 -18.651   6.096  1.00  0.00    -0.323 N 
HETATM    9  H   UNL     1      42.561 -18.771   6.574  1.00  0.00     0.169 HD
HETATM   10  O   UNL     1      45.521 -17.731   6.577  1.00  0.00    -0.271 OA
BRANCH   8  11
HETATM   11  C   UNL     1      43.892 -19.757   5.334  1.00  0.00     0.068 A 
HETATM   12  C   UNL     1      43.971 -19.773   3.932  1.00  0.00     0.095 A 
HETATM   13  C   UNL     1      44.532 -20.867   3.267  1.00  0.00     0.039 A 
HETATM   14  C   UNL     1      44.949 -21.985   3.985  1.00  0.00     0.003 A 
HETATM   15  C   UNL     1      44.796 -22.014   5.369  1.00  0.00     0.002 A 
HETATM   16  C   UNL     1      44.262 -20.910   6.041  1.00  0.00     0.032 A 
BRANCH  12  17
HETATM   17  O   UNL     1      43.479 -18.784   3.120  1.00  0.00    -0.349 OA
BRANCH  17  18
HETATM   18  C   UNL     1      44.002 -18.882   1.790  1.00  0.00     0.171 C 
HETATM   19  C   UNL     1      44.054 -17.486   1.198  1.00  0.00     0.034 C 
ENDBRANCH  17  18
ENDBRANCH  12  17
ENDBRANCH   8  11
ENDBRANCH   6   7
ENDBRANCH   1   6
BRANCH   5  20
HETATM   20  N   UNL     1      43.459 -14.535   4.945  1.00  0.00    -0.382 N 
HETATM   21  H   UNL     1      44.131 -15.122   4.433  1.00  0.00     0.157 HD
HETATM   22  H   UNL     1      43.953 -13.834   5.490  1.00  0.00     0.157 HD
ENDBRANCH   5  20
BRANCH   4  23
HETATM   23  C   UNL     1      40.355 -14.308   4.151  1.00  0.00     0.280 C 
HETATM   24  N   UNL     1      40.245 -14.992   2.955  1.00  0.00    -0.320 N 
HETATM   25  H   UNL     1      40.791 -15.850   2.936  1.00  0.00     0.169 HD
HETATM   26  O   UNL     1      40.028 -13.152   4.382  1.00  0.00    -0.265 OA
BRANCH  24  27
HETATM   27  C   UNL     1      39.697 -14.578   1.721  1.00  0.00     0.057 A 
HETATM   28  C   UNL     1      40.382 -14.269   0.533  1.00  0.00     0.060 A 
HETATM   29 CL   UNL     1      42.095 -14.087   0.408  1.00  0.00    -0.082 Cl
HETATM   30  C   UNL     1      39.661 -13.919  -0.622  1.00  0.00     0.026 A 
HETATM   31  C   UNL     1      38.270 -13.836  -0.602  1.00  0.00     0.002 A 
HETATM   32  C   UNL     1      37.586 -14.081   0.581  1.00  0.00     0.002 A 
HETATM   33  C   UNL     1      38.295 -14.442   1.730  1.00  0.00     0.031 A 
ENDBRANCH  24  27
ENDBRANCH   4  23
TORSDOF 8
ENDMDL
