MODEL 1
REMARK VINA RESULT:     -10.4      0.000      0.000
REMARK  7 active torsions:
REMARK  status: ('A' for Active; 'I' for Inactive)
REMARK    1  A    between atoms: C_3  and  S_4 
REMARK    2  A    between atoms: S_4  and  N_5 
REMARK    3  A    between atoms: N_5  and  C_6 
REMARK    4  A    between atoms: C_6  and  C_7 
REMARK    5  A    between atoms: C_20  and  C_21 
REMARK    6  A    between atoms: C_25  and  N_26 
REMARK    7  A    between atoms: N_26  and  C_27 
ROOT
HETATM    1  C   UNL     1      45.249 -21.498   4.791  1.00  0.00     0.050 C 
HETATM    2  C   UNL     1      44.510 -20.399   4.081  1.00  0.00    -0.039 A 
HETATM    3  C   UNL     1      43.952 -19.281   4.726  1.00  0.00     0.081 A 
HETATM    4  C   UNL     1      43.241 -18.319   3.986  1.00  0.00     0.039 A 
HETATM    5  C   UNL     1      43.119 -18.408   2.590  1.00  0.00    -0.003 A 
HETATM    6  C   UNL     1      43.666 -19.529   1.955  1.00  0.00     0.014 A 
HETATM    7  C   UNL     1      44.342 -20.509   2.689  1.00  0.00     0.009 A 
ENDROOT
BRANCH   5   8
HETATM    8  C   UNL     1      42.412 -17.367   1.829  1.00  0.00     0.098 A 
HETATM    9  N   UNL     1      41.528 -17.861   0.942  1.00  0.00    -0.172 NA
HETATM   10  N   UNL     1      40.768 -17.021   0.266  1.00  0.00    -0.262 N 
HETATM   11  H   UNL     1      40.102 -17.417  -0.388  1.00  0.00     0.191 HD
HETATM   12  C   UNL     1      40.814 -15.683   0.387  1.00  0.00     0.129 A 
HETATM   13  C   UNL     1      41.735 -15.125   1.316  1.00  0.00     0.022 A 
HETATM   14  C   UNL     1      42.579 -15.989   2.041  1.00  0.00     0.009 A 
HETATM   15  C   UNL     1      41.834 -13.732   1.563  1.00  0.00     0.016 A 
HETATM   16  C   UNL     1      43.532 -15.431   2.932  1.00  0.00     0.015 A 
HETATM   17  C   UNL     1      43.617 -14.057   3.144  1.00  0.00     0.001 A 
HETATM   18  C   UNL     1      42.759 -13.207   2.465  1.00  0.00     0.001 A 
BRANCH  12  19
HETATM   19  N   UNL     1      39.941 -14.870  -0.333  1.00  0.00    -0.370 N 
HETATM   20  H   UNL     1      39.277 -14.398   0.286  1.00  0.00     0.161 HD
BRANCH  19  21
HETATM   21  C   UNL     1      40.311 -14.051  -1.494  1.00  0.00     0.083 C 
HETATM   22  C   UNL     1      41.157 -14.861  -2.489  1.00  0.00     0.025 C 
HETATM   23  C   UNL     1      40.363 -15.975  -3.170  1.00  0.00     0.002 C 
HETATM   24  C   UNL     1      39.105 -15.439  -3.844  1.00  0.00     0.000 C 
HETATM   25  C   UNL     1      38.240 -14.644  -2.871  1.00  0.00     0.002 C 
HETATM   26  C   UNL     1      39.035 -13.534  -2.182  1.00  0.00     0.025 C 
ENDBRANCH  19  21
ENDBRANCH  12  19
ENDBRANCH   5   8
BRANCH   3  27
HETATM   27  S   UNL     1      44.088 -18.999   6.493  1.00  0.00     0.242 S 
HETATM   28  O   UNL     1      43.725 -20.231   7.159  1.00  0.00    -0.206 OA
HETATM   29  O   UNL     1      45.338 -18.333   6.763  1.00  0.00    -0.206 OA
BRANCH  27  30
HETATM   30  N   UNL     1      42.844 -17.876   6.745  1.00  0.00    -0.208 NA
HETATM   31  H   UNL     1      42.126 -18.265   7.362  1.00  0.00     0.140 HD
BRANCH  30  32
HETATM   32  C   UNL     1      43.297 -16.547   7.190  1.00  0.00     0.182 C 
BRANCH  32  33
HETATM   33  C   UNL     1      42.457 -15.513   6.528  1.00  0.00     0.119 A 
HETATM   34  N   UNL     1      41.378 -15.725   5.799  1.00  0.00    -0.232 NA
HETATM   35  C   UNL     1      40.928 -14.473   5.443  1.00  0.00     0.085 A 
HETATM   36  C   UNL     1      41.770 -13.483   5.939  1.00  0.00     0.062 A 
HETATM   37  C   UNL     1      39.801 -14.100   4.695  1.00  0.00     0.034 A 
HETATM   38  N   UNL     1      42.741 -14.171   6.616  1.00  0.00    -0.342 N 
HETATM   39  C   UNL     1      41.559 -12.120   5.728  1.00  0.00     0.032 A 
HETATM   40  H   UNL     1      43.532 -13.765   7.099  1.00  0.00     0.167 HD
HETATM   41  C   UNL     1      40.429 -11.766   4.982  1.00  0.00     0.002 A 
HETATM   42  C   UNL     1      39.562 -12.738   4.475  1.00  0.00     0.002 A 
ENDBRANCH  32  33
ENDBRANCH  30  32
ENDBRANCH  27  30
ENDBRANCH   3  27
TORSDOF 7
ENDMDL
MODEL 2
REMARK VINA RESULT:      -9.4      1.455      1.942
REMARK  7 active torsions:
REMARK  status: ('A' for Active; 'I' for Inactive)
REMARK    1  A    between atoms: C_3  and  S_4 
REMARK    2  A    between atoms: S_4  and  N_5 
REMARK    3  A    between atoms: N_5  and  C_6 
REMARK    4  A    between atoms: C_6  and  C_7 
REMARK    5  A    between atoms: C_20  and  C_21 
REMARK    6  A    between atoms: C_25  and  N_26 
REMARK    7  A    between atoms: N_26  and  C_27 
ROOT
HETATM    1  C   UNL     1      45.055 -21.134   4.879  1.00  0.00     0.050 C 
HETATM    2  C   UNL     1      44.359 -20.033   4.130  1.00  0.00    -0.039 A 
HETATM    3  C   UNL     1      44.013 -18.793   4.696  1.00  0.00     0.081 A 
HETATM    4  C   UNL     1      43.326 -17.833   3.931  1.00  0.00     0.039 A 
HETATM    5  C   UNL     1      43.022 -18.051   2.578  1.00  0.00    -0.003 A 
HETATM    6  C   UNL     1      43.359 -19.292   2.024  1.00  0.00     0.014 A 
HETATM    7  C   UNL     1      44.008 -20.266   2.789  1.00  0.00     0.009 A 
ENDROOT
BRANCH   5   8
HETATM    8  C   UNL     1      42.345 -17.016   1.783  1.00  0.00     0.098 A 
HETATM    9  N   UNL     1      42.718 -17.007   0.489  1.00  0.00    -0.172 NA
HETATM   10  N   UNL     1      42.111 -16.183  -0.343  1.00  0.00    -0.262 N 
HETATM   11  H   UNL     1      42.402 -16.203  -1.315  1.00  0.00     0.191 HD
HETATM   12  C   UNL     1      41.137 -15.326   0.008  1.00  0.00     0.129 A 
HETATM   13  C   UNL     1      40.716 -15.307   1.365  1.00  0.00     0.022 A 
HETATM   14  C   UNL     1      41.356 -16.158   2.289  1.00  0.00     0.009 A 
HETATM   15  C   UNL     1      39.664 -14.481   1.836  1.00  0.00     0.016 A 
HETATM   16  C   UNL     1      40.970 -16.106   3.653  1.00  0.00     0.015 A 
HETATM   17  C   UNL     1      39.943 -15.273   4.090  1.00  0.00     0.001 A 
HETATM   18  C   UNL     1      39.282 -14.467   3.178  1.00  0.00     0.001 A 
BRANCH  12  19
HETATM   19  N   UNL     1      40.516 -14.521  -0.946  1.00  0.00    -0.370 N 
HETATM   20  H   UNL     1      39.578 -14.864  -1.167  1.00  0.00     0.161 HD
BRANCH  19  21
HETATM   21  C   UNL     1      40.613 -13.057  -1.011  1.00  0.00     0.083 C 
HETATM   22  C   UNL     1      42.074 -12.612  -1.188  1.00  0.00     0.025 C 
HETATM   23  C   UNL     1      42.648 -12.995  -2.552  1.00  0.00     0.002 C 
HETATM   24  C   UNL     1      41.782 -12.472  -3.693  1.00  0.00     0.000 C 
HETATM   25  C   UNL     1      40.330 -12.915  -3.548  1.00  0.00     0.002 C 
HETATM   26  C   UNL     1      39.757 -12.540  -2.180  1.00  0.00     0.025 C 
ENDBRANCH  19  21
ENDBRANCH  12  19
ENDBRANCH   5   8
BRANCH   3  27
HETATM   27  S   UNL     1      44.397 -18.346   6.391  1.00  0.00     0.242 S 
HETATM   28  O   UNL     1      43.820 -19.358   7.249  1.00  0.00    -0.206 OA
HETATM   29  O   UNL     1      45.793 -17.992   6.474  1.00  0.00    -0.206 OA
BRANCH  27  30
HETATM   30  N   UNL     1      43.495 -16.923   6.572  1.00  0.00    -0.208 NA
HETATM   31  H   UNL     1      42.849 -17.003   7.362  1.00  0.00     0.140 HD
BRANCH  30  32
HETATM   32  C   UNL     1      44.298 -15.691   6.634  1.00  0.00     0.182 C 
BRANCH  32  33
HETATM   33  C   UNL     1      43.562 -14.608   5.926  1.00  0.00     0.119 A 
HETATM   34  N   UNL     1      43.672 -14.287   4.651  1.00  0.00    -0.232 NA
HETATM   35  C   UNL     1      42.771 -13.264   4.455  1.00  0.00     0.085 A 
HETATM   36  C   UNL     1      42.125 -12.937   5.643  1.00  0.00     0.062 A 
HETATM   37  C   UNL     1      42.445 -12.563   3.284  1.00  0.00     0.034 A 
HETATM   38  N   UNL     1      42.655 -13.799   6.566  1.00  0.00    -0.342 N 
HETATM   39  C   UNL     1      41.162 -11.932   5.741  1.00  0.00     0.032 A 
HETATM   40  H   UNL     1      42.420 -13.837   7.549  1.00  0.00     0.167 HD
HETATM   41  C   UNL     1      40.848 -11.244   4.563  1.00  0.00     0.002 A 
HETATM   42  C   UNL     1      41.476 -11.554   3.353  1.00  0.00     0.002 A 
ENDBRANCH  32  33
ENDBRANCH  30  32
ENDBRANCH  27  30
ENDBRANCH   3  27
TORSDOF 7
ENDMDL
MODEL 3
REMARK VINA RESULT:      -9.3      2.530      3.194
REMARK  7 active torsions:
REMARK  status: ('A' for Active; 'I' for Inactive)
REMARK    1  A    between atoms: C_3  and  S_4 
REMARK    2  A    between atoms: S_4  and  N_5 
REMARK    3  A    between atoms: N_5  and  C_6 
REMARK    4  A    between atoms: C_6  and  C_7 
REMARK    5  A    between atoms: C_20  and  C_21 
REMARK    6  A    between atoms: C_25  and  N_26 
REMARK    7  A    between atoms: N_26  and  C_27 
ROOT
HETATM    1  C   UNL     1      44.875 -19.396   5.700  1.00  0.00     0.050 C 
HETATM    2  C   UNL     1      44.126 -18.530   4.726  1.00  0.00    -0.039 A 
HETATM    3  C   UNL     1      43.484 -17.329   5.073  1.00  0.00     0.081 A 
HETATM    4  C   UNL     1      42.772 -16.600   4.103  1.00  0.00     0.039 A 
HETATM    5  C   UNL     1      42.731 -17.009   2.761  1.00  0.00    -0.003 A 
HETATM    6  C   UNL     1      43.362 -18.212   2.423  1.00  0.00     0.014 A 
HETATM    7  C   UNL     1      44.040 -18.961   3.391  1.00  0.00     0.009 A 
ENDROOT
BRANCH   5   8
HETATM    8  C   UNL     1      42.020 -16.209   1.752  1.00  0.00     0.098 A 
HETATM    9  N   UNL     1      41.461 -16.951   0.778  1.00  0.00    -0.172 NA
HETATM   10  N   UNL     1      40.719 -16.351  -0.133  1.00  0.00    -0.262 N 
HETATM   11  H   UNL     1      40.299 -16.933  -0.850  1.00  0.00     0.191 HD
HETATM   12  C   UNL     1      40.482 -15.029  -0.174  1.00  0.00     0.129 A 
HETATM   13  C   UNL     1      41.055 -14.213   0.840  1.00  0.00     0.022 A 
HETATM   14  C   UNL     1      41.871 -14.815   1.818  1.00  0.00     0.009 A 
HETATM   15  C   UNL     1      40.830 -12.816   0.925  1.00  0.00     0.016 A 
HETATM   16  C   UNL     1      42.483 -13.995   2.802  1.00  0.00     0.015 A 
HETATM   17  C   UNL     1      42.256 -12.622   2.852  1.00  0.00     0.001 A 
HETATM   18  C   UNL     1      41.420 -12.032   1.918  1.00  0.00     0.001 A 
BRANCH  12  19
HETATM   19  N   UNL     1      39.647 -14.482  -1.147  1.00  0.00    -0.370 N 
HETATM   20  H   UNL     1      38.963 -13.844  -0.733  1.00  0.00     0.161 HD
BRANCH  19  21
HETATM   21  C   UNL     1      40.072 -14.064  -2.488  1.00  0.00     0.083 C 
HETATM   22  C   UNL     1      40.830 -15.195  -3.201  1.00  0.00     0.025 C 
HETATM   23  C   UNL     1      39.932 -16.383  -3.546  1.00  0.00     0.002 C 
HETATM   24  C   UNL     1      38.717 -15.951  -4.360  1.00  0.00     0.000 C 
HETATM   25  C   UNL     1      37.939 -14.840  -3.664  1.00  0.00     0.002 C 
HETATM   26  C   UNL     1      38.838 -13.653  -3.310  1.00  0.00     0.025 C 
ENDBRANCH  19  21
ENDBRANCH  12  19
ENDBRANCH   5   8
BRANCH   3  27
HETATM   27  S   UNL     1      43.509 -16.646   6.733  1.00  0.00     0.242 S 
HETATM   28  O   UNL     1      42.491 -17.332   7.500  1.00  0.00    -0.206 OA
HETATM   29  O   UNL     1      44.877 -16.574   7.186  1.00  0.00    -0.206 OA
BRANCH  27  30
HETATM   30  N   UNL     1      42.979 -15.062   6.449  1.00  0.00    -0.208 NA
HETATM   31  H   UNL     1      42.300 -14.776   7.159  1.00  0.00     0.140 HD
BRANCH  30  32
HETATM   32  C   UNL     1      44.058 -14.074   6.281  1.00  0.00     0.182 C 
BRANCH  32  33
HETATM   33  C   UNL     1      44.118 -13.225   7.502  1.00  0.00     0.119 A 
HETATM   34  N   UNL     1      45.003 -13.311   8.477  1.00  0.00    -0.232 NA
HETATM   35  C   UNL     1      44.680 -12.299   9.352  1.00  0.00     0.085 A 
HETATM   36  C   UNL     1      43.556 -11.605   8.915  1.00  0.00     0.062 A 
HETATM   37  C   UNL     1      45.304 -11.907  10.546  1.00  0.00     0.034 A 
HETATM   38  N   UNL     1      43.211 -12.221   7.741  1.00  0.00    -0.342 N 
HETATM   39  C   UNL     1      43.000 -10.530   9.610  1.00  0.00     0.032 A 
HETATM   40  H   UNL     1      42.426 -11.981   7.151  1.00  0.00     0.167 HD
HETATM   41  C   UNL     1      43.637 -10.152  10.797  1.00  0.00     0.002 A 
HETATM   42  C   UNL     1      44.771 -10.826  11.259  1.00  0.00     0.002 A 
ENDBRANCH  32  33
ENDBRANCH  30  32
ENDBRANCH  27  30
ENDBRANCH   3  27
TORSDOF 7
ENDMDL
MODEL 4
REMARK VINA RESULT:      -9.3      4.474      7.697
REMARK  7 active torsions:
REMARK  status: ('A' for Active; 'I' for Inactive)
REMARK    1  A    between atoms: C_3  and  S_4 
REMARK    2  A    between atoms: S_4  and  N_5 
REMARK    3  A    between atoms: N_5  and  C_6 
REMARK    4  A    between atoms: C_6  and  C_7 
REMARK    5  A    between atoms: C_20  and  C_21 
REMARK    6  A    between atoms: C_25  and  N_26 
REMARK    7  A    between atoms: N_26  and  C_27 
ROOT
HETATM    1  C   UNL     1      38.621 -10.161   4.077  1.00  0.00     0.050 C 
HETATM    2  C   UNL     1      39.334 -11.477   4.212  1.00  0.00    -0.039 A 
HETATM    3  C   UNL     1      40.112 -11.840   5.326  1.00  0.00     0.081 A 
HETATM    4  C   UNL     1      40.778 -13.079   5.351  1.00  0.00     0.039 A 
HETATM    5  C   UNL     1      40.641 -14.007   4.307  1.00  0.00    -0.003 A 
HETATM    6  C   UNL     1      39.876 -13.636   3.196  1.00  0.00     0.014 A 
HETATM    7  C   UNL     1      39.241 -12.390   3.147  1.00  0.00     0.009 A 
ENDROOT
BRANCH   5   8
HETATM    8  C   UNL     1      41.308 -15.317   4.374  1.00  0.00     0.098 A 
HETATM    9  N   UNL     1      40.824 -16.208   3.488  1.00  0.00    -0.172 NA
HETATM   10  N   UNL     1      41.405 -17.389   3.391  1.00  0.00    -0.262 N 
HETATM   11  H   UNL     1      41.030 -18.039   2.708  1.00  0.00     0.191 HD
HETATM   12  C   UNL     1      42.457 -17.784   4.129  1.00  0.00     0.129 A 
HETATM   13  C   UNL     1      42.995 -16.869   5.074  1.00  0.00     0.022 A 
HETATM   14  C   UNL     1      42.388 -15.606   5.222  1.00  0.00     0.009 A 
HETATM   15  C   UNL     1      44.133 -17.160   5.868  1.00  0.00     0.016 A 
HETATM   16  C   UNL     1      42.895 -14.710   6.198  1.00  0.00     0.015 A 
HETATM   17  C   UNL     1      44.005 -15.029   6.976  1.00  0.00     0.001 A 
HETATM   18  C   UNL     1      44.632 -16.252   6.804  1.00  0.00     0.001 A 
BRANCH  12  19
HETATM   19  N   UNL     1      43.040 -19.034   3.928  1.00  0.00    -0.370 N 
HETATM   20  H   UNL     1      42.330 -19.753   3.769  1.00  0.00     0.161 HD
BRANCH  19  21
HETATM   21  C   UNL     1      44.274 -19.281   3.172  1.00  0.00     0.083 C 
HETATM   22  C   UNL     1      45.213 -20.219   3.946  1.00  0.00     0.025 C 
HETATM   23  C   UNL     1      44.665 -21.640   4.064  1.00  0.00     0.002 C 
HETATM   24  C   UNL     1      44.323 -22.226   2.698  1.00  0.00     0.000 C 
HETATM   25  C   UNL     1      43.378 -21.320   1.917  1.00  0.00     0.002 C 
HETATM   26  C   UNL     1      43.922 -19.894   1.806  1.00  0.00     0.025 C 
ENDBRANCH  19  21
ENDBRANCH  12  19
ENDBRANCH   5   8
BRANCH   3  27
HETATM   27  S   UNL     1      40.321 -10.785   6.763  1.00  0.00     0.242 S 
HETATM   28  O   UNL     1      41.012  -9.590   6.327  1.00  0.00    -0.206 OA
HETATM   29  O   UNL     1      39.070 -10.717   7.476  1.00  0.00    -0.206 OA
BRANCH  27  30
HETATM   30  N   UNL     1      41.395 -11.705   7.696  1.00  0.00    -0.208 NA
HETATM   31  H   UNL     1      41.617 -12.587   7.226  1.00  0.00     0.140 HD
BRANCH  30  32
HETATM   32  C   UNL     1      42.605 -10.985   8.127  1.00  0.00     0.182 C 
BRANCH  32  33
HETATM   33  C   UNL     1      42.551 -10.806   9.604  1.00  0.00     0.119 A 
HETATM   34  N   UNL     1      43.460 -10.220  10.359  1.00  0.00    -0.232 NA
HETATM   35  C   UNL     1      42.950 -10.258  11.637  1.00  0.00     0.085 A 
HETATM   36  C   UNL     1      41.722 -10.910  11.663  1.00  0.00     0.062 A 
HETATM   37  C   UNL     1      43.481  -9.752  12.834  1.00  0.00     0.034 A 
HETATM   38  N   UNL     1      41.495 -11.259  10.358  1.00  0.00    -0.342 N 
HETATM   39  C   UNL     1      40.978 -11.100  12.828  1.00  0.00     0.032 A 
HETATM   40  H   UNL     1      40.691 -11.763  10.007  1.00  0.00     0.167 HD
HETATM   41  C   UNL     1      41.521 -10.587  14.012  1.00  0.00     0.002 A 
HETATM   42  C   UNL     1      42.751  -9.922  14.017  1.00  0.00     0.002 A 
ENDBRANCH  32  33
ENDBRANCH  30  32
ENDBRANCH  27  30
ENDBRANCH   3  27
TORSDOF 7
ENDMDL
MODEL 5
REMARK VINA RESULT:      -9.2      4.496      8.168
REMARK  7 active torsions:
REMARK  status: ('A' for Active; 'I' for Inactive)
REMARK    1  A    between atoms: C_3  and  S_4 
REMARK    2  A    between atoms: S_4  and  N_5 
REMARK    3  A    between atoms: N_5  and  C_6 
REMARK    4  A    between atoms: C_6  and  C_7 
REMARK    5  A    between atoms: C_20  and  C_21 
REMARK    6  A    between atoms: C_25  and  N_26 
REMARK    7  A    between atoms: N_26  and  C_27 
ROOT
HETATM    1  C   UNL     1      38.443 -10.190   3.993  1.00  0.00     0.050 C 
HETATM    2  C   UNL     1      39.184 -11.479   4.213  1.00  0.00    -0.039 A 
HETATM    3  C   UNL     1      39.989 -11.743   5.335  1.00  0.00     0.081 A 
HETATM    4  C   UNL     1      40.679 -12.965   5.440  1.00  0.00     0.039 A 
HETATM    5  C   UNL     1      40.541 -13.972   4.473  1.00  0.00    -0.003 A 
HETATM    6  C   UNL     1      39.747 -13.700   3.352  1.00  0.00     0.014 A 
HETATM    7  C   UNL     1      39.088 -12.473   3.222  1.00  0.00     0.009 A 
ENDROOT
BRANCH   5   8
HETATM    8  C   UNL     1      41.233 -15.260   4.624  1.00  0.00     0.098 A 
HETATM    9  N   UNL     1      41.146 -15.772   5.867  1.00  0.00    -0.172 NA
HETATM   10  N   UNL     1      41.650 -16.968   6.100  1.00  0.00    -0.262 N 
HETATM   11  H   UNL     1      41.561 -17.336   7.041  1.00  0.00     0.191 HD
HETATM   12  C   UNL     1      42.267 -17.729   5.180  1.00  0.00     0.129 A 
HETATM   13  C   UNL     1      42.377 -17.222   3.856  1.00  0.00     0.022 A 
HETATM   14  C   UNL     1      41.870 -15.939   3.573  1.00  0.00     0.009 A 
HETATM   15  C   UNL     1      42.962 -17.958   2.794  1.00  0.00     0.016 A 
HETATM   16  C   UNL     1      42.022 -15.412   2.264  1.00  0.00     0.015 A 
HETATM   17  C   UNL     1      42.615 -16.152   1.244  1.00  0.00     0.001 A 
HETATM   18  C   UNL     1      43.077 -17.432   1.507  1.00  0.00     0.001 A 
BRANCH  12  19
HETATM   19  N   UNL     1      42.730 -19.003   5.501  1.00  0.00    -0.370 N 
HETATM   20  H   UNL     1      42.605 -19.651   4.719  1.00  0.00     0.161 HD
BRANCH  19  21
HETATM   21  C   UNL     1      43.936 -19.292   6.287  1.00  0.00     0.083 C 
HETATM   22  C   UNL     1      43.812 -20.646   7.004  1.00  0.00     0.025 C 
HETATM   23  C   UNL     1      43.815 -21.829   6.037  1.00  0.00     0.002 C 
HETATM   24  C   UNL     1      45.039 -21.810   5.128  1.00  0.00     0.000 C 
HETATM   25  C   UNL     1      45.174 -20.482   4.393  1.00  0.00     0.002 C 
HETATM   26  C   UNL     1      45.163 -19.295   5.358  1.00  0.00     0.025 C 
ENDBRANCH  19  21
ENDBRANCH  12  19
ENDBRANCH   5   8
BRANCH   3  27
HETATM   27  S   UNL     1      40.205 -10.578   6.683  1.00  0.00     0.242 S 
HETATM   28  O   UNL     1      41.073  -9.522   6.210  1.00  0.00    -0.206 OA
HETATM   29  O   UNL     1      38.915 -10.294   7.263  1.00  0.00    -0.206 OA
BRANCH  27  30
HETATM   30  N   UNL     1      41.073 -11.517   7.796  1.00  0.00    -0.208 NA
HETATM   31  H   UNL     1      41.130 -12.489   7.481  1.00  0.00     0.140 HD
BRANCH  30  32
HETATM   32  C   UNL     1      42.392 -10.972   8.161  1.00  0.00     0.182 C 
BRANCH  32  33
HETATM   33  C   UNL     1      42.430 -10.769   9.634  1.00  0.00     0.119 A 
HETATM   34  N   UNL     1      43.361 -10.129  10.316  1.00  0.00    -0.232 NA
HETATM   35  C   UNL     1      42.943 -10.166  11.627  1.00  0.00     0.085 A 
HETATM   36  C   UNL     1      41.750 -10.871  11.747  1.00  0.00     0.062 A 
HETATM   37  C   UNL     1      43.531  -9.616  12.776  1.00  0.00     0.034 A 
HETATM   38  N   UNL     1      41.450 -11.254  10.467  1.00  0.00    -0.342 N 
HETATM   39  C   UNL     1      41.097 -11.073  12.964  1.00  0.00     0.032 A 
HETATM   40  H   UNL     1      40.648 -11.798  10.180  1.00  0.00     0.167 HD
HETATM   41  C   UNL     1      41.697 -10.515  14.100  1.00  0.00     0.002 A 
HETATM   42  C   UNL     1      42.892  -9.797  14.009  1.00  0.00     0.002 A 
ENDBRANCH  32  33
ENDBRANCH  30  32
ENDBRANCH  27  30
ENDBRANCH   3  27
TORSDOF 7
ENDMDL
MODEL 6
REMARK VINA RESULT:      -9.0      3.532      4.668
REMARK  7 active torsions:
REMARK  status: ('A' for Active; 'I' for Inactive)
REMARK    1  A    between atoms: C_3  and  S_4 
REMARK    2  A    between atoms: S_4  and  N_5 
REMARK    3  A    between atoms: N_5  and  C_6 
REMARK    4  A    between atoms: C_6  and  C_7 
REMARK    5  A    between atoms: C_20  and  C_21 
REMARK    6  A    between atoms: C_25  and  N_26 
REMARK    7  A    between atoms: N_26  and  C_27 
ROOT
HETATM    1  C   UNL     1      44.144 -19.145   4.918  1.00  0.00     0.050 C 
HETATM    2  C   UNL     1      43.690 -17.904   4.201  1.00  0.00    -0.039 A 
HETATM    3  C   UNL     1      43.400 -16.687   4.842  1.00  0.00     0.081 A 
HETATM    4  C   UNL     1      42.942 -15.585   4.096  1.00  0.00     0.039 A 
HETATM    5  C   UNL     1      42.819 -15.645   2.699  1.00  0.00    -0.003 A 
HETATM    6  C   UNL     1      43.097 -16.862   2.068  1.00  0.00     0.014 A 
HETATM    7  C   UNL     1      43.517 -17.973   2.807  1.00  0.00     0.009 A 
ENDROOT
BRANCH   5   8
HETATM    8  C   UNL     1      42.383 -14.468   1.932  1.00  0.00     0.098 A 
HETATM    9  N   UNL     1      42.633 -13.301   2.555  1.00  0.00    -0.172 NA
HETATM   10  N   UNL     1      42.370 -12.173   1.923  1.00  0.00    -0.262 N 
HETATM   11  H   UNL     1      42.578 -11.307   2.409  1.00  0.00     0.191 HD
HETATM   12  C   UNL     1      41.851 -12.094   0.686  1.00  0.00     0.129 A 
HETATM   13  C   UNL     1      41.575 -13.306  -0.003  1.00  0.00     0.022 A 
HETATM   14  C   UNL     1      41.822 -14.532   0.647  1.00  0.00     0.009 A 
HETATM   15  C   UNL     1      41.075 -13.343  -1.330  1.00  0.00     0.016 A 
HETATM   16  C   UNL     1      41.502 -15.742  -0.022  1.00  0.00     0.015 A 
HETATM   17  C   UNL     1      40.997 -15.747  -1.320  1.00  0.00     0.001 A 
HETATM   18  C   UNL     1      40.793 -14.546  -1.979  1.00  0.00     0.001 A 
BRANCH  12  19
HETATM   19  N   UNL     1      41.647 -10.859   0.074  1.00  0.00    -0.370 N 
HETATM   20  H   UNL     1      40.777 -10.426   0.393  1.00  0.00     0.161 HD
BRANCH  19  21
HETATM   21  C   UNL     1      42.697  -9.873  -0.212  1.00  0.00     0.083 C 
HETATM   22  C   UNL     1      43.588 -10.342  -1.373  1.00  0.00     0.025 C 
HETATM   23  C   UNL     1      42.850 -10.367  -2.712  1.00  0.00     0.002 C 
HETATM   24  C   UNL     1      42.217  -9.017  -3.029  1.00  0.00     0.000 C 
HETATM   25  C   UNL     1      41.314  -8.538  -1.897  1.00  0.00     0.002 C 
HETATM   26  C   UNL     1      42.049  -8.521  -0.555  1.00  0.00     0.025 C 
ENDBRANCH  19  21
ENDBRANCH  12  19
ENDBRANCH   5   8
BRANCH   3  27
HETATM   27  S   UNL     1      43.577 -16.442   6.611  1.00  0.00     0.242 S 
HETATM   28  O   UNL     1      42.423 -17.038   7.249  1.00  0.00    -0.206 OA
HETATM   29  O   UNL     1      44.921 -16.794   6.997  1.00  0.00    -0.206 OA
BRANCH  27  30
HETATM   30  N   UNL     1      43.434 -14.758   6.729  1.00  0.00    -0.208 NA
HETATM   31  H   UNL     1      42.681 -14.504   7.374  1.00  0.00     0.140 HD
BRANCH  30  32
HETATM   32  C   UNL     1      44.691 -14.055   7.037  1.00  0.00     0.182 C 
BRANCH  32  33
HETATM   33  C   UNL     1      44.436 -13.085   8.136  1.00  0.00     0.119 A 
HETATM   34  N   UNL     1      45.139 -12.951   9.245  1.00  0.00    -0.232 NA
HETATM   35  C   UNL     1      44.551 -11.908   9.924  1.00  0.00     0.085 A 
HETATM   36  C   UNL     1      43.449 -11.421   9.229  1.00  0.00     0.062 A 
HETATM   37  C   UNL     1      44.905 -11.316  11.146  1.00  0.00     0.034 A 
HETATM   38  N   UNL     1      43.390 -12.195   8.100  1.00  0.00    -0.342 N 
HETATM   39  C   UNL     1      42.658 -10.366   9.686  1.00  0.00     0.032 A 
HETATM   40  H   UNL     1      42.699 -12.125   7.366  1.00  0.00     0.167 HD
HETATM   41  C   UNL     1      43.027  -9.786  10.905  1.00  0.00     0.002 A 
HETATM   42  C   UNL     1      44.132 -10.249  11.624  1.00  0.00     0.002 A 
ENDBRANCH  32  33
ENDBRANCH  30  32
ENDBRANCH  27  30
ENDBRANCH   3  27
TORSDOF 7
ENDMDL
MODEL 7
REMARK VINA RESULT:      -9.0      4.070      7.871
REMARK  7 active torsions:
REMARK  status: ('A' for Active; 'I' for Inactive)
REMARK    1  A    between atoms: C_3  and  S_4 
REMARK    2  A    between atoms: S_4  and  N_5 
REMARK    3  A    between atoms: N_5  and  C_6 
REMARK    4  A    between atoms: C_6  and  C_7 
REMARK    5  A    between atoms: C_20  and  C_21 
REMARK    6  A    between atoms: C_25  and  N_26 
REMARK    7  A    between atoms: N_26  and  C_27 
ROOT
HETATM    1  C   UNL     1      37.913 -10.868   2.028  1.00  0.00     0.050 C 
HETATM    2  C   UNL     1      38.722 -12.033   2.527  1.00  0.00    -0.039 A 
HETATM    3  C   UNL     1      39.525 -11.996   3.681  1.00  0.00     0.081 A 
HETATM    4  C   UNL     1      40.281 -13.122   4.054  1.00  0.00     0.039 A 
HETATM    5  C   UNL     1      40.213 -14.324   3.332  1.00  0.00    -0.003 A 
HETATM    6  C   UNL     1      39.421 -14.351   2.178  1.00  0.00     0.014 A 
HETATM    7  C   UNL     1      38.696 -13.223   1.780  1.00  0.00     0.009 A 
ENDROOT
BRANCH   5   8
HETATM    8  C   UNL     1      40.975 -15.505   3.764  1.00  0.00     0.098 A 
HETATM    9  N   UNL     1      40.767 -15.832   5.054  1.00  0.00    -0.172 NA
HETATM   10  N   UNL     1      41.326 -16.928   5.530  1.00  0.00    -0.262 N 
HETATM   11  H   UNL     1      41.145 -17.159   6.502  1.00  0.00     0.191 HD
HETATM   12  C   UNL     1      42.110 -17.756   4.819  1.00  0.00     0.129 A 
HETATM   13  C   UNL     1      42.351 -17.443   3.453  1.00  0.00     0.022 A 
HETATM   14  C   UNL     1      41.790 -16.269   2.914  1.00  0.00     0.009 A 
HETATM   15  C   UNL     1      43.120 -18.271   2.596  1.00  0.00     0.016 A 
HETATM   16  C   UNL     1      42.068 -15.931   1.564  1.00  0.00     0.015 A 
HETATM   17  C   UNL     1      42.840 -16.755   0.750  1.00  0.00     0.001 A 
HETATM   18  C   UNL     1      43.359 -17.933   1.264  1.00  0.00     0.001 A 
BRANCH  12  19
HETATM   19  N   UNL     1      42.623 -18.920   5.389  1.00  0.00    -0.370 N 
HETATM   20  H   UNL     1      42.453 -19.732   4.791  1.00  0.00     0.161 HD
BRANCH  19  21
HETATM   21  C   UNL     1      43.890 -19.015   6.125  1.00  0.00     0.083 C 
HETATM   22  C   UNL     1      43.779 -20.021   7.281  1.00  0.00     0.025 C 
HETATM   23  C   UNL     1      43.623 -21.462   6.798  1.00  0.00     0.002 C 
HETATM   24  C   UNL     1      44.744 -21.860   5.844  1.00  0.00     0.000 C 
HETATM   25  C   UNL     1      44.863 -20.884   4.678  1.00  0.00     0.002 C 
HETATM   26  C   UNL     1      45.010 -19.440   5.159  1.00  0.00     0.025 C 
ENDBRANCH  19  21
ENDBRANCH  12  19
ENDBRANCH   5   8
BRANCH   3  27
HETATM   27  S   UNL     1      39.656 -10.553   4.740  1.00  0.00     0.242 S 
HETATM   28  O   UNL     1      40.554  -9.620   4.094  1.00  0.00    -0.206 OA
HETATM   29  O   UNL     1      38.333 -10.161   5.158  1.00  0.00    -0.206 OA
BRANCH  27  30
HETATM   30  N   UNL     1      40.450 -11.202   6.088  1.00  0.00    -0.208 NA
HETATM   31  H   UNL     1      41.444 -11.344   5.889  1.00  0.00     0.140 HD
BRANCH  30  32
HETATM   32  C   UNL     1      40.235 -10.461   7.343  1.00  0.00     0.182 C 
BRANCH  32  33
HETATM   33  C   UNL     1      41.446 -10.610   8.196  1.00  0.00     0.119 A 
HETATM   34  N   UNL     1      41.664 -10.028   9.359  1.00  0.00    -0.232 NA
HETATM   35  C   UNL     1      42.887 -10.502   9.780  1.00  0.00     0.085 A 
HETATM   36  C   UNL     1      43.436 -11.364   8.836  1.00  0.00     0.062 A 
HETATM   37  C   UNL     1      43.596 -10.242  10.962  1.00  0.00     0.034 A 
HETATM   38  N   UNL     1      42.504 -11.407   7.833  1.00  0.00    -0.342 N 
HETATM   39  C   UNL     1      44.673 -11.990   8.996  1.00  0.00     0.032 A 
HETATM   40  H   UNL     1      42.579 -11.934   6.973  1.00  0.00     0.167 HD
HETATM   41  C   UNL     1      45.365 -11.720  10.183  1.00  0.00     0.002 A 
HETATM   42  C   UNL     1      44.837 -10.863  11.151  1.00  0.00     0.002 A 
ENDBRANCH  32  33
ENDBRANCH  30  32
ENDBRANCH  27  30
ENDBRANCH   3  27
TORSDOF 7
ENDMDL
MODEL 8
REMARK VINA RESULT:      -8.7      3.618      8.523
REMARK  7 active torsions:
REMARK  status: ('A' for Active; 'I' for Inactive)
REMARK    1  A    between atoms: C_3  and  S_4 
REMARK    2  A    between atoms: S_4  and  N_5 
REMARK    3  A    between atoms: N_5  and  C_6 
REMARK    4  A    between atoms: C_6  and  C_7 
REMARK    5  A    between atoms: C_20  and  C_21 
REMARK    6  A    between atoms: C_25  and  N_26 
REMARK    7  A    between atoms: N_26  and  C_27 
ROOT
HETATM    1  C   UNL     1      38.256 -10.976   0.166  1.00  0.00     0.050 C 
HETATM    2  C   UNL     1      38.955 -12.189   0.712  1.00  0.00    -0.039 A 
HETATM    3  C   UNL     1      40.345 -12.280   0.897  1.00  0.00     0.081 A 
HETATM    4  C   UNL     1      40.920 -13.471   1.378  1.00  0.00     0.039 A 
HETATM    5  C   UNL     1      40.130 -14.572   1.743  1.00  0.00    -0.003 A 
HETATM    6  C   UNL     1      38.747 -14.480   1.546  1.00  0.00     0.014 A 
HETATM    7  C   UNL     1      38.172 -13.313   1.033  1.00  0.00     0.009 A 
ENDROOT
BRANCH   5   8
HETATM    8  C   UNL     1      40.745 -15.791   2.289  1.00  0.00     0.098 A 
HETATM    9  N   UNL     1      41.197 -16.633   1.339  1.00  0.00    -0.172 NA
HETATM   10  N   UNL     1      41.851 -17.717   1.709  1.00  0.00    -0.262 N 
HETATM   11  H   UNL     1      42.190 -18.330   0.975  1.00  0.00     0.191 HD
HETATM   12  C   UNL     1      42.098 -18.062   2.984  1.00  0.00     0.129 A 
HETATM   13  C   UNL     1      41.637 -17.197   4.014  1.00  0.00     0.022 A 
HETATM   14  C   UNL     1      40.916 -16.040   3.660  1.00  0.00     0.009 A 
HETATM   15  C   UNL     1      41.886 -17.434   5.390  1.00  0.00     0.016 A 
HETATM   16  C   UNL     1      40.414 -15.200   4.688  1.00  0.00     0.015 A 
HETATM   17  C   UNL     1      40.661 -15.467   6.033  1.00  0.00     0.001 A 
HETATM   18  C   UNL     1      41.406 -16.580   6.384  1.00  0.00     0.001 A 
BRANCH  12  19
HETATM   19  N   UNL     1      42.838 -19.204   3.285  1.00  0.00    -0.370 N 
HETATM   20  H   UNL     1      42.415 -20.039   2.873  1.00  0.00     0.161 HD
BRANCH  19  21
HETATM   21  C   UNL     1      44.304 -19.275   3.327  1.00  0.00     0.083 C 
HETATM   22  C   UNL     1      44.810 -19.291   4.778  1.00  0.00     0.025 C 
HETATM   23  C   UNL     1      44.443 -20.576   5.519  1.00  0.00     0.002 C 
HETATM   24  C   UNL     1      44.921 -21.814   4.767  1.00  0.00     0.000 C 
HETATM   25  C   UNL     1      44.417 -21.829   3.328  1.00  0.00     0.002 C 
HETATM   26  C   UNL     1      44.776 -20.539   2.588  1.00  0.00     0.025 C 
ENDBRANCH  19  21
ENDBRANCH  12  19
ENDBRANCH   5   8
BRANCH   3  27
HETATM   27  S   UNL     1      41.473 -10.930   0.540  1.00  0.00     0.242 S 
HETATM   28  O   UNL     1      41.024  -9.778   1.292  1.00  0.00    -0.206 OA
HETATM   29  O   UNL     1      42.827 -11.417   0.639  1.00  0.00    -0.206 OA
BRANCH  27  30
HETATM   30  N   UNL     1      41.146 -10.650  -1.099  1.00  0.00    -0.208 NA
HETATM   31  H   UNL     1      41.291  -9.664  -1.333  1.00  0.00     0.140 HD
BRANCH  30  32
HETATM   32  C   UNL     1      41.850 -11.551  -2.028  1.00  0.00     0.182 C 
BRANCH  32  33
HETATM   33  C   UNL     1      40.898 -12.597  -2.488  1.00  0.00     0.119 A 
HETATM   34  N   UNL     1      39.611 -12.436  -2.734  1.00  0.00    -0.232 NA
HETATM   35  C   UNL     1      39.168 -13.664  -3.172  1.00  0.00     0.085 A 
HETATM   36  C   UNL     1      40.199 -14.597  -3.159  1.00  0.00     0.062 A 
HETATM   37  C   UNL     1      37.892 -14.060  -3.601  1.00  0.00     0.034 A 
HETATM   38  N   UNL     1      41.287 -13.896  -2.709  1.00  0.00    -0.342 N 
HETATM   39  C   UNL     1      40.035 -15.927  -3.548  1.00  0.00     0.032 A 
HETATM   40  H   UNL     1      42.216 -14.267  -2.565  1.00  0.00     0.167 HD
HETATM   41  C   UNL     1      38.757 -16.305  -3.976  1.00  0.00     0.002 A 
HETATM   42  C   UNL     1      37.702 -15.388  -4.004  1.00  0.00     0.002 A 
ENDBRANCH  32  33
ENDBRANCH  30  32
ENDBRANCH  27  30
ENDBRANCH   3  27
TORSDOF 7
ENDMDL
MODEL 9
REMARK VINA RESULT:      -8.5      3.745      7.408
REMARK  7 active torsions:
REMARK  status: ('A' for Active; 'I' for Inactive)
REMARK    1  A    between atoms: C_3  and  S_4 
REMARK    2  A    between atoms: S_4  and  N_5 
REMARK    3  A    between atoms: N_5  and  C_6 
REMARK    4  A    between atoms: C_6  and  C_7 
REMARK    5  A    between atoms: C_20  and  C_21 
REMARK    6  A    between atoms: C_25  and  N_26 
REMARK    7  A    between atoms: N_26  and  C_27 
ROOT
HETATM    1  C   UNL     1      41.078 -13.494  -3.684  1.00  0.00     0.050 C 
HETATM    2  C   UNL     1      41.229 -14.044  -2.293  1.00  0.00    -0.039 A 
HETATM    3  C   UNL     1      41.733 -13.308  -1.206  1.00  0.00     0.081 A 
HETATM    4  C   UNL     1      41.877 -13.915   0.055  1.00  0.00     0.039 A 
HETATM    5  C   UNL     1      41.470 -15.239   0.283  1.00  0.00    -0.003 A 
HETATM    6  C   UNL     1      40.980 -15.970  -0.805  1.00  0.00     0.014 A 
HETATM    7  C   UNL     1      40.870 -15.385  -2.070  1.00  0.00     0.009 A 
ENDROOT
BRANCH   5   8
HETATM    8  C   UNL     1      41.585 -15.841   1.620  1.00  0.00     0.098 A 
HETATM    9  N   UNL     1      40.751 -15.295   2.526  1.00  0.00    -0.172 NA
HETATM   10  N   UNL     1      40.698 -15.815   3.737  1.00  0.00    -0.262 N 
HETATM   11  H   UNL     1      40.054 -15.394   4.397  1.00  0.00     0.191 HD
HETATM   12  C   UNL     1      41.434 -16.861   4.151  1.00  0.00     0.129 A 
HETATM   13  C   UNL     1      42.326 -17.463   3.222  1.00  0.00     0.022 A 
HETATM   14  C   UNL     1      42.426 -16.923   1.925  1.00  0.00     0.009 A 
HETATM   15  C   UNL     1      43.112 -18.602   3.534  1.00  0.00     0.016 A 
HETATM   16  C   UNL     1      43.350 -17.493   1.012  1.00  0.00     0.015 A 
HETATM   17  C   UNL     1      44.121 -18.602   1.351  1.00  0.00     0.001 A 
HETATM   18  C   UNL     1      43.995 -19.164   2.611  1.00  0.00     0.001 A 
BRANCH  12  19
HETATM   19  N   UNL     1      41.282 -17.377   5.437  1.00  0.00    -0.370 N 
HETATM   20  H   UNL     1      41.498 -18.376   5.464  1.00  0.00     0.161 HD
BRANCH  19  21
HETATM   21  C   UNL     1      41.656 -16.684   6.676  1.00  0.00     0.083 C 
HETATM   22  C   UNL     1      42.512 -17.591   7.574  1.00  0.00     0.025 C 
HETATM   23  C   UNL     1      43.892 -17.876   6.982  1.00  0.00     0.002 C 
HETATM   24  C   UNL     1      44.637 -16.588   6.647  1.00  0.00     0.000 C 
HETATM   25  C   UNL     1      43.813 -15.679   5.743  1.00  0.00     0.002 C 
HETATM   26  C   UNL     1      42.428 -15.399   6.330  1.00  0.00     0.025 C 
ENDBRANCH  19  21
ENDBRANCH  12  19
ENDBRANCH   5   8
BRANCH   3  27
HETATM   27  S   UNL     1      42.229 -11.587  -1.331  1.00  0.00     0.242 S 
HETATM   28  O   UNL     1      43.228 -11.348  -0.312  1.00  0.00    -0.206 OA
HETATM   29  O   UNL     1      42.472 -11.273  -2.718  1.00  0.00    -0.206 OA
BRANCH  27  30
HETATM   30  N   UNL     1      40.803 -10.797  -0.869  1.00  0.00    -0.208 NA
HETATM   31  H   UNL     1      40.075 -11.476  -0.630  1.00  0.00     0.140 HD
BRANCH  30  32
HETATM   32  C   UNL     1      40.978  -9.778   0.180  1.00  0.00     0.182 C 
BRANCH  32  33
HETATM   33  C   UNL     1      40.629 -10.384   1.494  1.00  0.00     0.119 A 
HETATM   34  N   UNL     1      39.440 -10.385   2.067  1.00  0.00    -0.232 NA
HETATM   35  C   UNL     1      39.601 -11.096   3.236  1.00  0.00     0.085 A 
HETATM   36  C   UNL     1      40.922 -11.505   3.390  1.00  0.00     0.062 A 
HETATM   37  C   UNL     1      38.661 -11.435   4.220  1.00  0.00     0.034 A 
HETATM   38  N   UNL     1      41.557 -11.030   2.273  1.00  0.00    -0.342 N 
HETATM   39  C   UNL     1      41.375 -12.239   4.487  1.00  0.00     0.032 A 
HETATM   40  H   UNL     1      42.539 -11.135   2.057  1.00  0.00     0.167 HD
HETATM   41  C   UNL     1      40.422 -12.571   5.458  1.00  0.00     0.002 A 
HETATM   42  C   UNL     1      39.087 -12.178   5.328  1.00  0.00     0.002 A 
ENDBRANCH  32  33
ENDBRANCH  30  32
ENDBRANCH  27  30
ENDBRANCH   3  27
TORSDOF 7
ENDMDL
MODEL 10
REMARK VINA RESULT:      -8.4      2.586      3.655
REMARK  7 active torsions:
REMARK  status: ('A' for Active; 'I' for Inactive)
REMARK    1  A    between atoms: C_3  and  S_4 
REMARK    2  A    between atoms: S_4  and  N_5 
REMARK    3  A    between atoms: N_5  and  C_6 
REMARK    4  A    between atoms: C_6  and  C_7 
REMARK    5  A    between atoms: C_20  and  C_21 
REMARK    6  A    between atoms: C_25  and  N_26 
REMARK    7  A    between atoms: N_26  and  C_27 
ROOT
HETATM    1  C   UNL     1      44.324 -20.057   3.246  1.00  0.00     0.050 C 
HETATM    2  C   UNL     1      43.835 -18.700   2.824  1.00  0.00    -0.039 A 
HETATM    3  C   UNL     1      43.418 -17.700   3.720  1.00  0.00     0.081 A 
HETATM    4  C   UNL     1      42.937 -16.470   3.234  1.00  0.00     0.039 A 
HETATM    5  C   UNL     1      42.916 -16.180   1.861  1.00  0.00    -0.003 A 
HETATM    6  C   UNL     1      43.321 -17.183   0.973  1.00  0.00     0.014 A 
HETATM    7  C   UNL     1      43.765 -18.423   1.447  1.00  0.00     0.009 A 
ENDROOT
BRANCH   5   8
HETATM    8  C   UNL     1      42.454 -14.871   1.376  1.00  0.00     0.098 A 
HETATM    9  N   UNL     1      42.807 -13.848   2.178  1.00  0.00    -0.172 NA
HETATM   10  N   UNL     1      42.528 -12.616   1.799  1.00  0.00    -0.262 N 
HETATM   11  H   UNL     1      42.815 -11.863   2.414  1.00  0.00     0.191 HD
HETATM   12  C   UNL     1      41.896 -12.294   0.657  1.00  0.00     0.129 A 
HETATM   13  C   UNL     1      41.508 -13.347  -0.215  1.00  0.00     0.022 A 
HETATM   14  C   UNL     1      41.769 -14.679   0.166  1.00  0.00     0.009 A 
HETATM   15  C   UNL     1      40.882 -13.122  -1.467  1.00  0.00     0.016 A 
HETATM   16  C   UNL     1      41.340 -15.733  -0.681  1.00  0.00     0.015 A 
HETATM   17  C   UNL     1      40.713 -15.482  -1.899  1.00  0.00     0.001 A 
HETATM   18  C   UNL     1      40.492 -14.173  -2.298  1.00  0.00     0.001 A 
BRANCH  12  19
HETATM   19  N   UNL     1      41.682 -10.961   0.311  1.00  0.00    -0.370 N 
HETATM   20  H   UNL     1      40.867 -10.578   0.797  1.00  0.00     0.161 HD
BRANCH  19  21
HETATM   21  C   UNL     1      42.737  -9.962   0.101  1.00  0.00     0.083 C 
HETATM   22  C   UNL     1      43.565 -10.295  -1.150  1.00  0.00     0.025 C 
HETATM   23  C   UNL     1      42.769 -10.142  -2.445  1.00  0.00     0.002 C 
HETATM   24  C   UNL     1      42.148  -8.754  -2.563  1.00  0.00     0.000 C 
HETATM   25  C   UNL     1      41.306  -8.408  -1.340  1.00  0.00     0.002 C 
HETATM   26  C   UNL     1      42.100  -8.568  -0.041  1.00  0.00     0.025 C 
ENDBRANCH  19  21
ENDBRANCH  12  19
ENDBRANCH   5   8
BRANCH   3  27
HETATM   27  S   UNL     1      43.454 -17.902   5.503  1.00  0.00     0.242 S 
HETATM   28  O   UNL     1      42.433 -18.868   5.851  1.00  0.00    -0.206 OA
HETATM   29  O   UNL     1      44.823 -18.065   5.925  1.00  0.00    -0.206 OA
BRANCH  27  30
HETATM   30  N   UNL     1      42.934 -16.375   6.020  1.00  0.00    -0.208 NA
HETATM   31  H   UNL     1      43.153 -15.662   5.319  1.00  0.00     0.140 HD
BRANCH  30  32
HETATM   32  C   UNL     1      41.527 -16.318   6.449  1.00  0.00     0.182 C 
BRANCH  32  33
HETATM   33  C   UNL     1      40.876 -15.154   5.789  1.00  0.00     0.119 A 
HETATM   34  N   UNL     1      40.568 -15.046   4.511  1.00  0.00    -0.232 NA
HETATM   35  C   UNL     1      39.949 -13.822   4.388  1.00  0.00     0.085 A 
HETATM   36  C   UNL     1      39.911 -13.160   5.611  1.00  0.00     0.062 A 
HETATM   37  C   UNL     1      39.391 -13.205   3.259  1.00  0.00     0.034 A 
HETATM   38  N   UNL     1      40.517 -14.024   6.484  1.00  0.00    -0.342 N 
HETATM   39  C   UNL     1      39.346 -11.896   5.782  1.00  0.00     0.032 A 
HETATM   40  H   UNL     1      40.673 -13.862   7.470  1.00  0.00     0.167 HD
HETATM   41  C   UNL     1      38.791 -11.296   4.645  1.00  0.00     0.002 A 
HETATM   42  C   UNL     1      38.810 -11.938   3.404  1.00  0.00     0.002 A 
ENDBRANCH  32  33
ENDBRANCH  30  32
ENDBRANCH  27  30
ENDBRANCH   3  27
TORSDOF 7
ENDMDL
