MODEL 1
REMARK VINA RESULT:      -9.5      0.000      0.000
REMARK  7 active torsions:
REMARK  status: ('A' for Active; 'I' for Inactive)
REMARK    1  A    between atoms: N_8  and  C_9 
REMARK    2  A    between atoms: C_9  and  C_10 
REMARK    3  A    between atoms: C_13  and  C_14 
REMARK       I    between atoms: C_14  and  N_15 
REMARK    4  A    between atoms: N_15  and  N_16 
REMARK    5  A    between atoms: C_17  and  C_18 
REMARK    6  A    between atoms: C_19  and  O_20 
REMARK    7  A    between atoms: C_22  and  O_23 
ROOT
HETATM    1  C   UNL     1      40.810 -11.546   6.847  1.00  0.00    -0.040 A 
HETATM    2  C   UNL     1      42.026 -11.941   6.272  1.00  0.00     0.010 A 
HETATM    3  C   UNL     1      42.126 -13.149   5.578  1.00  0.00     0.017 A 
HETATM    4  C   UNL     1      41.011 -13.986   5.446  1.00  0.00     0.033 A 
HETATM    5  C   UNL     1      39.788 -13.587   5.998  1.00  0.00     0.017 A 
HETATM    6  C   UNL     1      39.691 -12.379   6.697  1.00  0.00     0.010 A 
ENDROOT
BRANCH   4   7
HETATM    7  C   UNL     1      41.169 -15.253   4.673  1.00  0.00     0.271 C 
HETATM    8  N   UNL     1      42.132 -16.139   5.138  1.00  0.00    -0.243 N 
HETATM    9  H   UNL     1      42.759 -15.891   5.892  1.00  0.00     0.192 HD
HETATM   10  O   UNL     1      40.476 -15.445   3.677  1.00  0.00    -0.266 OA
BRANCH   8  11
HETATM   11  N   UNL     1      42.292 -17.331   4.500  1.00  0.00    -0.183 NA
HETATM   12  C   UNL     1      43.508 -17.753   4.368  1.00  0.00     0.153 C 
BRANCH  12  13
HETATM   13  C   UNL     1      43.786 -19.042   3.703  1.00  0.00     0.016 A 
HETATM   14  C   UNL     1      43.249 -19.362   2.447  1.00  0.00     0.080 A 
HETATM   15  C   UNL     1      43.528 -20.591   1.855  1.00  0.00     0.074 A 
HETATM   16  C   UNL     1      44.340 -21.501   2.524  1.00  0.00     0.068 A 
HETATM   17  C   UNL     1      44.879 -21.197   3.771  1.00  0.00     0.037 A 
HETATM   18  C   UNL     1      44.603 -19.964   4.366  1.00  0.00     0.018 A 
BRANCH  14  19
HETATM   19  O   UNL     1      42.441 -18.517   1.735  1.00  0.00    -0.360 OA
HETATM   20  H   UNL     1      41.541 -18.528   2.135  1.00  0.00     0.217 HD
ENDBRANCH  14  19
BRANCH  16  21
HETATM   21  O   UNL     1      44.636 -22.718   1.986  1.00  0.00    -0.361 OA
HETATM   22  H   UNL     1      44.007 -22.898   1.267  1.00  0.00     0.217 HD
ENDBRANCH  16  21
ENDBRANCH  12  13
ENDBRANCH   8  11
ENDBRANCH   4   7
BRANCH   1  23
HETATM   23  C   UNL     1      40.704 -10.224   7.574  1.00  0.00     0.171 C 
BRANCH  23  24
HETATM   24  N   UNL     1      40.933 -10.351   8.994  1.00  0.00    -0.309 N 
HETATM   25  C   UNL     1      42.171 -10.528   9.620  1.00  0.00     0.050 A 
HETATM   26  C   UNL     1      41.925 -10.642  10.969  1.00  0.00     0.017 A 
HETATM   27  C   UNL     1      43.466 -10.586   9.129  1.00  0.00     0.031 A 
HETATM   28  C   UNL     1      40.565 -10.537  11.195  1.00  0.00     0.045 A 
HETATM   29  C   UNL     1      42.878 -10.823  11.927  1.00  0.00    -0.023 A 
HETATM   30  C   UNL     1      40.078 -10.622  12.497  1.00  0.00     0.018 A 
HETATM   31  C   UNL     1      39.874 -10.346   9.935  1.00  0.00     0.259 A 
HETATM   32  C   UNL     1      41.029 -10.811  13.520  1.00  0.00     0.002 A 
HETATM   33  C   UNL     1      42.411 -10.910  13.251  1.00  0.00     0.012 A 
HETATM   34  O   UNL     1      38.686 -10.198   9.678  1.00  0.00    -0.267 OA
HETATM   35  C   UNL     1      44.206 -10.894  11.466  1.00  0.00     0.012 A 
HETATM   36  C   UNL     1      44.485 -10.776  10.087  1.00  0.00     0.003 A 
ENDBRANCH  23  24
ENDBRANCH   1  23
TORSDOF 7
ENDMDL
MODEL 2
REMARK VINA RESULT:      -9.2      2.324     10.767
REMARK  7 active torsions:
REMARK  status: ('A' for Active; 'I' for Inactive)
REMARK    1  A    between atoms: N_8  and  C_9 
REMARK    2  A    between atoms: C_9  and  C_10 
REMARK    3  A    between atoms: C_13  and  C_14 
REMARK       I    between atoms: C_14  and  N_15 
REMARK    4  A    between atoms: N_15  and  N_16 
REMARK    5  A    between atoms: C_17  and  C_18 
REMARK    6  A    between atoms: C_19  and  O_20 
REMARK    7  A    between atoms: C_22  and  O_23 
ROOT
HETATM    1  C   UNL     1      40.366 -13.654   4.223  1.00  0.00    -0.040 A 
HETATM    2  C   UNL     1      39.494 -13.544   5.316  1.00  0.00     0.010 A 
HETATM    3  C   UNL     1      39.792 -12.689   6.380  1.00  0.00     0.017 A 
HETATM    4  C   UNL     1      40.967 -11.928   6.373  1.00  0.00     0.033 A 
HETATM    5  C   UNL     1      41.830 -12.015   5.273  1.00  0.00     0.017 A 
HETATM    6  C   UNL     1      41.533 -12.876   4.211  1.00  0.00     0.010 A 
ENDROOT
BRANCH   4   7
HETATM    7  C   UNL     1      41.222 -11.014   7.524  1.00  0.00     0.271 C 
HETATM    8  N   UNL     1      40.476 -11.250   8.672  1.00  0.00    -0.243 N 
HETATM    9  H   UNL     1      39.731 -11.933   8.686  1.00  0.00     0.192 HD
HETATM   10  O   UNL     1      42.042 -10.106   7.407  1.00  0.00    -0.266 OA
BRANCH   8  11
HETATM   11  N   UNL     1      40.696 -10.476   9.770  1.00  0.00    -0.183 NA
HETATM   12  C   UNL     1      41.286 -11.050  10.769  1.00  0.00     0.153 C 
BRANCH  12  13
HETATM   13  C   UNL     1      41.582 -10.291  12.001  1.00  0.00     0.016 A 
HETATM   14  C   UNL     1      40.576  -9.654  12.742  1.00  0.00     0.080 A 
HETATM   15  C   UNL     1      40.895  -8.941  13.895  1.00  0.00     0.074 A 
HETATM   16  C   UNL     1      42.224  -8.863  14.301  1.00  0.00     0.068 A 
HETATM   17  C   UNL     1      43.232  -9.491  13.575  1.00  0.00     0.037 A 
HETATM   18  C   UNL     1      42.914 -10.209  12.420  1.00  0.00     0.018 A 
BRANCH  14  19
HETATM   19  O   UNL     1      39.251  -9.685  12.398  1.00  0.00    -0.360 OA
HETATM   20  H   UNL     1      39.165 -10.104  11.510  1.00  0.00     0.217 HD
ENDBRANCH  14  19
BRANCH  16  21
HETATM   21  O   UNL     1      42.585  -8.173  15.420  1.00  0.00    -0.361 OA
HETATM   22  H   UNL     1      42.261  -7.260  15.336  1.00  0.00     0.217 HD
ENDBRANCH  16  21
ENDBRANCH  12  13
ENDBRANCH   8  11
ENDBRANCH   4   7
BRANCH   1  23
HETATM   23  C   UNL     1      40.023 -14.561   3.063  1.00  0.00     0.171 C 
BRANCH  23  24
HETATM   24  N   UNL     1      40.999 -15.607   2.869  1.00  0.00    -0.309 N 
HETATM   25  C   UNL     1      41.445 -16.512   3.837  1.00  0.00     0.050 A 
HETATM   26  C   UNL     1      42.399 -17.303   3.237  1.00  0.00     0.017 A 
HETATM   27  C   UNL     1      41.093 -16.711   5.163  1.00  0.00     0.031 A 
HETATM   28  C   UNL     1      42.552 -16.911   1.920  1.00  0.00     0.045 A 
HETATM   29  C   UNL     1      43.076 -18.315   3.849  1.00  0.00    -0.023 A 
HETATM   30  C   UNL     1      43.470 -17.576   1.110  1.00  0.00     0.018 A 
HETATM   31  C   UNL     1      41.658 -15.807   1.632  1.00  0.00     0.259 A 
HETATM   32  C   UNL     1      44.195 -18.629   1.703  1.00  0.00     0.002 A 
HETATM   33  C   UNL     1      44.009 -19.002   3.051  1.00  0.00     0.012 A 
HETATM   34  O   UNL     1      41.464 -15.171   0.603  1.00  0.00    -0.267 OA
HETATM   35  C   UNL     1      42.751 -18.543   5.200  1.00  0.00     0.012 A 
HETATM   36  C   UNL     1      41.773 -17.748   5.837  1.00  0.00     0.003 A 
ENDBRANCH  23  24
ENDBRANCH   1  23
TORSDOF 7
ENDMDL
MODEL 3
REMARK VINA RESULT:      -9.0      6.325     10.124
REMARK  7 active torsions:
REMARK  status: ('A' for Active; 'I' for Inactive)
REMARK    1  A    between atoms: N_8  and  C_9 
REMARK    2  A    between atoms: C_9  and  C_10 
REMARK    3  A    between atoms: C_13  and  C_14 
REMARK       I    between atoms: C_14  and  N_15 
REMARK    4  A    between atoms: N_15  and  N_16 
REMARK    5  A    between atoms: C_17  and  C_18 
REMARK    6  A    between atoms: C_19  and  O_20 
REMARK    7  A    between atoms: C_22  and  O_23 
ROOT
HETATM    1  C   UNL     1      41.835 -14.425   3.188  1.00  0.00    -0.040 A 
HETATM    2  C   UNL     1      40.611 -15.048   3.470  1.00  0.00     0.010 A 
HETATM    3  C   UNL     1      39.540 -14.947   2.579  1.00  0.00     0.017 A 
HETATM    4  C   UNL     1      39.672 -14.222   1.389  1.00  0.00     0.033 A 
HETATM    5  C   UNL     1      40.899 -13.618   1.090  1.00  0.00     0.017 A 
HETATM    6  C   UNL     1      41.969 -13.714   1.986  1.00  0.00     0.010 A 
ENDROOT
BRANCH   4   7
HETATM    7  C   UNL     1      38.503 -14.169   0.462  1.00  0.00     0.271 C 
HETATM    8  N   UNL     1      38.797 -14.079  -0.892  1.00  0.00    -0.243 N 
HETATM    9  H   UNL     1      39.745 -13.950  -1.220  1.00  0.00     0.192 HD
HETATM   10  O   UNL     1      37.364 -14.187   0.923  1.00  0.00    -0.266 OA
BRANCH   8  11
HETATM   11  N   UNL     1      37.772 -14.071  -1.788  1.00  0.00    -0.183 NA
HETATM   12  C   UNL     1      37.791 -13.127  -2.674  1.00  0.00     0.153 C 
BRANCH  12  13
HETATM   13  C   UNL     1      36.731 -13.040  -3.698  1.00  0.00     0.016 A 
HETATM   14  C   UNL     1      36.570 -14.021  -4.687  1.00  0.00     0.080 A 
HETATM   15  C   UNL     1      35.563 -13.900  -5.642  1.00  0.00     0.074 A 
HETATM   16  C   UNL     1      34.722 -12.791  -5.607  1.00  0.00     0.068 A 
HETATM   17  C   UNL     1      34.871 -11.810  -4.632  1.00  0.00     0.037 A 
HETATM   18  C   UNL     1      35.879 -11.931  -3.672  1.00  0.00     0.018 A 
BRANCH  14  19
HETATM   19  O   UNL     1      37.362 -15.133  -4.782  1.00  0.00    -0.360 OA
HETATM   20  H   UNL     1      38.190 -14.892  -5.259  1.00  0.00     0.217 HD
ENDBRANCH  14  19
BRANCH  16  21
HETATM   21  O   UNL     1      33.726 -12.628  -6.523  1.00  0.00    -0.361 OA
HETATM   22  H   UNL     1      32.945 -13.121  -6.221  1.00  0.00     0.217 HD
ENDBRANCH  16  21
ENDBRANCH  12  13
ENDBRANCH   8  11
ENDBRANCH   4   7
BRANCH   1  23
HETATM   23  C   UNL     1      42.998 -14.561   4.145  1.00  0.00     0.171 C 
BRANCH  23  24
HETATM   24  N   UNL     1      43.346 -15.938   4.405  1.00  0.00    -0.309 N 
HETATM   25  C   UNL     1      43.584 -16.926   3.445  1.00  0.00     0.050 A 
HETATM   26  C   UNL     1      43.841 -18.094   4.127  1.00  0.00     0.017 A 
HETATM   27  C   UNL     1      43.607 -16.896   2.059  1.00  0.00     0.031 A 
HETATM   28  C   UNL     1      43.770 -17.852   5.486  1.00  0.00     0.045 A 
HETATM   29  C   UNL     1      44.126 -19.294   3.547  1.00  0.00    -0.023 A 
HETATM   30  C   UNL     1      43.998 -18.896   6.381  1.00  0.00     0.018 A 
HETATM   31  C   UNL     1      43.450 -16.457   5.718  1.00  0.00     0.259 A 
HETATM   32  C   UNL     1      44.294 -20.156   5.824  1.00  0.00     0.002 A 
HETATM   33  C   UNL     1      44.361 -20.364   4.430  1.00  0.00     0.012 A 
HETATM   34  O   UNL     1      43.304 -15.822   6.756  1.00  0.00    -0.267 OA
HETATM   35  C   UNL     1      44.151 -19.305   2.140  1.00  0.00     0.012 A 
HETATM   36  C   UNL     1      43.896 -18.119   1.417  1.00  0.00     0.003 A 
ENDBRANCH  23  24
ENDBRANCH   1  23
TORSDOF 7
ENDMDL
MODEL 4
REMARK VINA RESULT:      -9.0      1.060      2.221
REMARK  7 active torsions:
REMARK  status: ('A' for Active; 'I' for Inactive)
REMARK    1  A    between atoms: N_8  and  C_9 
REMARK    2  A    between atoms: C_9  and  C_10 
REMARK    3  A    between atoms: C_13  and  C_14 
REMARK       I    between atoms: C_14  and  N_15 
REMARK    4  A    between atoms: N_15  and  N_16 
REMARK    5  A    between atoms: C_17  and  C_18 
REMARK    6  A    between atoms: C_19  and  O_20 
REMARK    7  A    between atoms: C_22  and  O_23 
ROOT
HETATM    1  C   UNL     1      40.764 -11.331   6.629  1.00  0.00    -0.040 A 
HETATM    2  C   UNL     1      41.843 -11.594   5.773  1.00  0.00     0.010 A 
HETATM    3  C   UNL     1      41.946 -12.822   5.114  1.00  0.00     0.017 A 
HETATM    4  C   UNL     1      40.973 -13.810   5.298  1.00  0.00     0.033 A 
HETATM    5  C   UNL     1      39.881 -13.545   6.133  1.00  0.00     0.017 A 
HETATM    6  C   UNL     1      39.782 -12.318   6.797  1.00  0.00     0.010 A 
ENDROOT
BRANCH   4   7
HETATM    7  C   UNL     1      41.121 -15.093   4.550  1.00  0.00     0.271 C 
HETATM    8  N   UNL     1      42.133 -15.941   4.980  1.00  0.00    -0.243 N 
HETATM    9  H   UNL     1      42.795 -15.656   5.689  1.00  0.00     0.192 HD
HETATM   10  O   UNL     1      40.376 -15.330   3.602  1.00  0.00    -0.266 OA
BRANCH   8  11
HETATM   11  N   UNL     1      42.288 -17.145   4.364  1.00  0.00    -0.183 NA
HETATM   12  C   UNL     1      43.493 -17.617   4.322  1.00  0.00     0.153 C 
BRANCH  12  13
HETATM   13  C   UNL     1      43.764 -18.923   3.688  1.00  0.00     0.016 A 
HETATM   14  C   UNL     1      43.236 -19.265   2.435  1.00  0.00     0.080 A 
HETATM   15  C   UNL     1      43.507 -20.510   1.872  1.00  0.00     0.074 A 
HETATM   16  C   UNL     1      44.304 -21.413   2.570  1.00  0.00     0.068 A 
HETATM   17  C   UNL     1      44.834 -21.087   3.815  1.00  0.00     0.037 A 
HETATM   18  C   UNL     1      44.566 -19.837   4.379  1.00  0.00     0.018 A 
BRANCH  14  19
HETATM   19  O   UNL     1      42.443 -18.429   1.697  1.00  0.00    -0.360 OA
HETATM   20  H   UNL     1      42.543 -18.657   0.743  1.00  0.00     0.217 HD
ENDBRANCH  14  19
BRANCH  16  21
HETATM   21  O   UNL     1      44.593 -22.644   2.062  1.00  0.00    -0.361 OA
HETATM   22  H   UNL     1      43.964 -23.286   2.432  1.00  0.00     0.217 HD
ENDBRANCH  16  21
ENDBRANCH  12  13
ENDBRANCH   8  11
ENDBRANCH   4   7
BRANCH   1  23
HETATM   23  C   UNL     1      40.646  -9.990   7.318  1.00  0.00     0.171 C 
BRANCH  23  24
HETATM   24  N   UNL     1      40.897 -10.071   8.738  1.00  0.00    -0.309 N 
HETATM   25  C   UNL     1      39.972  -9.825   9.757  1.00  0.00     0.050 A 
HETATM   26  C   UNL     1      40.641  -9.977  10.950  1.00  0.00     0.017 A 
HETATM   27  C   UNL     1      38.626  -9.498   9.737  1.00  0.00     0.031 A 
HETATM   28  C   UNL     1      41.957 -10.314  10.695  1.00  0.00     0.045 A 
HETATM   29  C   UNL     1      40.085  -9.824  12.185  1.00  0.00    -0.023 A 
HETATM   30  C   UNL     1      42.831 -10.521  11.760  1.00  0.00     0.018 A 
HETATM   31  C   UNL     1      42.173 -10.389   9.263  1.00  0.00     0.259 A 
HETATM   32  C   UNL     1      42.299 -10.372  13.056  1.00  0.00     0.002 A 
HETATM   33  C   UNL     1      40.948 -10.029  13.278  1.00  0.00     0.012 A 
HETATM   34  O   UNL     1      43.172 -10.662   8.609  1.00  0.00    -0.267 OA
HETATM   35  C   UNL     1      38.720  -9.484  12.206  1.00  0.00     0.012 A 
HETATM   36  C   UNL     1      38.010  -9.327  10.995  1.00  0.00     0.003 A 
ENDBRANCH  23  24
ENDBRANCH   1  23
TORSDOF 7
ENDMDL
MODEL 5
REMARK VINA RESULT:      -9.0      6.694     10.837
REMARK  7 active torsions:
REMARK  status: ('A' for Active; 'I' for Inactive)
REMARK    1  A    between atoms: N_8  and  C_9 
REMARK    2  A    between atoms: C_9  and  C_10 
REMARK    3  A    between atoms: C_13  and  C_14 
REMARK       I    between atoms: C_14  and  N_15 
REMARK    4  A    between atoms: N_15  and  N_16 
REMARK    5  A    between atoms: C_17  and  C_18 
REMARK    6  A    between atoms: C_19  and  O_20 
REMARK    7  A    between atoms: C_22  and  O_23 
ROOT
HETATM    1  C   UNL     1      42.395 -16.047   2.973  1.00  0.00    -0.040 A 
HETATM    2  C   UNL     1      42.466 -14.835   2.270  1.00  0.00     0.010 A 
HETATM    3  C   UNL     1      41.362 -14.361   1.557  1.00  0.00     0.017 A 
HETATM    4  C   UNL     1      40.167 -15.089   1.531  1.00  0.00     0.033 A 
HETATM    5  C   UNL     1      40.082 -16.288   2.249  1.00  0.00     0.017 A 
HETATM    6  C   UNL     1      41.190 -16.765   2.958  1.00  0.00     0.010 A 
ENDROOT
BRANCH   4   7
HETATM    7  C   UNL     1      39.013 -14.522   0.773  1.00  0.00     0.271 C 
HETATM    8  N   UNL     1      39.177 -14.411  -0.601  1.00  0.00    -0.243 N 
HETATM    9  H   UNL     1      40.065 -14.603  -1.045  1.00  0.00     0.192 HD
HETATM   10  O   UNL     1      38.004 -14.171   1.379  1.00  0.00    -0.266 OA
BRANCH   8  11
HETATM   11  N   UNL     1      38.143 -13.941  -1.352  1.00  0.00    -0.183 NA
HETATM   12  C   UNL     1      38.216 -14.152  -2.626  1.00  0.00     0.153 C 
BRANCH  12  13
HETATM   13  C   UNL     1      37.137 -13.694  -3.524  1.00  0.00     0.016 A 
HETATM   14  C   UNL     1      36.703 -12.360  -3.547  1.00  0.00     0.080 A 
HETATM   15  C   UNL     1      35.677 -11.968  -4.403  1.00  0.00     0.074 A 
HETATM   16  C   UNL     1      35.082 -12.914  -5.232  1.00  0.00     0.068 A 
HETATM   17  C   UNL     1      35.502 -14.241  -5.219  1.00  0.00     0.037 A 
HETATM   18  C   UNL     1      36.533 -14.637  -4.364  1.00  0.00     0.018 A 
BRANCH  14  19
HETATM   19  O   UNL     1      37.240 -11.380  -2.757  1.00  0.00    -0.360 OA
HETATM   20  H   UNL     1      37.061 -10.505  -3.173  1.00  0.00     0.217 HD
ENDBRANCH  14  19
BRANCH  16  21
HETATM   21  O   UNL     1      34.071 -12.578  -6.082  1.00  0.00    -0.361 OA
HETATM   22  H   UNL     1      34.369 -12.740  -6.993  1.00  0.00     0.217 HD
ENDBRANCH  16  21
ENDBRANCH  12  13
ENDBRANCH   8  11
ENDBRANCH   4   7
BRANCH   1  23
HETATM   23  C   UNL     1      43.586 -16.541   3.764  1.00  0.00     0.171 C 
BRANCH  23  24
HETATM   24  N   UNL     1      43.806 -17.959   3.609  1.00  0.00    -0.309 N 
HETATM   25  C   UNL     1      43.909 -18.898   4.640  1.00  0.00     0.050 A 
HETATM   26  C   UNL     1      44.157 -20.116   4.049  1.00  0.00     0.017 A 
HETATM   27  C   UNL     1      43.797 -18.789   6.017  1.00  0.00     0.031 A 
HETATM   28  C   UNL     1      44.207 -19.955   2.677  1.00  0.00     0.045 A 
HETATM   29  C   UNL     1      44.320 -21.293   4.717  1.00  0.00    -0.023 A 
HETATM   30  C   UNL     1      44.447 -21.062   1.865  1.00  0.00     0.018 A 
HETATM   31  C   UNL     1      43.983 -18.563   2.340  1.00  0.00     0.259 A 
HETATM   32  C   UNL     1      44.623 -22.300   2.515  1.00  0.00     0.002 A 
HETATM   33  C   UNL     1      44.562 -22.426   3.919  1.00  0.00     0.012 A 
HETATM   34  O   UNL     1      43.934 -17.990   1.259  1.00  0.00    -0.267 OA
HETATM   35  C   UNL     1      44.221 -21.221   6.120  1.00  0.00     0.012 A 
HETATM   36  C   UNL     1      43.962 -19.984   6.750  1.00  0.00     0.003 A 
ENDBRANCH  23  24
ENDBRANCH   1  23
TORSDOF 7
ENDMDL
MODEL 6
REMARK VINA RESULT:      -8.8      6.406     10.393
REMARK  7 active torsions:
REMARK  status: ('A' for Active; 'I' for Inactive)
REMARK    1  A    between atoms: N_8  and  C_9 
REMARK    2  A    between atoms: C_9  and  C_10 
REMARK    3  A    between atoms: C_13  and  C_14 
REMARK       I    between atoms: C_14  and  N_15 
REMARK    4  A    between atoms: N_15  and  N_16 
REMARK    5  A    between atoms: C_17  and  C_18 
REMARK    6  A    between atoms: C_19  and  O_20 
REMARK    7  A    between atoms: C_22  and  O_23 
ROOT
HETATM    1  C   UNL     1      42.762 -16.233   4.079  1.00  0.00    -0.040 A 
HETATM    2  C   UNL     1      41.458 -16.736   4.184  1.00  0.00     0.010 A 
HETATM    3  C   UNL     1      40.445 -16.270   3.340  1.00  0.00     0.017 A 
HETATM    4  C   UNL     1      40.718 -15.293   2.377  1.00  0.00     0.033 A 
HETATM    5  C   UNL     1      42.024 -14.803   2.252  1.00  0.00     0.017 A 
HETATM    6  C   UNL     1      43.035 -15.266   3.101  1.00  0.00     0.010 A 
ENDROOT
BRANCH   4   7
HETATM    7  C   UNL     1      39.604 -14.850   1.487  1.00  0.00     0.271 C 
HETATM    8  N   UNL     1      39.966 -14.086   0.386  1.00  0.00    -0.243 N 
HETATM    9  H   UNL     1      40.915 -13.761   0.256  1.00  0.00     0.192 HD
HETATM   10  O   UNL     1      38.448 -15.155   1.768  1.00  0.00    -0.266 OA
BRANCH   8  11
HETATM   11  N   UNL     1      38.999 -13.689  -0.486  1.00  0.00    -0.183 NA
HETATM   12  C   UNL     1      39.156 -14.046  -1.720  1.00  0.00     0.153 C 
BRANCH  12  13
HETATM   13  C   UNL     1      38.155 -13.677  -2.741  1.00  0.00     0.016 A 
HETATM   14  C   UNL     1      37.431 -14.642  -3.456  1.00  0.00     0.080 A 
HETATM   15  C   UNL     1      36.499 -14.254  -4.417  1.00  0.00     0.074 A 
HETATM   16  C   UNL     1      36.298 -12.900  -4.662  1.00  0.00     0.068 A 
HETATM   17  C   UNL     1      37.010 -11.931  -3.960  1.00  0.00     0.037 A 
HETATM   18  C   UNL     1      37.942 -12.318  -2.994  1.00  0.00     0.018 A 
BRANCH  14  19
HETATM   19  O   UNL     1      37.581 -15.990  -3.269  1.00  0.00    -0.360 OA
HETATM   20  H   UNL     1      36.854 -16.458  -3.742  1.00  0.00     0.217 HD
ENDBRANCH  14  19
BRANCH  16  21
HETATM   21  O   UNL     1      35.401 -12.473  -5.596  1.00  0.00    -0.361 OA
HETATM   22  H   UNL     1      34.575 -12.234  -5.142  1.00  0.00     0.217 HD
ENDBRANCH  16  21
ENDBRANCH  12  13
ENDBRANCH   8  11
ENDBRANCH   4   7
BRANCH   1  23
HETATM   23  C   UNL     1      43.858 -16.762   4.978  1.00  0.00     0.171 C 
BRANCH  23  24
HETATM   24  N   UNL     1      44.078 -18.179   4.810  1.00  0.00    -0.309 N 
HETATM   25  C   UNL     1      44.036 -18.886   3.605  1.00  0.00     0.050 A 
HETATM   26  C   UNL     1      44.262 -20.209   3.909  1.00  0.00     0.017 A 
HETATM   27  C   UNL     1      43.834 -18.485   2.293  1.00  0.00     0.031 A 
HETATM   28  C   UNL     1      44.444 -20.339   5.273  1.00  0.00     0.045 A 
HETATM   29  C   UNL     1      44.303 -21.226   3.001  1.00  0.00    -0.023 A 
HETATM   30  C   UNL     1      44.691 -21.598   5.815  1.00  0.00     0.018 A 
HETATM   31  C   UNL     1      44.335 -19.039   5.905  1.00  0.00     0.259 A 
HETATM   32  C   UNL     1      44.741 -22.679   4.912  1.00  0.00     0.002 A 
HETATM   33  C   UNL     1      44.552 -22.508   3.524  1.00  0.00     0.012 A 
HETATM   34  O   UNL     1      44.438 -18.699   7.078  1.00  0.00    -0.267 OA
HETATM   35  C   UNL     1      44.095 -20.859   1.658  1.00  0.00     0.012 A 
HETATM   36  C   UNL     1      43.866 -19.507   1.320  1.00  0.00     0.003 A 
ENDBRANCH  23  24
ENDBRANCH   1  23
TORSDOF 7
ENDMDL
MODEL 7
REMARK VINA RESULT:      -8.7      2.359     10.972
REMARK  7 active torsions:
REMARK  status: ('A' for Active; 'I' for Inactive)
REMARK    1  A    between atoms: N_8  and  C_9 
REMARK    2  A    between atoms: C_9  and  C_10 
REMARK    3  A    between atoms: C_13  and  C_14 
REMARK       I    between atoms: C_14  and  N_15 
REMARK    4  A    between atoms: N_15  and  N_16 
REMARK    5  A    between atoms: C_17  and  C_18 
REMARK    6  A    between atoms: C_19  and  O_20 
REMARK    7  A    between atoms: C_22  and  O_23 
ROOT
HETATM    1  C   UNL     1      40.384 -13.838   4.833  1.00  0.00    -0.040 A 
HETATM    2  C   UNL     1      39.346 -13.447   5.691  1.00  0.00     0.010 A 
HETATM    3  C   UNL     1      39.566 -12.486   6.682  1.00  0.00     0.017 A 
HETATM    4  C   UNL     1      40.827 -11.898   6.834  1.00  0.00     0.033 A 
HETATM    5  C   UNL     1      41.862 -12.268   5.966  1.00  0.00     0.017 A 
HETATM    6  C   UNL     1      41.642 -13.234   4.978  1.00  0.00     0.010 A 
ENDROOT
BRANCH   4   7
HETATM    7  C   UNL     1      40.997 -10.860   7.892  1.00  0.00     0.271 C 
HETATM    8  N   UNL     1      40.646 -11.236   9.182  1.00  0.00    -0.243 N 
HETATM    9  H   UNL     1      40.202 -12.125   9.371  1.00  0.00     0.192 HD
HETATM   10  O   UNL     1      41.411  -9.745   7.586  1.00  0.00    -0.266 OA
BRANCH   8  11
HETATM   11  N   UNL     1      40.821 -10.346  10.197  1.00  0.00    -0.183 NA
HETATM   12  C   UNL     1      41.085 -10.847  11.361  1.00  0.00     0.153 C 
BRANCH  12  13
HETATM   13  C   UNL     1      41.305  -9.963  12.524  1.00  0.00     0.016 A 
HETATM   14  C   UNL     1      40.306  -9.106  13.007  1.00  0.00     0.080 A 
HETATM   15  C   UNL     1      40.554  -8.281  14.102  1.00  0.00     0.074 A 
HETATM   16  C   UNL     1      41.806  -8.314  14.709  1.00  0.00     0.068 A 
HETATM   17  C   UNL     1      42.807  -9.160  14.240  1.00  0.00     0.037 A 
HETATM   18  C   UNL     1      42.559  -9.990  13.144  1.00  0.00     0.018 A 
BRANCH  14  19
HETATM   19  O   UNL     1      39.055  -9.020  12.457  1.00  0.00    -0.360 OA
HETATM   20  H   UNL     1      39.036  -9.556  11.630  1.00  0.00     0.217 HD
ENDBRANCH  14  19
BRANCH  16  21
HETATM   21  O   UNL     1      42.096  -7.522  15.780  1.00  0.00    -0.361 OA
HETATM   22  H   UNL     1      41.757  -7.954  16.582  1.00  0.00     0.217 HD
ENDBRANCH  16  21
ENDBRANCH  12  13
ENDBRANCH   8  11
ENDBRANCH   4   7
BRANCH   1  23
HETATM   23  C   UNL     1      40.132 -14.859   3.747  1.00  0.00     0.171 C 
BRANCH  23  24
HETATM   24  N   UNL     1      41.090 -15.939   3.766  1.00  0.00    -0.309 N 
HETATM   25  C   UNL     1      41.847 -16.394   2.683  1.00  0.00     0.050 A 
HETATM   26  C   UNL     1      42.595 -17.458   3.135  1.00  0.00     0.017 A 
HETATM   27  C   UNL     1      41.950 -15.963   1.369  1.00  0.00     0.031 A 
HETATM   28  C   UNL     1      42.319 -17.673   4.472  1.00  0.00     0.045 A 
HETATM   29  C   UNL     1      43.470 -18.178   2.378  1.00  0.00    -0.023 A 
HETATM   30  C   UNL     1      42.965 -18.706   5.147  1.00  0.00     0.018 A 
HETATM   31  C   UNL     1      41.342 -16.705   4.931  1.00  0.00     0.259 A 
HETATM   32  C   UNL     1      43.879 -19.478   4.403  1.00  0.00     0.002 A 
HETATM   33  C   UNL     1      44.136 -19.227   3.038  1.00  0.00     0.012 A 
HETATM   34  O   UNL     1      40.832 -16.529   6.031  1.00  0.00    -0.267 OA
HETATM   35  C   UNL     1      43.596 -17.776   1.035  1.00  0.00     0.012 A 
HETATM   36  C   UNL     1      42.844 -16.684   0.548  1.00  0.00     0.003 A 
ENDBRANCH  23  24
ENDBRANCH   1  23
TORSDOF 7
ENDMDL
MODEL 8
REMARK VINA RESULT:      -8.4      1.522      2.094
REMARK  7 active torsions:
REMARK  status: ('A' for Active; 'I' for Inactive)
REMARK    1  A    between atoms: N_8  and  C_9 
REMARK    2  A    between atoms: C_9  and  C_10 
REMARK    3  A    between atoms: C_13  and  C_14 
REMARK       I    between atoms: C_14  and  N_15 
REMARK    4  A    between atoms: N_15  and  N_16 
REMARK    5  A    between atoms: C_17  and  C_18 
REMARK    6  A    between atoms: C_19  and  O_20 
REMARK    7  A    between atoms: C_22  and  O_23 
ROOT
HETATM    1  C   UNL     1      40.789 -11.524   5.492  1.00  0.00    -0.040 A 
HETATM    2  C   UNL     1      41.991 -11.987   4.939  1.00  0.00     0.010 A 
HETATM    3  C   UNL     1      42.136 -13.327   4.570  1.00  0.00     0.017 A 
HETATM    4  C   UNL     1      41.082 -14.230   4.748  1.00  0.00     0.033 A 
HETATM    5  C   UNL     1      39.871 -13.770   5.279  1.00  0.00     0.017 A 
HETATM    6  C   UNL     1      39.729 -12.429   5.652  1.00  0.00     0.010 A 
ENDROOT
BRANCH   4   7
HETATM    7  C   UNL     1      41.284 -15.644   4.314  1.00  0.00     0.271 C 
HETATM    8  N   UNL     1      42.301 -16.342   4.952  1.00  0.00    -0.243 N 
HETATM    9  H   UNL     1      42.933 -15.885   5.595  1.00  0.00     0.192 HD
HETATM   10  O   UNL     1      40.577 -16.111   3.424  1.00  0.00    -0.266 OA
BRANCH   8  11
HETATM   11  N   UNL     1      42.505 -17.649   4.629  1.00  0.00    -0.183 NA
HETATM   12  C   UNL     1      43.737 -18.028   4.520  1.00  0.00     0.153 C 
BRANCH  12  13
HETATM   13  C   UNL     1      44.063 -19.429   4.186  1.00  0.00     0.016 A 
HETATM   14  C   UNL     1      44.330 -20.387   5.175  1.00  0.00     0.080 A 
HETATM   15  C   UNL     1      44.641 -21.697   4.821  1.00  0.00     0.074 A 
HETATM   16  C   UNL     1      44.690 -22.045   3.475  1.00  0.00     0.068 A 
HETATM   17  C   UNL     1      44.427 -21.105   2.483  1.00  0.00     0.037 A 
HETATM   18  C   UNL     1      44.112 -19.791   2.836  1.00  0.00     0.018 A 
BRANCH  14  19
HETATM   19  O   UNL     1      44.304 -20.113   6.516  1.00  0.00    -0.360 OA
HETATM   20  H   UNL     1      44.113 -20.947   7.006  1.00  0.00     0.217 HD
ENDBRANCH  14  19
BRANCH  16  21
HETATM   21  O   UNL     1      44.994 -23.314   3.080  1.00  0.00    -0.361 OA
HETATM   22  H   UNL     1      44.755 -23.411   2.143  1.00  0.00     0.217 HD
ENDBRANCH  16  21
ENDBRANCH  12  13
ENDBRANCH   8  11
ENDBRANCH   4   7
BRANCH   1  23
HETATM   23  C   UNL     1      40.631 -10.067   5.864  1.00  0.00     0.171 C 
BRANCH  23  24
HETATM   24  N   UNL     1      40.364  -9.879   7.270  1.00  0.00    -0.309 N 
HETATM   25  C   UNL     1      41.219 -10.207   8.326  1.00  0.00     0.050 A 
HETATM   26  C   UNL     1      40.554  -9.899   9.491  1.00  0.00     0.017 A 
HETATM   27  C   UNL     1      42.503 -10.729   8.361  1.00  0.00     0.031 A 
HETATM   28  C   UNL     1      39.308  -9.386   9.183  1.00  0.00     0.045 A 
HETATM   29  C   UNL     1      41.054 -10.070  10.748  1.00  0.00    -0.023 A 
HETATM   30  C   UNL     1      38.452  -9.000  10.211  1.00  0.00     0.018 A 
HETATM   31  C   UNL     1      39.137  -9.352   7.743  1.00  0.00     0.259 A 
HETATM   32  C   UNL     1      38.927  -9.161  11.528  1.00  0.00     0.002 A 
HETATM   33  C   UNL     1      40.207  -9.687  11.804  1.00  0.00     0.012 A 
HETATM   34  O   UNL     1      38.204  -8.968   7.048  1.00  0.00    -0.267 OA
HETATM   35  C   UNL     1      42.353 -10.606  10.824  1.00  0.00     0.012 A 
HETATM   36  C   UNL     1      43.058 -10.926   9.643  1.00  0.00     0.003 A 
ENDBRANCH  23  24
ENDBRANCH   1  23
TORSDOF 7
ENDMDL
MODEL 9
REMARK VINA RESULT:      -8.2      5.969     10.296
REMARK  7 active torsions:
REMARK  status: ('A' for Active; 'I' for Inactive)
REMARK    1  A    between atoms: N_8  and  C_9 
REMARK    2  A    between atoms: C_9  and  C_10 
REMARK    3  A    between atoms: C_13  and  C_14 
REMARK       I    between atoms: C_14  and  N_15 
REMARK    4  A    between atoms: N_15  and  N_16 
REMARK    5  A    between atoms: C_17  and  C_18 
REMARK    6  A    between atoms: C_19  and  O_20 
REMARK    7  A    between atoms: C_22  and  O_23 
ROOT
HETATM    1  C   UNL     1      43.199 -17.366   1.890  1.00  0.00    -0.040 A 
HETATM    2  C   UNL     1      41.962 -17.995   1.693  1.00  0.00     0.010 A 
HETATM    3  C   UNL     1      40.840 -17.256   1.309  1.00  0.00     0.017 A 
HETATM    4  C   UNL     1      40.934 -15.873   1.114  1.00  0.00     0.033 A 
HETATM    5  C   UNL     1      42.172 -15.242   1.286  1.00  0.00     0.017 A 
HETATM    6  C   UNL     1      43.293 -15.983   1.677  1.00  0.00     0.010 A 
ENDROOT
BRANCH   4   7
HETATM    7  C   UNL     1      39.710 -15.138   0.680  1.00  0.00     0.271 C 
HETATM    8  N   UNL     1      39.756 -14.562  -0.583  1.00  0.00    -0.243 N 
HETATM    9  H   UNL     1      40.607 -14.553  -1.129  1.00  0.00     0.192 HD
HETATM   10  O   UNL     1      38.749 -15.059   1.441  1.00  0.00    -0.266 OA
BRANCH   8  11
HETATM   11  N   UNL     1      38.653 -13.916  -1.052  1.00  0.00    -0.183 NA
HETATM   12  C   UNL     1      38.560 -13.798  -2.337  1.00  0.00     0.153 C 
BRANCH  12  13
HETATM   13  C   UNL     1      37.394 -13.124  -2.944  1.00  0.00     0.016 A 
HETATM   14  C   UNL     1      36.767 -13.618  -4.098  1.00  0.00     0.080 A 
HETATM   15  C   UNL     1      35.674 -12.950  -4.646  1.00  0.00     0.074 A 
HETATM   16  C   UNL     1      35.215 -11.785  -4.040  1.00  0.00     0.068 A 
HETATM   17  C   UNL     1      35.828 -11.284  -2.895  1.00  0.00     0.037 A 
HETATM   18  C   UNL     1      36.922 -11.953  -2.342  1.00  0.00     0.018 A 
BRANCH  14  19
HETATM   19  O   UNL     1      37.169 -14.754  -4.747  1.00  0.00    -0.360 OA
HETATM   20  H   UNL     1      36.675 -14.824  -5.597  1.00  0.00     0.217 HD
ENDBRANCH  14  19
BRANCH  16  21
HETATM   21  O   UNL     1      34.152 -11.095  -4.542  1.00  0.00    -0.361 OA
HETATM   22  H   UNL     1      33.848 -10.463  -3.869  1.00  0.00     0.217 HD
ENDBRANCH  16  21
ENDBRANCH  12  13
ENDBRANCH   8  11
ENDBRANCH   4   7
BRANCH   1  23
HETATM   23  C   UNL     1      44.414 -18.177   2.281  1.00  0.00     0.171 C 
BRANCH  23  24
HETATM   24  N   UNL     1      44.249 -18.850   3.547  1.00  0.00    -0.309 N 
HETATM   25  C   UNL     1      43.915 -18.251   4.765  1.00  0.00     0.050 A 
HETATM   26  C   UNL     1      43.902 -19.249   5.713  1.00  0.00     0.017 A 
HETATM   27  C   UNL     1      43.616 -16.942   5.111  1.00  0.00     0.031 A 
HETATM   28  C   UNL     1      44.219 -20.452   5.111  1.00  0.00     0.045 A 
HETATM   29  C   UNL     1      43.617 -19.072   7.034  1.00  0.00    -0.023 A 
HETATM   30  C   UNL     1      44.266 -21.612   5.881  1.00  0.00     0.018 A 
HETATM   31  C   UNL     1      44.453 -20.244   3.695  1.00  0.00     0.259 A 
HETATM   32  C   UNL     1      43.979 -21.476   7.253  1.00  0.00     0.002 A 
HETATM   33  C   UNL     1      43.657 -20.230   7.833  1.00  0.00     0.012 A 
HETATM   34  O   UNL     1      44.743 -21.027   2.799  1.00  0.00    -0.267 OA
HETATM   35  C   UNL     1      43.315 -17.754   7.426  1.00  0.00     0.012 A 
HETATM   36  C   UNL     1      43.316 -16.713   6.472  1.00  0.00     0.003 A 
ENDBRANCH  23  24
ENDBRANCH   1  23
TORSDOF 7
ENDMDL
MODEL 10
REMARK VINA RESULT:      -8.2      6.224      7.843
REMARK  7 active torsions:
REMARK  status: ('A' for Active; 'I' for Inactive)
REMARK    1  A    between atoms: N_8  and  C_9 
REMARK    2  A    between atoms: C_9  and  C_10 
REMARK    3  A    between atoms: C_13  and  C_14 
REMARK       I    between atoms: C_14  and  N_15 
REMARK    4  A    between atoms: N_15  and  N_16 
REMARK    5  A    between atoms: C_17  and  C_18 
REMARK    6  A    between atoms: C_19  and  O_20 
REMARK    7  A    between atoms: C_22  and  O_23 
ROOT
HETATM    1  C   UNL     1      39.597 -12.145   1.481  1.00  0.00    -0.040 A 
HETATM    2  C   UNL     1      40.737 -12.456   2.237  1.00  0.00     0.010 A 
HETATM    3  C   UNL     1      41.059 -13.785   2.524  1.00  0.00     0.017 A 
HETATM    4  C   UNL     1      40.250 -14.828   2.061  1.00  0.00     0.033 A 
HETATM    5  C   UNL     1      39.124 -14.526   1.285  1.00  0.00     0.017 A 
HETATM    6  C   UNL     1      38.798 -13.194   1.004  1.00  0.00     0.010 A 
ENDROOT
BRANCH   4   7
HETATM    7  C   UNL     1      40.656 -16.229   2.376  1.00  0.00     0.271 C 
HETATM    8  N   UNL     1      41.889 -16.385   2.997  1.00  0.00    -0.243 N 
HETATM    9  H   UNL     1      42.517 -15.603   3.129  1.00  0.00     0.192 HD
HETATM   10  O   UNL     1      39.915 -17.159   2.066  1.00  0.00    -0.266 OA
BRANCH   8  11
HETATM   11  N   UNL     1      42.294 -17.636   3.349  1.00  0.00    -0.183 NA
HETATM   12  C   UNL     1      43.144 -18.208   2.558  1.00  0.00     0.153 C 
BRANCH  12  13
HETATM   13  C   UNL     1      43.656 -19.560   2.859  1.00  0.00     0.016 A 
HETATM   14  C   UNL     1      44.289 -19.862   4.074  1.00  0.00     0.080 A 
HETATM   15  C   UNL     1      44.765 -21.148   4.319  1.00  0.00     0.074 A 
HETATM   16  C   UNL     1      44.611 -22.128   3.343  1.00  0.00     0.068 A 
HETATM   17  C   UNL     1      43.986 -21.842   2.133  1.00  0.00     0.037 A 
HETATM   18  C   UNL     1      43.504 -20.554   1.887  1.00  0.00     0.018 A 
BRANCH  14  19
HETATM   19  O   UNL     1      44.477 -18.947   5.075  1.00  0.00    -0.360 OA
HETATM   20  H   UNL     1      43.667 -18.921   5.636  1.00  0.00     0.217 HD
ENDBRANCH  14  19
BRANCH  16  21
HETATM   21  O   UNL     1      45.065 -23.399   3.536  1.00  0.00    -0.361 OA
HETATM   22  H   UNL     1      44.401 -24.019   3.192  1.00  0.00     0.217 HD
ENDBRANCH  16  21
ENDBRANCH  12  13
ENDBRANCH   8  11
ENDBRANCH   4   7
BRANCH   1  23
HETATM   23  C   UNL     1      39.270 -10.705   1.152  1.00  0.00     0.171 C 
BRANCH  23  24
HETATM   24  N   UNL     1      40.427  -9.956   0.723  1.00  0.00    -0.309 N 
HETATM   25  C   UNL     1      41.169 -10.176  -0.440  1.00  0.00     0.050 A 
HETATM   26  C   UNL     1      42.202  -9.266  -0.434  1.00  0.00     0.017 A 
HETATM   27  C   UNL     1      41.021 -11.071  -1.488  1.00  0.00     0.031 A 
HETATM   28  C   UNL     1      42.116  -8.487   0.705  1.00  0.00     0.045 A 
HETATM   29  C   UNL     1      43.153  -9.152  -1.404  1.00  0.00    -0.023 A 
HETATM   30  C   UNL     1      43.063  -7.489   0.926  1.00  0.00     0.018 A 
HETATM   31  C   UNL     1      40.971  -8.899   1.493  1.00  0.00     0.259 A 
HETATM   32  C   UNL     1      44.067  -7.338  -0.052  1.00  0.00     0.002 A 
HETATM   33  C   UNL     1      44.121  -8.151  -1.204  1.00  0.00     0.012 A 
HETATM   34  O   UNL     1      40.526  -8.479   2.553  1.00  0.00    -0.267 OA
HETATM   35  C   UNL     1      43.041 -10.050  -2.482  1.00  0.00     0.012 A 
HETATM   36  C   UNL     1      41.987 -10.991  -2.514  1.00  0.00     0.003 A 
ENDBRANCH  23  24
ENDBRANCH   1  23
TORSDOF 7
ENDMDL
