MODEL 1
REMARK VINA RESULT:      -7.8      0.000      0.000
REMARK  9 active torsions:
REMARK  status: ('A' for Active; 'I' for Inactive)
REMARK    1  A    between atoms: C_6  and  C_7 
REMARK    2  A    between atoms: C_7  and  C_8 
REMARK       I    between atoms: C_8  and  N_9 
REMARK    3  A    between atoms: N_9  and  C_10 
REMARK    4  A    between atoms: C_10  and  C_11 
REMARK    5  A    between atoms: C_11  and  N_12 
REMARK    6  A    between atoms: C_19  and  C_20 
REMARK    7  A    between atoms: C_29  and  C_30 
REMARK    8  A    between atoms: C_30  and  O_31 
REMARK    9  A    between atoms: O_31  and  C_32 
ROOT
HETATM    1  C   UNL     1      40.964 -12.793   5.808  1.00  0.00     0.071 C 
HETATM    2  C   UNL     1      40.768 -13.849   4.744  1.00  0.00     0.048 C 
HETATM    3  N   UNL     1      39.490 -13.824   4.160  1.00  0.00    -0.229 NA
HETATM    4  C   UNL     1      39.444 -14.125   2.900  1.00  0.00     0.170 C 
HETATM    5  N   UNL     1      40.672 -14.755   2.161  1.00  0.00    -0.318 N 
HETATM    6  C   UNL     1      40.892 -14.020   1.116  1.00  0.00     0.011 C 
HETATM    7  C   UNL     1      41.368 -15.590   3.158  1.00  0.00     0.168 C 
HETATM    8  S   UNL     1      38.282 -13.552   1.765  1.00  0.00    -0.086 SA
HETATM    9  C   UNL     1      39.645 -13.358   0.540  1.00  0.00     0.135 C 
HETATM   10  C   UNL     1      41.773 -14.604   4.222  1.00  0.00     0.069 C 
ENDROOT
BRANCH   6  11
HETATM   11  C   UNL     1      42.298 -13.689   0.714  1.00  0.00     0.156 C 
BRANCH  11  12
HETATM   12  C   UNL     1      42.425 -12.971  -0.607  1.00  0.00     0.223 C 
HETATM   13  N   UNL     1      42.225 -13.747  -1.728  1.00  0.00    -0.359 N 
HETATM   14  H   UNL     1      41.969 -14.728  -1.639  1.00  0.00     0.162 HD
HETATM   15  O   UNL     1      42.726 -11.786  -0.667  1.00  0.00    -0.273 OA
BRANCH  13  16
HETATM   16  C   UNL     1      42.264 -13.173  -3.069  1.00  0.00     0.150 C 
BRANCH  16  17
HETATM   17  C   UNL     1      40.923 -13.340  -3.807  1.00  0.00     0.254 C 
BRANCH  17  18
HETATM   18  N   UNL     1      39.977 -14.269  -3.081  1.00  0.00    -0.070 N 
HETATM   19  H   UNL     1      40.160 -14.217  -2.069  1.00  0.00     0.279 HD
HETATM   20  C   UNL     1      40.099 -15.731  -3.496  1.00  0.00     0.235 C 
HETATM   21  C   UNL     1      38.839 -16.002  -4.290  1.00  0.00     0.029 C 
HETATM   22  C   UNL     1      37.797 -15.185  -3.559  1.00  0.00     0.029 C 
HETATM   23  C   UNL     1      38.512 -13.879  -3.283  1.00  0.00     0.235 C 
ENDBRANCH  17  18
ENDBRANCH  16  17
ENDBRANCH  13  16
ENDBRANCH  11  12
ENDBRANCH   6  11
BRANCH   7  24
HETATM   24  C   UNL     1      42.218 -16.801   2.792  1.00  0.00    -0.009 A 
HETATM   25  C   UNL     1      42.412 -17.975   3.547  1.00  0.00     0.042 A 
HETATM   26 CL   UNL     1      41.701 -18.248   5.096  1.00  0.00    -0.084 Cl
HETATM   27  C   UNL     1      43.298 -18.978   3.120  1.00  0.00     0.024 A 
HETATM   28  C   UNL     1      44.070 -18.813   1.975  1.00  0.00     0.002 A 
HETATM   29  C   UNL     1      43.979 -17.630   1.262  1.00  0.00     0.001 A 
HETATM   30  C   UNL     1      43.084 -16.641   1.674  1.00  0.00     0.011 A 
ENDBRANCH   7  24
BRANCH  10  31
HETATM   31  C   UNL     1      43.145 -14.038   4.217  1.00  0.00     0.294 C 
HETATM   32  O   UNL     1      43.464 -13.157   3.430  1.00  0.00    -0.259 OA
BRANCH  31  33
HETATM   33  O   UNL     1      43.991 -14.791   4.939  1.00  0.00    -0.313 OA
BRANCH  33  34
HETATM   34  C   UNL     1      43.912 -14.695   6.379  1.00  0.00     0.124 C 
HETATM   35  C   UNL     1      43.922 -16.094   6.970  1.00  0.00     0.040 C 
HETATM   36  C   UNL     1      45.113 -13.883   6.851  1.00  0.00     0.040 C 
ENDBRANCH  33  34
ENDBRANCH  31  33
ENDBRANCH  10  31
TORSDOF 9
ENDMDL
MODEL 2
REMARK VINA RESULT:      -7.5      1.663      2.505
REMARK  9 active torsions:
REMARK  status: ('A' for Active; 'I' for Inactive)
REMARK    1  A    between atoms: C_6  and  C_7 
REMARK    2  A    between atoms: C_7  and  C_8 
REMARK       I    between atoms: C_8  and  N_9 
REMARK    3  A    between atoms: N_9  and  C_10 
REMARK    4  A    between atoms: C_10  and  C_11 
REMARK    5  A    between atoms: C_11  and  N_12 
REMARK    6  A    between atoms: C_19  and  C_20 
REMARK    7  A    between atoms: C_29  and  C_30 
REMARK    8  A    between atoms: C_30  and  O_31 
REMARK    9  A    between atoms: O_31  and  C_32 
ROOT
HETATM    1  C   UNL     1      40.535 -12.755   4.986  1.00  0.00     0.071 C 
HETATM    2  C   UNL     1      40.409 -13.952   4.072  1.00  0.00     0.048 C 
HETATM    3  N   UNL     1      39.155 -14.046   3.443  1.00  0.00    -0.229 NA
HETATM    4  C   UNL     1      39.168 -14.518   2.236  1.00  0.00     0.170 C 
HETATM    5  N   UNL     1      40.441 -15.205   1.636  1.00  0.00    -0.318 N 
HETATM    6  C   UNL     1      40.684 -14.613   0.509  1.00  0.00     0.011 C 
HETATM    7  C   UNL     1      41.117 -15.874   2.764  1.00  0.00     0.168 C 
HETATM    8  S   UNL     1      38.040 -14.141   0.991  1.00  0.00    -0.086 SA
HETATM    9  C   UNL     1      39.446 -14.074  -0.198  1.00  0.00     0.135 C 
HETATM   10  C   UNL     1      41.453 -14.740   3.696  1.00  0.00     0.069 C 
ENDROOT
BRANCH   6  11
HETATM   11  C   UNL     1      42.097 -14.298   0.117  1.00  0.00     0.156 C 
BRANCH  11  12
HETATM   12  C   UNL     1      42.244 -13.141  -0.841  1.00  0.00     0.223 C 
HETATM   13  N   UNL     1      42.409 -13.483  -2.165  1.00  0.00    -0.359 N 
HETATM   14  H   UNL     1      42.388 -14.458  -2.455  1.00  0.00     0.162 HD
HETATM   15  O   UNL     1      42.254 -11.981  -0.449  1.00  0.00    -0.273 OA
BRANCH  13  16
HETATM   16  C   UNL     1      42.510 -12.465  -3.208  1.00  0.00     0.150 C 
BRANCH  16  17
HETATM   17  C   UNL     1      41.143 -12.159  -3.847  1.00  0.00     0.254 C 
BRANCH  17  18
HETATM   18  N   UNL     1      40.931 -10.680  -4.076  1.00  0.00    -0.070 N 
HETATM   19  H   UNL     1      39.961 -10.435  -3.832  1.00  0.00     0.279 HD
HETATM   20  C   UNL     1      41.170 -10.233  -5.515  1.00  0.00     0.235 C 
HETATM   21  C   UNL     1      42.465  -9.451  -5.454  1.00  0.00     0.029 C 
HETATM   22  C   UNL     1      42.370  -8.744  -4.119  1.00  0.00     0.029 C 
HETATM   23  C   UNL     1      41.837  -9.820  -3.196  1.00  0.00     0.235 C 
ENDBRANCH  17  18
ENDBRANCH  16  17
ENDBRANCH  13  16
ENDBRANCH  11  12
ENDBRANCH   6  11
BRANCH   7  24
HETATM   24  C   UNL     1      42.012 -17.098   2.600  1.00  0.00    -0.009 A 
HETATM   25  C   UNL     1      42.252 -18.119   3.540  1.00  0.00     0.042 A 
HETATM   26 CL   UNL     1      41.556 -18.152   5.119  1.00  0.00    -0.084 Cl
HETATM   27  C   UNL     1      43.174 -19.147   3.280  1.00  0.00     0.024 A 
HETATM   28  C   UNL     1      43.936 -19.149   2.117  1.00  0.00     0.002 A 
HETATM   29  C   UNL     1      43.799 -18.107   1.216  1.00  0.00     0.001 A 
HETATM   30  C   UNL     1      42.867 -17.096   1.463  1.00  0.00     0.011 A 
ENDBRANCH   7  24
BRANCH  10  31
HETATM   31  C   UNL     1      42.810 -14.138   3.663  1.00  0.00     0.294 C 
HETATM   32  O   UNL     1      43.100 -13.276   2.846  1.00  0.00    -0.259 OA
BRANCH  31  33
HETATM   33  O   UNL     1      43.679 -14.844   4.404  1.00  0.00    -0.313 OA
BRANCH  33  34
HETATM   34  C   UNL     1      43.419 -14.952   5.822  1.00  0.00     0.124 C 
HETATM   35  C   UNL     1      44.170 -16.153   6.372  1.00  0.00     0.040 C 
HETATM   36  C   UNL     1      43.889 -13.656   6.474  1.00  0.00     0.040 C 
ENDBRANCH  33  34
ENDBRANCH  31  33
ENDBRANCH  10  31
TORSDOF 9
ENDMDL
MODEL 3
REMARK VINA RESULT:      -7.3      3.073      7.323
REMARK  9 active torsions:
REMARK  status: ('A' for Active; 'I' for Inactive)
REMARK    1  A    between atoms: C_6  and  C_7 
REMARK    2  A    between atoms: C_7  and  C_8 
REMARK       I    between atoms: C_8  and  N_9 
REMARK    3  A    between atoms: N_9  and  C_10 
REMARK    4  A    between atoms: C_10  and  C_11 
REMARK    5  A    between atoms: C_11  and  N_12 
REMARK    6  A    between atoms: C_19  and  C_20 
REMARK    7  A    between atoms: C_29  and  C_30 
REMARK    8  A    between atoms: C_30  and  O_31 
REMARK    9  A    between atoms: O_31  and  C_32 
ROOT
HETATM    1  C   UNL     1      37.376 -14.212   0.919  1.00  0.00     0.071 C 
HETATM    2  C   UNL     1      38.254 -12.982   0.938  1.00  0.00     0.048 C 
HETATM    3  N   UNL     1      38.041 -12.160   2.058  1.00  0.00    -0.229 NA
HETATM    4  C   UNL     1      39.094 -11.563   2.523  1.00  0.00     0.170 C 
HETATM    5  N   UNL     1      40.439 -11.527   1.721  1.00  0.00    -0.318 N 
HETATM    6  C   UNL     1      41.359 -11.959   2.525  1.00  0.00     0.011 C 
HETATM    7  C   UNL     1      40.066 -11.496   0.295  1.00  0.00     0.168 C 
HETATM    8  S   UNL     1      39.351 -11.097   4.160  1.00  0.00    -0.086 SA
HETATM    9  C   UNL     1      41.097 -11.666   3.998  1.00  0.00     0.135 C 
HETATM   10  C   UNL     1      39.309 -12.783   0.101  1.00  0.00     0.069 C 
ENDROOT
BRANCH   6  11
HETATM   11  C   UNL     1      42.431 -12.876   2.015  1.00  0.00     0.156 C 
BRANCH  11  12
HETATM   12  C   UNL     1      42.970 -13.847   3.036  1.00  0.00     0.223 C 
HETATM   13  N   UNL     1      42.180 -14.949   3.284  1.00  0.00    -0.359 N 
HETATM   14  H   UNL     1      41.315 -15.092   2.768  1.00  0.00     0.162 HD
HETATM   15  O   UNL     1      44.022 -13.640   3.627  1.00  0.00    -0.273 OA
BRANCH  13  16
HETATM   16  C   UNL     1      42.603 -15.997   4.209  1.00  0.00     0.150 C 
BRANCH  16  17
HETATM   17  C   UNL     1      42.376 -17.404   3.627  1.00  0.00     0.254 C 
BRANCH  17  18
HETATM   18  N   UNL     1      43.655 -18.037   3.129  1.00  0.00    -0.070 N 
HETATM   19  H   UNL     1      44.398 -17.325   3.104  1.00  0.00     0.279 HD
HETATM   20  C   UNL     1      43.549 -18.639   1.732  1.00  0.00     0.235 C 
HETATM   21  C   UNL     1      43.579 -20.134   1.965  1.00  0.00     0.029 C 
HETATM   22  C   UNL     1      44.550 -20.277   3.117  1.00  0.00     0.029 C 
HETATM   23  C   UNL     1      44.147 -19.154   4.049  1.00  0.00     0.235 C 
ENDBRANCH  17  18
ENDBRANCH  16  17
ENDBRANCH  13  16
ENDBRANCH  11  12
ENDBRANCH   6  11
BRANCH   7  24
HETATM   24  C   UNL     1      40.949 -10.889  -0.790  1.00  0.00    -0.009 A 
HETATM   25  C   UNL     1      40.545 -10.365  -2.034  1.00  0.00     0.042 A 
HETATM   26 CL   UNL     1      38.906 -10.335  -2.575  1.00  0.00    -0.084 Cl
HETATM   27  C   UNL     1      41.485  -9.915  -2.975  1.00  0.00     0.024 A 
HETATM   28  C   UNL     1      42.850 -10.040  -2.742  1.00  0.00     0.002 A 
HETATM   29  C   UNL     1      43.285 -10.642  -1.573  1.00  0.00     0.001 A 
HETATM   30  C   UNL     1      42.351 -11.071  -0.627  1.00  0.00     0.011 A 
ENDBRANCH   7  24
BRANCH  10  31
HETATM   31  C   UNL     1      40.008 -13.975  -0.442  1.00  0.00     0.294 C 
HETATM   32  O   UNL     1      40.746 -14.651   0.261  1.00  0.00    -0.259 OA
BRANCH  31  33
HETATM   33  O   UNL     1      39.950 -14.011  -1.784  1.00  0.00    -0.313 OA
BRANCH  33  34
HETATM   34  C   UNL     1      41.028 -14.672  -2.484  1.00  0.00     0.124 C 
HETATM   35  C   UNL     1      40.480 -15.901  -3.189  1.00  0.00     0.040 C 
HETATM   36  C   UNL     1      41.608 -13.672  -3.479  1.00  0.00     0.040 C 
ENDBRANCH  33  34
ENDBRANCH  31  33
ENDBRANCH  10  31
TORSDOF 9
ENDMDL
MODEL 4
REMARK VINA RESULT:      -7.3      3.681      8.966
REMARK  9 active torsions:
REMARK  status: ('A' for Active; 'I' for Inactive)
REMARK    1  A    between atoms: C_6  and  C_7 
REMARK    2  A    between atoms: C_7  and  C_8 
REMARK       I    between atoms: C_8  and  N_9 
REMARK    3  A    between atoms: N_9  and  C_10 
REMARK    4  A    between atoms: C_10  and  C_11 
REMARK    5  A    between atoms: C_11  and  N_12 
REMARK    6  A    between atoms: C_19  and  C_20 
REMARK    7  A    between atoms: C_29  and  C_30 
REMARK    8  A    between atoms: C_30  and  O_31 
REMARK    9  A    between atoms: O_31  and  C_32 
ROOT
HETATM    1  C   UNL     1      42.507 -18.117   2.298  1.00  0.00     0.071 C 
HETATM    2  C   UNL     1      41.985 -17.333   3.480  1.00  0.00     0.048 C 
HETATM    3  N   UNL     1      41.916 -18.087   4.664  1.00  0.00    -0.229 NA
HETATM    4  C   UNL     1      42.171 -17.438   5.757  1.00  0.00     0.170 C 
HETATM    5  N   UNL     1      42.256 -15.875   5.783  1.00  0.00    -0.318 N 
HETATM    6  C   UNL     1      43.390 -15.575   6.333  1.00  0.00     0.011 C 
HETATM    7  C   UNL     1      41.295 -15.395   4.772  1.00  0.00     0.168 C 
HETATM    8  S   UNL     1      42.840 -18.105   7.197  1.00  0.00    -0.086 SA
HETATM    9  C   UNL     1      43.880 -16.593   7.357  1.00  0.00     0.135 C 
HETATM   10  C   UNL     1      41.812 -15.983   3.486  1.00  0.00     0.069 C 
ENDROOT
BRANCH   6  11
HETATM   11  C   UNL     1      44.216 -14.449   5.786  1.00  0.00     0.156 C 
BRANCH  11  12
HETATM   12  C   UNL     1      44.934 -13.628   6.827  1.00  0.00     0.223 C 
HETATM   13  N   UNL     1      44.184 -13.276   7.929  1.00  0.00    -0.359 N 
HETATM   14  H   UNL     1      43.224 -13.599   8.025  1.00  0.00     0.162 HD
HETATM   15  O   UNL     1      46.095 -13.270   6.674  1.00  0.00    -0.273 OA
BRANCH  13  16
HETATM   16  C   UNL     1      44.766 -12.528   9.039  1.00  0.00     0.150 C 
BRANCH  16  17
HETATM   17  C   UNL     1      43.886 -11.335   9.454  1.00  0.00     0.254 C 
BRANCH  17  18
HETATM   18  N   UNL     1      42.920 -11.686  10.562  1.00  0.00    -0.070 N 
HETATM   19  H   UNL     1      42.486 -12.597  10.357  1.00  0.00     0.279 HD
HETATM   20  C   UNL     1      41.797 -10.673  10.752  1.00  0.00     0.235 C 
HETATM   21  C   UNL     1      42.136  -9.977  12.053  1.00  0.00     0.029 C 
HETATM   22  C   UNL     1      42.719 -11.094  12.891  1.00  0.00     0.029 C 
HETATM   23  C   UNL     1      43.616 -11.826  11.916  1.00  0.00     0.235 C 
ENDBRANCH  17  18
ENDBRANCH  16  17
ENDBRANCH  13  16
ENDBRANCH  11  12
ENDBRANCH   6  11
BRANCH   7  24
HETATM   24  C   UNL     1      40.619 -14.029   4.839  1.00  0.00    -0.009 A 
HETATM   25  C   UNL     1      39.634 -13.515   3.973  1.00  0.00     0.042 A 
HETATM   26 CL   UNL     1      39.007 -14.375   2.614  1.00  0.00    -0.084 Cl
HETATM   27  C   UNL     1      39.161 -12.198   4.107  1.00  0.00     0.024 A 
HETATM   28  C   UNL     1      39.704 -11.335   5.052  1.00  0.00     0.002 A 
HETATM   29  C   UNL     1      40.743 -11.775   5.854  1.00  0.00     0.001 A 
HETATM   30  C   UNL     1      41.199 -13.089   5.737  1.00  0.00     0.011 A 
ENDBRANCH   7  24
BRANCH  10  31
HETATM   31  C   UNL     1      42.666 -15.163   2.592  1.00  0.00     0.294 C 
HETATM   32  O   UNL     1      43.862 -15.026   2.809  1.00  0.00    -0.259 OA
BRANCH  31  33
HETATM   33  O   UNL     1      41.927 -14.413   1.758  1.00  0.00    -0.313 OA
BRANCH  33  34
HETATM   34  C   UNL     1      42.100 -14.620   0.338  1.00  0.00     0.124 C 
HETATM   35  C   UNL     1      41.188 -15.748  -0.112  1.00  0.00     0.040 C 
HETATM   36  C   UNL     1      41.753 -13.311  -0.362  1.00  0.00     0.040 C 
ENDBRANCH  33  34
ENDBRANCH  31  33
ENDBRANCH  10  31
TORSDOF 9
ENDMDL
MODEL 5
REMARK VINA RESULT:      -6.9      3.089      7.751
REMARK  9 active torsions:
REMARK  status: ('A' for Active; 'I' for Inactive)
REMARK    1  A    between atoms: C_6  and  C_7 
REMARK    2  A    between atoms: C_7  and  C_8 
REMARK       I    between atoms: C_8  and  N_9 
REMARK    3  A    between atoms: N_9  and  C_10 
REMARK    4  A    between atoms: C_10  and  C_11 
REMARK    5  A    between atoms: C_11  and  N_12 
REMARK    6  A    between atoms: C_19  and  C_20 
REMARK    7  A    between atoms: C_29  and  C_30 
REMARK    8  A    between atoms: C_30  and  O_31 
REMARK    9  A    between atoms: O_31  and  C_32 
ROOT
HETATM    1  C   UNL     1      37.381 -14.085   0.786  1.00  0.00     0.071 C 
HETATM    2  C   UNL     1      38.305 -12.904   0.972  1.00  0.00     0.048 C 
HETATM    3  N   UNL     1      38.113 -12.229   2.190  1.00  0.00    -0.229 NA
HETATM    4  C   UNL     1      39.184 -11.741   2.735  1.00  0.00     0.170 C 
HETATM    5  N   UNL     1      40.536 -11.652   1.952  1.00  0.00    -0.318 N 
HETATM    6  C   UNL     1      41.432 -12.223   2.695  1.00  0.00     0.011 C 
HETATM    7  C   UNL     1      40.179 -11.418   0.540  1.00  0.00     0.168 C 
HETATM    8  S   UNL     1      39.443 -11.507   4.421  1.00  0.00    -0.086 SA
HETATM    9  C   UNL     1      41.166 -12.117   4.192  1.00  0.00     0.135 C 
HETATM   10  C   UNL     1      39.375 -12.637   0.173  1.00  0.00     0.069 C 
ENDROOT
BRANCH   6  11
HETATM   11  C   UNL     1      42.472 -13.106   2.072  1.00  0.00     0.156 C 
BRANCH  11  12
HETATM   12  C   UNL     1      42.786 -14.359   2.852  1.00  0.00     0.223 C 
HETATM   13  N   UNL     1      41.898 -15.400   2.686  1.00  0.00    -0.359 N 
HETATM   14  H   UNL     1      41.115 -15.315   2.042  1.00  0.00     0.162 HD
HETATM   15  O   UNL     1      43.746 -14.421   3.609  1.00  0.00    -0.273 OA
BRANCH  13  16
HETATM   16  C   UNL     1      42.107 -16.690   3.337  1.00  0.00     0.150 C 
BRANCH  16  17
HETATM   17  C   UNL     1      41.463 -16.741   4.734  1.00  0.00     0.254 C 
BRANCH  17  18
HETATM   18  N   UNL     1      42.289 -17.529   5.724  1.00  0.00    -0.070 N 
HETATM   19  H   UNL     1      41.892 -18.474   5.821  1.00  0.00     0.279 HD
HETATM   20  C   UNL     1      42.349 -16.911   7.117  1.00  0.00     0.235 C 
HETATM   21  C   UNL     1      43.764 -16.384   7.232  1.00  0.00     0.029 C 
HETATM   22  C   UNL     1      44.574 -17.426   6.492  1.00  0.00     0.029 C 
HETATM   23  C   UNL     1      43.736 -17.705   5.262  1.00  0.00     0.235 C 
ENDBRANCH  17  18
ENDBRANCH  16  17
ENDBRANCH  13  16
ENDBRANCH  11  12
ENDBRANCH   6  11
BRANCH   7  24
HETATM   24  C   UNL     1      41.096 -10.708  -0.451  1.00  0.00    -0.009 A 
HETATM   25  C   UNL     1      40.719  -9.936  -1.568  1.00  0.00     0.042 A 
HETATM   26 CL   UNL     1      39.081  -9.664  -2.039  1.00  0.00    -0.084 Cl
HETATM   27  C   UNL     1      41.681  -9.410  -2.447  1.00  0.00     0.024 A 
HETATM   28  C   UNL     1      43.032  -9.696  -2.286  1.00  0.00     0.002 A 
HETATM   29  C   UNL     1      43.429 -10.533  -1.258  1.00  0.00     0.001 A 
HETATM   30  C   UNL     1      42.477 -11.040  -0.371  1.00  0.00     0.011 A 
ENDBRANCH   7  24
BRANCH  10  31
HETATM   31  C   UNL     1      40.033 -13.773  -0.520  1.00  0.00     0.294 C 
HETATM   32  O   UNL     1      40.655 -14.621   0.105  1.00  0.00    -0.259 OA
BRANCH  31  33
HETATM   33  O   UNL     1      40.093 -13.572  -1.846  1.00  0.00    -0.313 OA
BRANCH  33  34
HETATM   34  C   UNL     1      41.297 -13.983  -2.533  1.00  0.00     0.124 C 
HETATM   35  C   UNL     1      41.072 -15.352  -3.150  1.00  0.00     0.040 C 
HETATM   36  C   UNL     1      41.596 -12.934  -3.599  1.00  0.00     0.040 C 
ENDBRANCH  33  34
ENDBRANCH  31  33
ENDBRANCH  10  31
TORSDOF 9
ENDMDL
MODEL 6
REMARK VINA RESULT:      -6.8      3.338      8.791
REMARK  9 active torsions:
REMARK  status: ('A' for Active; 'I' for Inactive)
REMARK    1  A    between atoms: C_6  and  C_7 
REMARK    2  A    between atoms: C_7  and  C_8 
REMARK       I    between atoms: C_8  and  N_9 
REMARK    3  A    between atoms: N_9  and  C_10 
REMARK    4  A    between atoms: C_10  and  C_11 
REMARK    5  A    between atoms: C_11  and  N_12 
REMARK    6  A    between atoms: C_19  and  C_20 
REMARK    7  A    between atoms: C_29  and  C_30 
REMARK    8  A    between atoms: C_30  and  O_31 
REMARK    9  A    between atoms: O_31  and  C_32 
ROOT
HETATM    1  C   UNL     1      41.912 -16.668   0.382  1.00  0.00     0.071 C 
HETATM    2  C   UNL     1      41.270 -16.156   1.652  1.00  0.00     0.048 C 
HETATM    3  N   UNL     1      41.055 -17.158   2.614  1.00  0.00    -0.229 NA
HETATM    4  C   UNL     1      41.195 -16.789   3.848  1.00  0.00     0.170 C 
HETATM    5  N   UNL     1      41.302 -15.278   4.246  1.00  0.00    -0.318 N 
HETATM    6  C   UNL     1      42.371 -15.161   4.969  1.00  0.00     0.011 C 
HETATM    7  C   UNL     1      40.470 -14.538   3.279  1.00  0.00     0.168 C 
HETATM    8  S   UNL     1      41.684 -17.796   5.156  1.00  0.00    -0.086 SA
HETATM    9  C   UNL     1      42.724 -16.407   5.775  1.00  0.00     0.135 C 
HETATM   10  C   UNL     1      41.120 -14.837   1.954  1.00  0.00     0.069 C 
ENDROOT
BRANCH   6  11
HETATM   11  C   UNL     1      43.272 -13.976   4.791  1.00  0.00     0.156 C 
BRANCH  11  12
HETATM   12  C   UNL     1      44.222 -13.726   5.935  1.00  0.00     0.223 C 
HETATM   13  N   UNL     1      43.631 -13.448   7.149  1.00  0.00    -0.359 N 
HETATM   14  H   UNL     1      42.618 -13.459   7.246  1.00  0.00     0.162 HD
HETATM   15  O   UNL     1      45.436 -13.732   5.775  1.00  0.00    -0.273 OA
BRANCH  13  16
HETATM   16  C   UNL     1      44.429 -13.239   8.354  1.00  0.00     0.150 C 
BRANCH  16  17
HETATM   17  C   UNL     1      44.322 -11.793   8.871  1.00  0.00     0.254 C 
BRANCH  17  18
HETATM   18  N   UNL     1      43.321 -11.653   9.995  1.00  0.00    -0.070 N 
HETATM   19  H   UNL     1      42.529 -12.288   9.825  1.00  0.00     0.279 HD
HETATM   20  C   UNL     1      42.756 -10.246  10.153  1.00  0.00     0.235 C 
HETATM   21  C   UNL     1      43.391  -9.728  11.426  1.00  0.00     0.029 C 
HETATM   22  C   UNL     1      43.444 -10.960  12.303  1.00  0.00     0.029 C 
HETATM   23  C   UNL     1      43.912 -12.041  11.350  1.00  0.00     0.235 C 
ENDBRANCH  17  18
ENDBRANCH  16  17
ENDBRANCH  13  16
ENDBRANCH  11  12
ENDBRANCH   6  11
BRANCH   7  24
HETATM   24  C   UNL     1      39.813 -13.197   3.589  1.00  0.00    -0.009 A 
HETATM   25  C   UNL     1      39.562 -12.637   4.857  1.00  0.00     0.042 A 
HETATM   26 CL   UNL     1      39.956 -13.416   6.346  1.00  0.00    -0.084 Cl
HETATM   27  C   UNL     1      38.867 -11.423   4.993  1.00  0.00     0.024 A 
HETATM   28  C   UNL     1      38.339 -10.772   3.883  1.00  0.00     0.002 A 
HETATM   29  C   UNL     1      38.479 -11.345   2.631  1.00  0.00     0.001 A 
HETATM   30  C   UNL     1      39.188 -12.540   2.493  1.00  0.00     0.011 A 
ENDBRANCH   7  24
BRANCH  10  31
HETATM   31  C   UNL     1      42.084 -13.870   1.372  1.00  0.00     0.294 C 
HETATM   32  O   UNL     1      42.795 -13.177   2.086  1.00  0.00    -0.259 OA
BRANCH  31  33
HETATM   33  O   UNL     1      41.854 -13.673   0.063  1.00  0.00    -0.313 OA
BRANCH  33  34
HETATM   34  C   UNL     1      41.496 -12.339  -0.362  1.00  0.00     0.124 C 
HETATM   35  C   UNL     1      42.609 -11.782  -1.233  1.00  0.00     0.040 C 
HETATM   36  C   UNL     1      40.184 -12.439  -1.132  1.00  0.00     0.040 C 
ENDBRANCH  33  34
ENDBRANCH  31  33
ENDBRANCH  10  31
TORSDOF 9
ENDMDL
MODEL 7
REMARK VINA RESULT:      -6.7      3.350      8.658
REMARK  9 active torsions:
REMARK  status: ('A' for Active; 'I' for Inactive)
REMARK    1  A    between atoms: C_6  and  C_7 
REMARK    2  A    between atoms: C_7  and  C_8 
REMARK       I    between atoms: C_8  and  N_9 
REMARK    3  A    between atoms: N_9  and  C_10 
REMARK    4  A    between atoms: C_10  and  C_11 
REMARK    5  A    between atoms: C_11  and  N_12 
REMARK    6  A    between atoms: C_19  and  C_20 
REMARK    7  A    between atoms: C_29  and  C_30 
REMARK    8  A    between atoms: C_30  and  O_31 
REMARK    9  A    between atoms: O_31  and  C_32 
ROOT
HETATM    1  C   UNL     1      42.677 -16.426   1.030  1.00  0.00     0.071 C 
HETATM    2  C   UNL     1      41.560 -15.808   1.839  1.00  0.00     0.048 C 
HETATM    3  N   UNL     1      41.157 -16.597   2.930  1.00  0.00    -0.229 NA
HETATM    4  C   UNL     1      40.793 -15.944   3.990  1.00  0.00     0.170 C 
HETATM    5  N   UNL     1      40.539 -14.400   3.955  1.00  0.00    -0.318 N 
HETATM    6  C   UNL     1      41.252 -13.887   4.909  1.00  0.00     0.011 C 
HETATM    7  C   UNL     1      40.013 -14.099   2.610  1.00  0.00     0.168 C 
HETATM    8  S   UNL     1      40.918 -16.502   5.614  1.00  0.00    -0.086 SA
HETATM    9  C   UNL     1      41.464 -14.811   6.102  1.00  0.00     0.135 C 
HETATM   10  C   UNL     1      41.129 -14.525   1.693  1.00  0.00     0.069 C 
ENDROOT
BRANCH   6  11
HETATM   11  C   UNL     1      41.982 -12.596   4.688  1.00  0.00     0.156 C 
BRANCH  11  12
HETATM   12  C   UNL     1      41.574 -11.473   5.609  1.00  0.00     0.223 C 
HETATM   13  N   UNL     1      41.307 -11.839   6.911  1.00  0.00    -0.359 N 
HETATM   14  H   UNL     1      41.427 -12.804   7.212  1.00  0.00     0.162 HD
HETATM   15  O   UNL     1      41.451 -10.324   5.206  1.00  0.00    -0.273 OA
BRANCH  13  16
HETATM   16  C   UNL     1      40.953 -10.848   7.923  1.00  0.00     0.150 C 
BRANCH  16  17
HETATM   17  C   UNL     1      42.192 -10.313   8.663  1.00  0.00     0.254 C 
BRANCH  17  18
HETATM   18  N   UNL     1      42.866 -11.373   9.504  1.00  0.00    -0.070 N 
HETATM   19  H   UNL     1      42.456 -12.291   9.285  1.00  0.00     0.279 HD
HETATM   20  C   UNL     1      42.730 -11.155  11.007  1.00  0.00     0.235 C 
HETATM   21  C   UNL     1      44.116 -10.740  11.452  1.00  0.00     0.029 C 
HETATM   22  C   UNL     1      45.019 -11.578  10.573  1.00  0.00     0.029 C 
HETATM   23  C   UNL     1      44.363 -11.480   9.212  1.00  0.00     0.235 C 
ENDBRANCH  17  18
ENDBRANCH  16  17
ENDBRANCH  13  16
ENDBRANCH  11  12
ENDBRANCH   6  11
BRANCH   7  24
HETATM   24  C   UNL     1      39.110 -12.908   2.309  1.00  0.00    -0.009 A 
HETATM   25  C   UNL     1      37.962 -12.886   1.492  1.00  0.00     0.042 A 
HETATM   26 CL   UNL     1      37.366 -14.262   0.637  1.00  0.00    -0.084 Cl
HETATM   27  C   UNL     1      37.273 -11.689   1.236  1.00  0.00     0.024 A 
HETATM   28  C   UNL     1      37.743 -10.473   1.721  1.00  0.00     0.002 A 
HETATM   29  C   UNL     1      38.924 -10.444   2.444  1.00  0.00     0.001 A 
HETATM   30  C   UNL     1      39.598 -11.635   2.717  1.00  0.00     0.011 A 
ENDBRANCH   7  24
BRANCH  10  31
HETATM   31  C   UNL     1      42.093 -13.515   1.188  1.00  0.00     0.294 C 
HETATM   32  O   UNL     1      42.866 -12.944   1.944  1.00  0.00    -0.259 OA
BRANCH  31  33
HETATM   33  O   UNL     1      41.798 -13.138  -0.067  1.00  0.00    -0.313 OA
BRANCH  33  34
HETATM   34  C   UNL     1      41.800 -11.723  -0.360  1.00  0.00     0.124 C 
HETATM   35  C   UNL     1      42.909 -11.426  -1.356  1.00  0.00     0.040 C 
HETATM   36  C   UNL     1      40.431 -11.371  -0.931  1.00  0.00     0.040 C 
ENDBRANCH  33  34
ENDBRANCH  31  33
ENDBRANCH  10  31
TORSDOF 9
ENDMDL
MODEL 8
REMARK VINA RESULT:      -6.6      3.278      7.453
REMARK  9 active torsions:
REMARK  status: ('A' for Active; 'I' for Inactive)
REMARK    1  A    between atoms: C_6  and  C_7 
REMARK    2  A    between atoms: C_7  and  C_8 
REMARK       I    between atoms: C_8  and  N_9 
REMARK    3  A    between atoms: N_9  and  C_10 
REMARK    4  A    between atoms: C_10  and  C_11 
REMARK    5  A    between atoms: C_11  and  N_12 
REMARK    6  A    between atoms: C_19  and  C_20 
REMARK    7  A    between atoms: C_29  and  C_30 
REMARK    8  A    between atoms: C_30  and  O_31 
REMARK    9  A    between atoms: O_31  and  C_32 
ROOT
HETATM    1  C   UNL     1      37.343 -14.380   0.770  1.00  0.00     0.071 C 
HETATM    2  C   UNL     1      38.178 -13.120   0.802  1.00  0.00     0.048 C 
HETATM    3  N   UNL     1      37.775 -12.207   1.792  1.00  0.00    -0.229 NA
HETATM    4  C   UNL     1      38.729 -11.529   2.350  1.00  0.00     0.170 C 
HETATM    5  N   UNL     1      40.180 -11.515   1.760  1.00  0.00    -0.318 N 
HETATM    6  C   UNL     1      40.976 -11.835   2.731  1.00  0.00     0.011 C 
HETATM    7  C   UNL     1      40.030 -11.630   0.298  1.00  0.00     0.168 C 
HETATM    8  S   UNL     1      38.721 -10.905   3.955  1.00  0.00    -0.086 SA
HETATM    9  C   UNL     1      40.484 -11.418   4.112  1.00  0.00     0.135 C 
HETATM   10  C   UNL     1      39.343 -12.958   0.117  1.00  0.00     0.069 C 
ENDROOT
BRANCH   6  11
HETATM   11  C   UNL     1      42.136 -12.753   2.479  1.00  0.00     0.156 C 
BRANCH  11  12
HETATM   12  C   UNL     1      42.550 -13.587   3.665  1.00  0.00     0.223 C 
HETATM   13  N   UNL     1      41.780 -14.705   3.904  1.00  0.00    -0.359 N 
HETATM   14  H   UNL     1      41.014 -14.949   3.280  1.00  0.00     0.162 HD
HETATM   15  O   UNL     1      43.485 -13.261   4.385  1.00  0.00    -0.273 OA
BRANCH  13  16
HETATM   16  C   UNL     1      42.099 -15.633   4.986  1.00  0.00     0.150 C 
BRANCH  16  17
HETATM   17  C   UNL     1      43.213 -16.619   4.589  1.00  0.00     0.254 C 
BRANCH  17  18
HETATM   18  N   UNL     1      44.063 -17.035   5.767  1.00  0.00    -0.070 N 
HETATM   19  H   UNL     1      45.043 -16.780   5.585  1.00  0.00     0.279 HD
HETATM   20  C   UNL     1      44.024 -18.530   6.066  1.00  0.00     0.235 C 
HETATM   21  C   UNL     1      43.221 -18.636   7.345  1.00  0.00     0.029 C 
HETATM   22  C   UNL     1      43.648 -17.406   8.115  1.00  0.00     0.029 C 
HETATM   23  C   UNL     1      43.656 -16.322   7.057  1.00  0.00     0.235 C 
ENDBRANCH  17  18
ENDBRANCH  16  17
ENDBRANCH  13  16
ENDBRANCH  11  12
ENDBRANCH   6  11
BRANCH   7  24
HETATM   24  C   UNL     1      41.054 -11.091  -0.696  1.00  0.00    -0.009 A 
HETATM   25  C   UNL     1      40.930 -11.007  -2.097  1.00  0.00     0.042 A 
HETATM   26 CL   UNL     1      39.541 -11.540  -2.971  1.00  0.00    -0.084 Cl
HETATM   27  C   UNL     1      41.997 -10.564  -2.897  1.00  0.00     0.024 A 
HETATM   28  C   UNL     1      43.236 -10.266  -2.340  1.00  0.00     0.002 A 
HETATM   29  C   UNL     1      43.424 -10.433  -0.979  1.00  0.00     0.001 A 
HETATM   30  C   UNL     1      42.358 -10.852  -0.179  1.00  0.00     0.011 A 
ENDBRANCH   7  24
BRANCH  10  31
HETATM   31  C   UNL     1      40.146 -14.166  -0.197  1.00  0.00     0.294 C 
HETATM   32  O   UNL     1      40.242 -14.582  -1.343  1.00  0.00    -0.259 OA
BRANCH  31  33
HETATM   33  O   UNL     1      40.470 -14.844   0.916  1.00  0.00    -0.313 OA
BRANCH  33  34
HETATM   34  C   UNL     1      40.894 -16.218   0.764  1.00  0.00     0.124 C 
HETATM   35  C   UNL     1      42.407 -16.284   0.885  1.00  0.00     0.040 C 
HETATM   36  C   UNL     1      40.212 -17.031   1.858  1.00  0.00     0.040 C 
ENDBRANCH  33  34
ENDBRANCH  31  33
ENDBRANCH  10  31
TORSDOF 9
ENDMDL
MODEL 9
REMARK VINA RESULT:      -6.6      3.659      6.898
REMARK  9 active torsions:
REMARK  status: ('A' for Active; 'I' for Inactive)
REMARK    1  A    between atoms: C_6  and  C_7 
REMARK    2  A    between atoms: C_7  and  C_8 
REMARK       I    between atoms: C_8  and  N_9 
REMARK    3  A    between atoms: N_9  and  C_10 
REMARK    4  A    between atoms: C_10  and  C_11 
REMARK    5  A    between atoms: C_11  and  N_12 
REMARK    6  A    between atoms: C_19  and  C_20 
REMARK    7  A    between atoms: C_29  and  C_30 
REMARK    8  A    between atoms: C_30  and  O_31 
REMARK    9  A    between atoms: O_31  and  C_32 
ROOT
HETATM    1  C   UNL     1      43.910 -19.584   2.139  1.00  0.00     0.071 C 
HETATM    2  C   UNL     1      43.728 -18.107   2.404  1.00  0.00     0.048 C 
HETATM    3  N   UNL     1      43.522 -17.351   1.238  1.00  0.00    -0.229 NA
HETATM    4  C   UNL     1      42.716 -16.343   1.359  1.00  0.00     0.170 C 
HETATM    5  N   UNL     1      42.243 -15.834   2.762  1.00  0.00    -0.318 N 
HETATM    6  C   UNL     1      40.948 -15.788   2.721  1.00  0.00     0.011 C 
HETATM    7  C   UNL     1      43.366 -16.075   3.687  1.00  0.00     0.168 C 
HETATM    8  S   UNL     1      41.734 -15.678   0.110  1.00  0.00    -0.086 SA
HETATM    9  C   UNL     1      40.372 -15.504   1.338  1.00  0.00     0.135 C 
HETATM   10  C   UNL     1      43.544 -17.570   3.641  1.00  0.00     0.069 C 
ENDROOT
BRANCH   6  11
HETATM   11  C   UNL     1      40.144 -16.233   3.906  1.00  0.00     0.156 C 
BRANCH  11  12
HETATM   12  C   UNL     1      40.049 -15.222   5.021  1.00  0.00     0.223 C 
HETATM   13  N   UNL     1      39.607 -13.970   4.653  1.00  0.00    -0.359 N 
HETATM   14  H   UNL     1      39.330 -13.781   3.692  1.00  0.00     0.162 HD
HETATM   15  O   UNL     1      40.385 -15.495   6.167  1.00  0.00    -0.273 OA
BRANCH  13  16
HETATM   16  C   UNL     1      39.416 -12.909   5.638  1.00  0.00     0.150 C 
BRANCH  16  17
HETATM   17  C   UNL     1      39.474 -11.511   4.996  1.00  0.00     0.254 C 
BRANCH  17  18
HETATM   18  N   UNL     1      40.088 -10.479   5.914  1.00  0.00    -0.070 N 
HETATM   19  H   UNL     1      40.942 -10.103   5.479  1.00  0.00     0.279 HD
HETATM   20  C   UNL     1      40.471 -11.017   7.289  1.00  0.00     0.235 C 
HETATM   21  C   UNL     1      39.453 -10.406   8.228  1.00  0.00     0.029 C 
HETATM   22  C   UNL     1      39.241  -9.026   7.644  1.00  0.00     0.029 C 
HETATM   23  C   UNL     1      39.158  -9.289   6.155  1.00  0.00     0.235 C 
ENDBRANCH  17  18
ENDBRANCH  16  17
ENDBRANCH  13  16
ENDBRANCH  11  12
ENDBRANCH   6  11
BRANCH   7  24
HETATM   24  C   UNL     1      43.603 -15.256   4.951  1.00  0.00    -0.009 A 
HETATM   25  C   UNL     1      43.346 -13.884   5.147  1.00  0.00     0.042 A 
HETATM   26 CL   UNL     1      42.707 -12.844   3.927  1.00  0.00    -0.084 Cl
HETATM   27  C   UNL     1      43.697 -13.241   6.345  1.00  0.00     0.024 A 
HETATM   28  C   UNL     1      44.377 -13.920   7.351  1.00  0.00     0.002 A 
HETATM   29  C   UNL     1      44.735 -15.243   7.152  1.00  0.00     0.001 A 
HETATM   30  C   UNL     1      44.368 -15.889   5.970  1.00  0.00     0.011 A 
ENDBRANCH   7  24
BRANCH  10  31
HETATM   31  C   UNL     1      42.924 -18.417   4.690  1.00  0.00     0.294 C 
HETATM   32  O   UNL     1      41.742 -18.296   4.985  1.00  0.00    -0.259 OA
BRANCH  31  33
HETATM   33  O   UNL     1      43.852 -19.066   5.412  1.00  0.00    -0.313 OA
BRANCH  33  34
HETATM   34  C   UNL     1      43.420 -19.719   6.627  1.00  0.00     0.124 C 
HETATM   35  C   UNL     1      43.863 -21.172   6.592  1.00  0.00     0.040 C 
HETATM   36  C   UNL     1      44.052 -18.973   7.797  1.00  0.00     0.040 C 
ENDBRANCH  33  34
ENDBRANCH  31  33
ENDBRANCH  10  31
TORSDOF 9
ENDMDL
MODEL 10
REMARK VINA RESULT:      -6.5      3.293      7.483
REMARK  9 active torsions:
REMARK  status: ('A' for Active; 'I' for Inactive)
REMARK    1  A    between atoms: C_6  and  C_7 
REMARK    2  A    between atoms: C_7  and  C_8 
REMARK       I    between atoms: C_8  and  N_9 
REMARK    3  A    between atoms: N_9  and  C_10 
REMARK    4  A    between atoms: C_10  and  C_11 
REMARK    5  A    between atoms: C_11  and  N_12 
REMARK    6  A    between atoms: C_19  and  C_20 
REMARK    7  A    between atoms: C_29  and  C_30 
REMARK    8  A    between atoms: C_30  and  O_31 
REMARK    9  A    between atoms: O_31  and  C_32 
ROOT
HETATM    1  C   UNL     1      37.132 -10.241   1.317  1.00  0.00     0.071 C 
HETATM    2  C   UNL     1      38.504 -10.849   1.135  1.00  0.00     0.048 C 
HETATM    3  N   UNL     1      39.433 -10.434   2.104  1.00  0.00    -0.229 NA
HETATM    4  C   UNL     1      40.301 -11.325   2.466  1.00  0.00     0.170 C 
HETATM    5  N   UNL     1      40.486 -12.662   1.672  1.00  0.00    -0.318 N 
HETATM    6  C   UNL     1      40.388 -13.622   2.537  1.00  0.00     0.011 C 
HETATM    7  C   UNL     1      40.210 -12.341   0.259  1.00  0.00     0.168 C 
HETATM    8  S   UNL     1      41.066 -11.424   4.006  1.00  0.00    -0.086 SA
HETATM    9  C   UNL     1      40.853 -13.253   3.941  1.00  0.00     0.135 C 
HETATM   10  C   UNL     1      38.780 -11.870   0.277  1.00  0.00     0.069 C 
ENDROOT
BRANCH   6  11
HETATM   11  C   UNL     1      39.643 -14.876   2.185  1.00  0.00     0.156 C 
BRANCH  11  12
HETATM   12  C   UNL     1      40.448 -16.145   2.308  1.00  0.00     0.223 C 
HETATM   13  N   UNL     1      40.757 -16.531   3.595  1.00  0.00    -0.359 N 
HETATM   14  H   UNL     1      40.415 -15.998   4.391  1.00  0.00     0.162 HD
HETATM   15  O   UNL     1      40.831 -16.761   1.322  1.00  0.00    -0.273 OA
BRANCH  13  16
HETATM   16  C   UNL     1      41.485 -17.768   3.865  1.00  0.00     0.150 C 
BRANCH  16  17
HETATM   17  C   UNL     1      42.810 -17.506   4.604  1.00  0.00     0.254 C 
BRANCH  17  18
HETATM   18  N   UNL     1      44.000 -18.097   3.884  1.00  0.00    -0.070 N 
HETATM   19  H   UNL     1      44.811 -17.473   4.001  1.00  0.00     0.279 HD
HETATM   20  C   UNL     1      43.786 -18.297   2.388  1.00  0.00     0.235 C 
HETATM   21  C   UNL     1      43.671 -19.798   2.223  1.00  0.00     0.029 C 
HETATM   22  C   UNL     1      44.661 -20.326   3.239  1.00  0.00     0.029 C 
HETATM   23  C   UNL     1      44.406 -19.456   4.453  1.00  0.00     0.235 C 
ENDBRANCH  17  18
ENDBRANCH  16  17
ENDBRANCH  13  16
ENDBRANCH  11  12
ENDBRANCH   6  11
BRANCH   7  24
HETATM   24  C   UNL     1      40.804 -13.120  -0.910  1.00  0.00    -0.009 A 
HETATM   25  C   UNL     1      41.587 -12.617  -1.968  1.00  0.00     0.042 A 
HETATM   26 CL   UNL     1      42.011 -10.953  -2.140  1.00  0.00    -0.084 Cl
HETATM   27  C   UNL     1      41.997 -13.443  -3.028  1.00  0.00     0.024 A 
HETATM   28  C   UNL     1      41.581 -14.768  -3.107  1.00  0.00     0.002 A 
HETATM   29  C   UNL     1      40.729 -15.268  -2.137  1.00  0.00     0.001 A 
HETATM   30  C   UNL     1      40.338 -14.455  -1.072  1.00  0.00     0.011 A 
ENDBRANCH   7  24
BRANCH  10  31
HETATM   31  C   UNL     1      37.688 -12.816  -0.062  1.00  0.00     0.294 C 
HETATM   32  O   UNL     1      37.229 -13.580   0.777  1.00  0.00    -0.259 OA
BRANCH  31  33
HETATM   33  O   UNL     1      37.509 -12.907  -1.390  1.00  0.00    -0.313 OA
BRANCH  33  34
HETATM   34  C   UNL     1      37.555 -11.683  -2.158  1.00  0.00     0.124 C 
HETATM   35  C   UNL     1      38.228 -11.961  -3.491  1.00  0.00     0.040 C 
HETATM   36  C   UNL     1      36.119 -11.208  -2.347  1.00  0.00     0.040 C 
ENDBRANCH  33  34
ENDBRANCH  31  33
ENDBRANCH  10  31
TORSDOF 9
ENDMDL
