MODEL 1
REMARK VINA RESULT:      -7.8      0.000      0.000
REMARK  3 active torsions:
REMARK  status: ('A' for Active; 'I' for Inactive)
REMARK    1  A    between atoms: C_2  and  N_3 
REMARK    2  A    between atoms: N_10  and  C_11 
REMARK    3  A    between atoms: C_11  and  C_12 
ROOT
HETATM    1  N   UNL     1      40.535 -13.844   4.458  1.00  0.00    -0.063 N 
HETATM    2  H   UNL     1      39.641 -13.714   4.951  1.00  0.00     0.280 HD
HETATM    3  C   UNL     1      40.514 -15.314   4.018  1.00  0.00     0.277 C 
HETATM    4  C   UNL     1      41.845 -15.906   3.455  1.00  0.00     0.132 C 
HETATM    5  O   UNL     1      42.376 -15.065   2.411  1.00  0.00    -0.373 OA
HETATM    6  C   UNL     1      41.844 -15.358   1.113  1.00  0.00     0.199 C 
HETATM    7  C   UNL     1      42.172 -16.784   0.644  1.00  0.00     0.299 C 
HETATM    8  N   UNL     1      42.317 -17.775   1.727  1.00  0.00     0.097 N 
HETATM    9  C   UNL     1      41.537 -17.351   2.903  1.00  0.00     0.314 C 
HETATM   10  C   UNL     1      42.874 -16.042   4.610  1.00  0.00     0.209 C 
HETATM   11  O   UNL     1      43.612 -14.902   5.026  1.00  0.00    -0.386 OA
HETATM   12  C   UNL     1      43.005 -13.624   4.998  1.00  0.00     0.195 C 
HETATM   13  C   UNL     1      41.579 -13.588   5.539  1.00  0.00     0.261 C 
ENDROOT
BRANCH   1  14
HETATM   14  C   UNL     1      40.476 -12.803   3.317  1.00  0.00     0.180 C 
HETATM   15  C   UNL     1      40.340 -11.383   3.877  1.00  0.00     0.039 C 
HETATM   16  C   UNL     1      39.266 -13.085   2.422  1.00  0.00     0.039 C 
ENDBRANCH   1  14
BRANCH   8  17
HETATM   17  C   UNL     1      43.736 -18.034   2.035  1.00  0.00     0.311 C 
BRANCH  17  18
HETATM   18  C   UNL     1      44.008 -19.452   2.497  1.00  0.00    -0.030 A 
HETATM   19  C   UNL     1      44.515 -19.687   3.787  1.00  0.00     0.012 A 
HETATM   20  C   UNL     1      44.776 -20.988   4.218  1.00  0.00     0.043 A 
HETATM   21  C   UNL     1      44.524 -22.055   3.366  1.00  0.00     0.116 A 
HETATM   22  F   UNL     1      44.782 -23.303   3.779  1.00  0.00    -0.206 F 
HETATM   23  C   UNL     1      44.014 -21.847   2.091  1.00  0.00     0.043 A 
HETATM   24  C   UNL     1      43.752 -20.547   1.656  1.00  0.00     0.012 A 
ENDBRANCH  17  18
ENDBRANCH   8  17
TORSDOF 3
ENDMDL
MODEL 2
REMARK VINA RESULT:      -7.5      1.750      2.445
REMARK  3 active torsions:
REMARK  status: ('A' for Active; 'I' for Inactive)
REMARK    1  A    between atoms: C_2  and  N_3 
REMARK    2  A    between atoms: N_10  and  C_11 
REMARK    3  A    between atoms: C_11  and  C_12 
ROOT
HETATM    1  N   UNL     1      41.219 -12.342   5.002  1.00  0.00    -0.063 N 
HETATM    2  H   UNL     1      41.272 -11.615   5.729  1.00  0.00     0.280 HD
HETATM    3  C   UNL     1      42.171 -13.441   5.495  1.00  0.00     0.277 C 
HETATM    4  C   UNL     1      42.515 -14.585   4.491  1.00  0.00     0.132 C 
HETATM    5  O   UNL     1      41.312 -15.159   3.939  1.00  0.00    -0.373 OA
HETATM    6  C   UNL     1      40.752 -16.203   4.745  1.00  0.00     0.199 C 
HETATM    7  C   UNL     1      41.698 -17.405   4.900  1.00  0.00     0.299 C 
HETATM    8  N   UNL     1      43.135 -17.074   4.846  1.00  0.00     0.097 N 
HETATM    9  C   UNL     1      43.345 -15.678   5.268  1.00  0.00     0.314 C 
HETATM   10  C   UNL     1      43.410 -14.020   3.355  1.00  0.00     0.209 C 
HETATM   11  O   UNL     1      42.809 -13.319   2.277  1.00  0.00    -0.386 OA
HETATM   12  C   UNL     1      41.668 -12.514   2.510  1.00  0.00     0.195 C 
HETATM   13  C   UNL     1      41.754 -11.641   3.758  1.00  0.00     0.261 C 
ENDROOT
BRANCH   1  14
HETATM   14  C   UNL     1      39.721 -12.719   4.971  1.00  0.00     0.180 C 
HETATM   15  C   UNL     1      38.869 -11.542   4.485  1.00  0.00     0.039 C 
HETATM   16  C   UNL     1      39.254 -13.099   6.380  1.00  0.00     0.039 C 
ENDBRANCH   1  14
BRANCH   8  17
HETATM   17  C   UNL     1      43.706 -17.371   3.519  1.00  0.00     0.311 C 
BRANCH  17  18
HETATM   18  C   UNL     1      43.943 -18.848   3.277  1.00  0.00    -0.030 A 
HETATM   19  C   UNL     1      44.595 -19.625   4.250  1.00  0.00     0.012 A 
HETATM   20  C   UNL     1      44.826 -20.984   4.032  1.00  0.00     0.043 A 
HETATM   21  C   UNL     1      44.398 -21.570   2.848  1.00  0.00     0.116 A 
HETATM   22  F   UNL     1      44.626 -22.873   2.638  1.00  0.00    -0.206 F 
HETATM   23  C   UNL     1      43.744 -20.823   1.877  1.00  0.00     0.043 A 
HETATM   24  C   UNL     1      43.512 -19.464   2.091  1.00  0.00     0.012 A 
ENDBRANCH  17  18
ENDBRANCH   8  17
TORSDOF 3
ENDMDL
MODEL 3
REMARK VINA RESULT:      -7.3      1.520      2.799
REMARK  3 active torsions:
REMARK  status: ('A' for Active; 'I' for Inactive)
REMARK    1  A    between atoms: C_2  and  N_3 
REMARK    2  A    between atoms: N_10  and  C_11 
REMARK    3  A    between atoms: C_11  and  C_12 
ROOT
HETATM    1  N   UNL     1      40.798 -12.724   1.966  1.00  0.00    -0.063 N 
HETATM    2  H   UNL     1      41.109 -11.746   2.038  1.00  0.00     0.280 HD
HETATM    3  C   UNL     1      42.049 -13.544   2.310  1.00  0.00     0.277 C 
HETATM    4  C   UNL     1      41.985 -15.082   2.049  1.00  0.00     0.132 C 
HETATM    5  O   UNL     1      40.811 -15.655   2.660  1.00  0.00    -0.373 OA
HETATM    6  C   UNL     1      41.001 -16.023   4.032  1.00  0.00     0.199 C 
HETATM    7  C   UNL     1      42.079 -17.104   4.213  1.00  0.00     0.299 C 
HETATM    8  N   UNL     1      43.151 -17.087   3.200  1.00  0.00     0.097 N 
HETATM    9  C   UNL     1      43.294 -15.730   2.643  1.00  0.00     0.314 C 
HETATM   10  C   UNL     1      41.973 -15.341   0.517  1.00  0.00     0.209 C 
HETATM   11  O   UNL     1      40.756 -15.215  -0.202  1.00  0.00    -0.386 OA
HETATM   12  C   UNL     1      39.811 -14.234   0.181  1.00  0.00     0.195 C 
HETATM   13  C   UNL     1      40.410 -12.867   0.498  1.00  0.00     0.261 C 
ENDROOT
BRANCH   1  14
HETATM   14  C   UNL     1      39.638 -12.815   2.983  1.00  0.00     0.180 C 
HETATM   15  C   UNL     1      38.525 -11.822   2.634  1.00  0.00     0.039 C 
HETATM   16  C   UNL     1      40.153 -12.484   4.387  1.00  0.00     0.039 C 
ENDBRANCH   1  14
BRANCH   8  17
HETATM   17  C   UNL     1      42.932 -18.117   2.166  1.00  0.00     0.311 C 
BRANCH  17  18
HETATM   18  C   UNL     1      43.508 -19.472   2.529  1.00  0.00    -0.030 A 
HETATM   19  C   UNL     1      44.251 -19.626   3.713  1.00  0.00     0.012 A 
HETATM   20  C   UNL     1      44.792 -20.867   4.051  1.00  0.00     0.043 A 
HETATM   21  C   UNL     1      44.584 -21.956   3.213  1.00  0.00     0.116 A 
HETATM   22  F   UNL     1      45.110 -23.145   3.535  1.00  0.00    -0.206 F 
HETATM   23  C   UNL     1      43.845 -21.828   2.044  1.00  0.00     0.043 A 
HETATM   24  C   UNL     1      43.304 -20.588   1.702  1.00  0.00     0.012 A 
ENDBRANCH  17  18
ENDBRANCH   8  17
TORSDOF 3
ENDMDL
MODEL 4
REMARK VINA RESULT:      -7.2      1.795      2.462
REMARK  3 active torsions:
REMARK  status: ('A' for Active; 'I' for Inactive)
REMARK    1  A    between atoms: C_2  and  N_3 
REMARK    2  A    between atoms: N_10  and  C_11 
REMARK    3  A    between atoms: C_11  and  C_12 
ROOT
HETATM    1  N   UNL     1      38.697 -13.491   1.517  1.00  0.00    -0.063 N 
HETATM    2  H   UNL     1      37.673 -13.450   1.434  1.00  0.00     0.280 HD
HETATM    3  C   UNL     1      38.994 -14.963   1.836  1.00  0.00     0.277 C 
HETATM    4  C   UNL     1      40.450 -15.316   2.273  1.00  0.00     0.132 C 
HETATM    5  O   UNL     1      41.407 -14.793   1.329  1.00  0.00    -0.373 OA
HETATM    6  C   UNL     1      41.660 -15.669   0.224  1.00  0.00     0.199 C 
HETATM    7  C   UNL     1      42.264 -17.014   0.657  1.00  0.00     0.299 C 
HETATM    8  N   UNL     1      41.867 -17.466   2.005  1.00  0.00     0.097 N 
HETATM    9  C   UNL     1      40.561 -16.886   2.364  1.00  0.00     0.314 C 
HETATM   10  C   UNL     1      40.717 -14.732   3.687  1.00  0.00     0.209 C 
HETATM   11  O   UNL     1      41.059 -13.361   3.823  1.00  0.00    -0.386 OA
HETATM   12  C   UNL     1      40.490 -12.405   2.948  1.00  0.00     0.195 C 
HETATM   13  C   UNL     1      38.995 -12.580   2.704  1.00  0.00     0.261 C 
ENDROOT
BRANCH   1  14
HETATM   14  C   UNL     1      39.195 -12.990   0.143  1.00  0.00     0.180 C 
HETATM   15  C   UNL     1      38.742 -11.550  -0.113  1.00  0.00     0.039 C 
HETATM   16  C   UNL     1      38.624 -13.878  -0.968  1.00  0.00     0.039 C 
ENDBRANCH   1  14
BRANCH   8  17
HETATM   17  C   UNL     1      42.920 -17.185   2.999  1.00  0.00     0.311 C 
BRANCH  17  18
HETATM   18  C   UNL     1      43.607 -18.431   3.523  1.00  0.00    -0.030 A 
HETATM   19  C   UNL     1      43.855 -18.572   4.900  1.00  0.00     0.012 A 
HETATM   20  C   UNL     1      44.495 -19.711   5.390  1.00  0.00     0.043 A 
HETATM   21  C   UNL     1      44.880 -20.713   4.508  1.00  0.00     0.116 A 
HETATM   22  F   UNL     1      45.500 -21.803   4.980  1.00  0.00    -0.206 F 
HETATM   23  C   UNL     1      44.637 -20.599   3.146  1.00  0.00     0.043 A 
HETATM   24  C   UNL     1      43.997 -19.461   2.652  1.00  0.00     0.012 A 
ENDBRANCH  17  18
ENDBRANCH   8  17
TORSDOF 3
ENDMDL
MODEL 5
REMARK VINA RESULT:      -7.2      1.716      3.167
REMARK  3 active torsions:
REMARK  status: ('A' for Active; 'I' for Inactive)
REMARK    1  A    between atoms: C_2  and  N_3 
REMARK    2  A    between atoms: N_10  and  C_11 
REMARK    3  A    between atoms: C_11  and  C_12 
ROOT
HETATM    1  N   UNL     1      40.868 -12.660   2.482  1.00  0.00    -0.063 N 
HETATM    2  H   UNL     1      41.271 -11.887   1.936  1.00  0.00     0.280 HD
HETATM    3  C   UNL     1      42.057 -13.592   2.754  1.00  0.00     0.277 C 
HETATM    4  C   UNL     1      41.736 -14.997   3.352  1.00  0.00     0.132 C 
HETATM    5  O   UNL     1      40.902 -14.875   4.523  1.00  0.00    -0.373 OA
HETATM    6  C   UNL     1      41.640 -14.667   5.733  1.00  0.00     0.199 C 
HETATM    7  C   UNL     1      42.578 -15.838   6.067  1.00  0.00     0.299 C 
HETATM    8  N   UNL     1      43.089 -16.575   4.895  1.00  0.00     0.097 N 
HETATM    9  C   UNL     1      43.103 -15.694   3.714  1.00  0.00     0.314 C 
HETATM   10  C   UNL     1      41.025 -15.863   2.276  1.00  0.00     0.209 C 
HETATM   11  O   UNL     1      39.634 -15.693   2.051  1.00  0.00    -0.386 OA
HETATM   12  C   UNL     1      39.054 -14.408   2.171  1.00  0.00     0.195 C 
HETATM   13  C   UNL     1      39.861 -13.286   1.524  1.00  0.00     0.261 C 
ENDROOT
BRANCH   1  14
HETATM   14  C   UNL     1      40.271 -11.958   3.723  1.00  0.00     0.180 C 
HETATM   15  C   UNL     1      39.198 -10.943   3.316  1.00  0.00     0.039 C 
HETATM   16  C   UNL     1      41.377 -11.211   4.476  1.00  0.00     0.039 C 
ENDBRANCH   1  14
BRANCH   8  17
HETATM   17  C   UNL     1      42.340 -17.827   4.676  1.00  0.00     0.311 C 
BRANCH  17  18
HETATM   18  C   UNL     1      43.125 -18.879   3.919  1.00  0.00    -0.030 A 
HETATM   19  C   UNL     1      42.810 -19.165   2.579  1.00  0.00     0.012 A 
HETATM   20  C   UNL     1      43.521 -20.138   1.877  1.00  0.00     0.043 A 
HETATM   21  C   UNL     1      44.553 -20.821   2.509  1.00  0.00     0.116 A 
HETATM   22  F   UNL     1      45.231 -21.760   1.836  1.00  0.00    -0.206 F 
HETATM   23  C   UNL     1      44.887 -20.549   3.829  1.00  0.00     0.043 A 
HETATM   24  C   UNL     1      44.178 -19.576   4.534  1.00  0.00     0.012 A 
ENDBRANCH  17  18
ENDBRANCH   8  17
TORSDOF 3
ENDMDL
MODEL 6
REMARK VINA RESULT:      -7.1      2.223      3.509
REMARK  3 active torsions:
REMARK  status: ('A' for Active; 'I' for Inactive)
REMARK    1  A    between atoms: C_2  and  N_3 
REMARK    2  A    between atoms: N_10  and  C_11 
REMARK    3  A    between atoms: C_11  and  C_12 
ROOT
HETATM    1  N   UNL     1      40.332 -13.379  -0.158  1.00  0.00    -0.063 N 
HETATM    2  H   UNL     1      40.350 -13.154  -1.162  1.00  0.00     0.280 HD
HETATM    3  C   UNL     1      41.436 -14.431   0.015  1.00  0.00     0.277 C 
HETATM    4  C   UNL     1      41.503 -15.172   1.387  1.00  0.00     0.132 C 
HETATM    5  O   UNL     1      41.520 -14.227   2.477  1.00  0.00    -0.373 OA
HETATM    6  C   UNL     1      42.833 -13.757   2.807  1.00  0.00     0.199 C 
HETATM    7  C   UNL     1      43.766 -14.884   3.279  1.00  0.00     0.299 C 
HETATM    8  N   UNL     1      43.478 -16.210   2.701  1.00  0.00     0.097 N 
HETATM    9  C   UNL     1      42.809 -16.055   1.397  1.00  0.00     0.314 C 
HETATM   10  C   UNL     1      40.281 -16.121   1.519  1.00  0.00     0.209 C 
HETATM   11  O   UNL     1      39.026 -15.590   1.920  1.00  0.00    -0.386 OA
HETATM   12  C   UNL     1      38.651 -14.288   1.513  1.00  0.00     0.195 C 
HETATM   13  C   UNL     1      38.942 -13.973   0.049  1.00  0.00     0.261 C 
ENDROOT
BRANCH   1  14
HETATM   14  C   UNL     1      40.592 -12.018   0.526  1.00  0.00     0.180 C 
HETATM   15  C   UNL     1      39.529 -10.990   0.124  1.00  0.00     0.039 C 
HETATM   16  C   UNL     1      41.962 -11.481   0.103  1.00  0.00     0.039 C 
ENDBRANCH   1  14
BRANCH   8  17
HETATM   17  C   UNL     1      42.720 -17.056   3.644  1.00  0.00     0.311 C 
BRANCH  17  18
HETATM   18  C   UNL     1      43.442 -18.333   4.027  1.00  0.00    -0.030 A 
HETATM   19  C   UNL     1      43.970 -19.170   3.029  1.00  0.00     0.012 A 
HETATM   20  C   UNL     1      44.628 -20.352   3.372  1.00  0.00     0.043 A 
HETATM   21  C   UNL     1      44.766 -20.694   4.711  1.00  0.00     0.116 A 
HETATM   22  F   UNL     1      45.393 -21.832   5.038  1.00  0.00    -0.206 F 
HETATM   23  C   UNL     1      44.261 -19.877   5.714  1.00  0.00     0.043 A 
HETATM   24  C   UNL     1      43.602 -18.695   5.374  1.00  0.00     0.012 A 
ENDBRANCH  17  18
ENDBRANCH   8  17
TORSDOF 3
ENDMDL
MODEL 7
REMARK VINA RESULT:      -7.0      3.922      6.686
REMARK  3 active torsions:
REMARK  status: ('A' for Active; 'I' for Inactive)
REMARK    1  A    between atoms: C_2  and  N_3 
REMARK    2  A    between atoms: N_10  and  C_11 
REMARK    3  A    between atoms: C_11  and  C_12 
ROOT
HETATM    1  N   UNL     1      42.342 -17.579   4.066  1.00  0.00    -0.063 N 
HETATM    2  H   UNL     1      41.783 -18.100   4.755  1.00  0.00     0.280 HD
HETATM    3  C   UNL     1      41.309 -16.761   3.280  1.00  0.00     0.277 C 
HETATM    4  C   UNL     1      41.806 -16.044   1.986  1.00  0.00     0.132 C 
HETATM    5  O   UNL     1      42.983 -15.256   2.258  1.00  0.00    -0.373 OA
HETATM    6  C   UNL     1      42.692 -13.934   2.729  1.00  0.00     0.199 C 
HETATM    7  C   UNL     1      41.915 -13.096   1.702  1.00  0.00     0.299 C 
HETATM    8  N   UNL     1      41.039 -13.871   0.804  1.00  0.00     0.097 N 
HETATM    9  C   UNL     1      40.635 -15.128   1.459  1.00  0.00     0.314 C 
HETATM   10  C   UNL     1      42.112 -17.107   0.896  1.00  0.00     0.209 C 
HETATM   11  O   UNL     1      43.349 -17.803   0.928  1.00  0.00    -0.386 OA
HETATM   12  C   UNL     1      43.941 -18.127   2.172  1.00  0.00     0.195 C 
HETATM   13  C   UNL     1      42.969 -18.676   3.212  1.00  0.00     0.261 C 
ENDROOT
BRANCH   1  14
HETATM   14  C   UNL     1      43.322 -16.760   4.937  1.00  0.00     0.180 C 
HETATM   15  C   UNL     1      44.208 -17.682   5.780  1.00  0.00     0.039 C 
HETATM   16  C   UNL     1      42.535 -15.851   5.885  1.00  0.00     0.039 C 
ENDBRANCH   1  14
BRANCH   8  17
HETATM   17  C   UNL     1      41.667 -14.081  -0.514  1.00  0.00     0.311 C 
BRANCH  17  18
HETATM   18  C   UNL     1      40.683 -14.469  -1.600  1.00  0.00    -0.030 A 
HETATM   19  C   UNL     1      39.515 -13.711  -1.796  1.00  0.00     0.012 A 
HETATM   20  C   UNL     1      38.600 -14.066  -2.787  1.00  0.00     0.043 A 
HETATM   21  C   UNL     1      38.852 -15.172  -3.588  1.00  0.00     0.116 A 
HETATM   22  F   UNL     1      37.969 -15.516  -4.535  1.00  0.00    -0.206 F 
HETATM   23  C   UNL     1      40.003 -15.930  -3.418  1.00  0.00     0.043 A 
HETATM   24  C   UNL     1      40.921 -15.578  -2.427  1.00  0.00     0.012 A 
ENDBRANCH  17  18
ENDBRANCH   8  17
TORSDOF 3
ENDMDL
MODEL 8
REMARK VINA RESULT:      -6.8      1.836      2.898
REMARK  3 active torsions:
REMARK  status: ('A' for Active; 'I' for Inactive)
REMARK    1  A    between atoms: C_2  and  N_3 
REMARK    2  A    between atoms: N_10  and  C_11 
REMARK    3  A    between atoms: C_11  and  C_12 
ROOT
HETATM    1  N   UNL     1      39.655 -12.821   1.948  1.00  0.00    -0.063 N 
HETATM    2  H   UNL     1      38.899 -12.161   2.173  1.00  0.00     0.280 HD
HETATM    3  C   UNL     1      39.877 -13.603   3.250  1.00  0.00     0.277 C 
HETATM    4  C   UNL     1      41.137 -14.521   3.322  1.00  0.00     0.132 C 
HETATM    5  O   UNL     1      41.194 -15.400   2.180  1.00  0.00    -0.373 OA
HETATM    6  C   UNL     1      40.454 -16.615   2.355  1.00  0.00     0.199 C 
HETATM    7  C   UNL     1      40.986 -17.475   3.511  1.00  0.00     0.299 C 
HETATM    8  N   UNL     1      41.612 -16.716   4.611  1.00  0.00     0.097 N 
HETATM    9  C   UNL     1      41.055 -15.352   4.660  1.00  0.00     0.314 C 
HETATM   10  C   UNL     1      42.413 -13.637   3.383  1.00  0.00     0.209 C 
HETATM   11  O   UNL     1      42.939 -13.089   2.184  1.00  0.00    -0.386 OA
HETATM   12  C   UNL     1      42.060 -12.689   1.148  1.00  0.00     0.195 C 
HETATM   13  C   UNL     1      40.835 -11.913   1.621  1.00  0.00     0.261 C 
ENDROOT
BRANCH   1  14
HETATM   14  C   UNL     1      39.086 -13.638   0.765  1.00  0.00     0.180 C 
HETATM   15  C   UNL     1      38.765 -12.729  -0.425  1.00  0.00     0.039 C 
HETATM   16  C   UNL     1      37.794 -14.340   1.196  1.00  0.00     0.039 C 
ENDBRANCH   1  14
BRANCH   8  17
HETATM   17  C   UNL     1      43.083 -16.738   4.513  1.00  0.00     0.311 C 
BRANCH  17  18
HETATM   18  C   UNL     1      43.631 -18.014   3.905  1.00  0.00    -0.030 A 
HETATM   19  C   UNL     1      43.799 -18.114   2.513  1.00  0.00     0.012 A 
HETATM   20  C   UNL     1      44.295 -19.287   1.943  1.00  0.00     0.043 A 
HETATM   21  C   UNL     1      44.630 -20.357   2.762  1.00  0.00     0.116 A 
HETATM   22  F   UNL     1      45.100 -21.486   2.213  1.00  0.00    -0.206 F 
HETATM   23  C   UNL     1      44.482 -20.277   4.141  1.00  0.00     0.043 A 
HETATM   24  C   UNL     1      43.986 -19.105   4.714  1.00  0.00     0.012 A 
ENDBRANCH  17  18
ENDBRANCH   8  17
TORSDOF 3
ENDMDL
MODEL 9
REMARK VINA RESULT:      -6.6      2.202      2.969
REMARK  3 active torsions:
REMARK  status: ('A' for Active; 'I' for Inactive)
REMARK    1  A    between atoms: C_2  and  N_3 
REMARK    2  A    between atoms: N_10  and  C_11 
REMARK    3  A    between atoms: C_11  and  C_12 
ROOT
HETATM    1  N   UNL     1      40.888 -14.151   1.946  1.00  0.00    -0.063 N 
HETATM    2  H   UNL     1      39.895 -13.895   1.873  1.00  0.00     0.280 HD
HETATM    3  C   UNL     1      40.870 -15.610   2.424  1.00  0.00     0.277 C 
HETATM    4  C   UNL     1      42.230 -16.226   2.878  1.00  0.00     0.132 C 
HETATM    5  O   UNL     1      43.242 -16.029   1.870  1.00  0.00    -0.373 OA
HETATM    6  C   UNL     1      43.257 -17.051   0.865  1.00  0.00     0.199 C 
HETATM    7  C   UNL     1      43.571 -18.442   1.438  1.00  0.00     0.299 C 
HETATM    8  N   UNL     1      43.136 -18.651   2.832  1.00  0.00     0.097 N 
HETATM    9  C   UNL     1      42.000 -17.763   3.142  1.00  0.00     0.314 C 
HETATM   10  C   UNL     1      42.669 -15.569   4.215  1.00  0.00     0.209 C 
HETATM   11  O   UNL     1      43.306 -14.300   4.193  1.00  0.00    -0.386 OA
HETATM   12  C   UNL     1      42.926 -13.340   3.225  1.00  0.00     0.195 C 
HETATM   13  C   UNL     1      41.420 -13.208   3.021  1.00  0.00     0.261 C 
ENDROOT
BRANCH   1  14
HETATM   14  C   UNL     1      41.432 -13.920   0.518  1.00  0.00     0.180 C 
HETATM   15  C   UNL     1      41.259 -12.458   0.095  1.00  0.00     0.039 C 
HETATM   16  C   UNL     1      40.666 -14.801  -0.474  1.00  0.00     0.039 C 
ENDBRANCH   1  14
BRANCH   8  17
HETATM   17  C   UNL     1      44.260 -18.505   3.776  1.00  0.00     0.311 C 
BRANCH  17  18
HETATM   18  C   UNL     1      44.060 -19.256   5.078  1.00  0.00    -0.030 A 
HETATM   19  C   UNL     1      44.264 -20.646   5.127  1.00  0.00     0.012 A 
HETATM   20  C   UNL     1      44.074 -21.347   6.318  1.00  0.00     0.043 A 
HETATM   21  C   UNL     1      43.689 -20.661   7.462  1.00  0.00     0.116 A 
HETATM   22  F   UNL     1      43.501 -21.336   8.604  1.00  0.00    -0.206 F 
HETATM   23  C   UNL     1      43.491 -19.286   7.439  1.00  0.00     0.043 A 
HETATM   24  C   UNL     1      43.680 -18.582   6.249  1.00  0.00     0.012 A 
ENDBRANCH  17  18
ENDBRANCH   8  17
TORSDOF 3
ENDMDL
MODEL 10
REMARK VINA RESULT:      -6.6      3.017      4.503
REMARK  3 active torsions:
REMARK  status: ('A' for Active; 'I' for Inactive)
REMARK    1  A    between atoms: C_2  and  N_3 
REMARK    2  A    between atoms: N_10  and  C_11 
REMARK    3  A    between atoms: C_11  and  C_12 
ROOT
HETATM    1  N   UNL     1      40.530 -13.757  -0.682  1.00  0.00    -0.063 N 
HETATM    2  H   UNL     1      40.672 -13.884  -1.693  1.00  0.00     0.280 HD
HETATM    3  C   UNL     1      41.412 -14.835  -0.037  1.00  0.00     0.277 C 
HETATM    4  C   UNL     1      41.232 -15.078   1.494  1.00  0.00     0.132 C 
HETATM    5  O   UNL     1      41.324 -13.836   2.223  1.00  0.00    -0.373 OA
HETATM    6  C   UNL     1      42.666 -13.470   2.566  1.00  0.00     0.199 C 
HETATM    7  C   UNL     1      43.343 -14.493   3.491  1.00  0.00     0.299 C 
HETATM    8  N   UNL     1      42.875 -15.883   3.327  1.00  0.00     0.097 N 
HETATM    9  C   UNL     1      42.357 -16.080   1.961  1.00  0.00     0.314 C 
HETATM   10  C   UNL     1      39.855 -15.748   1.749  1.00  0.00     0.209 C 
HETATM   11  O   UNL     1      38.684 -14.946   1.786  1.00  0.00    -0.386 OA
HETATM   12  C   UNL     1      38.580 -13.814   0.943  1.00  0.00     0.195 C 
HETATM   13  C   UNL     1      39.045 -14.049  -0.491  1.00  0.00     0.261 C 
ENDROOT
BRANCH   1  14
HETATM   14  C   UNL     1      40.967 -12.296  -0.433  1.00  0.00     0.180 C 
HETATM   15  C   UNL     1      40.086 -11.319  -1.217  1.00  0.00     0.039 C 
HETATM   16  C   UNL     1      42.417 -12.106  -0.888  1.00  0.00     0.039 C 
ENDBRANCH   1  14
BRANCH   8  17
HETATM   17  C   UNL     1      41.904 -16.252   4.374  1.00  0.00     0.311 C 
BRANCH  17  18
HETATM   18  C   UNL     1      42.498 -17.102   5.480  1.00  0.00    -0.030 A 
HETATM   19  C   UNL     1      42.481 -16.642   6.808  1.00  0.00     0.012 A 
HETATM   20  C   UNL     1      43.034 -17.413   7.831  1.00  0.00     0.043 A 
HETATM   21  C   UNL     1      43.595 -18.647   7.531  1.00  0.00     0.116 A 
HETATM   22  F   UNL     1      44.131 -19.384   8.513  1.00  0.00    -0.206 F 
HETATM   23  C   UNL     1      43.614 -19.126   6.227  1.00  0.00     0.043 A 
HETATM   24  C   UNL     1      43.063 -18.357   5.201  1.00  0.00     0.012 A 
ENDBRANCH  17  18
ENDBRANCH   8  17
TORSDOF 3
ENDMDL
