MODEL 1
REMARK VINA RESULT:      -9.3      0.000      0.000
REMARK  6 active torsions:
REMARK  status: ('A' for Active; 'I' for Inactive)
REMARK    1  A    between atoms: C_2  and  O_3 
REMARK    2  A    between atoms: O_3  and  C_4 
REMARK    3  A    between atoms: C_4  and  C_5 
REMARK    4  A    between atoms: C_10  and  N_11 
REMARK       I    between atoms: N_11  and  C_12 
REMARK    5  A    between atoms: C_12  and  C_13 
REMARK    6  A    between atoms: C_13  and  N_14 
ROOT
HETATM    1  N   UNL     1      42.819 -17.119   3.821  1.00  0.00    -0.322 N 
HETATM    2  C   UNL     1      43.252 -16.358   2.758  1.00  0.00     0.253 C 
HETATM    3  O   UNL     1      44.144 -16.711   1.991  1.00  0.00    -0.271 OA
HETATM    4  H   UNL     1      41.874 -16.998   4.179  1.00  0.00     0.169 HD
ENDROOT
BRANCH   2   5
HETATM    5  C   UNL     1      42.557 -14.969   2.564  1.00  0.00     0.275 C 
HETATM    6  C   UNL     1      43.354 -13.812   3.190  1.00  0.00     0.050 C 
BRANCH   5   7
HETATM    7  N   UNL     1      41.073 -14.839   3.119  1.00  0.00    -0.058 N 
HETATM    8  H   UNL     1      41.139 -15.329   4.021  1.00  0.00     0.281 HD
HETATM    9  C   UNL     1      40.660 -13.407   3.458  1.00  0.00     0.246 C 
HETATM   10  C   UNL     1      39.924 -12.677   2.315  1.00  0.00     0.062 C 
HETATM   11  C   UNL     1      38.707 -13.486   1.886  1.00  0.00     0.020 C 
HETATM   12  C   UNL     1      40.840 -12.415   1.137  1.00  0.00     0.020 A 
HETATM   13  C   UNL     1      39.218 -14.808   1.330  1.00  0.00     0.031 C 
HETATM   14  C   UNL     1      40.032 -14.526   0.068  1.00  0.00     0.138 C 
HETATM   15  C   UNL     1      39.947 -15.591   2.428  1.00  0.00     0.242 C 
HETATM   16  N   UNL     1      40.945 -13.383   0.134  1.00  0.00    -0.317 N 
HETATM   17  C   UNL     1      41.792 -13.220  -0.974  1.00  0.00     0.247 A 
HETATM   18  O   UNL     1      41.912 -14.043  -1.876  1.00  0.00    -0.268 OA
HETATM   19  C   UNL     1      42.588 -11.970  -1.017  1.00  0.00     0.074 A 
HETATM   20  C   UNL     1      42.459 -11.059  -0.047  1.00  0.00     0.007 A 
HETATM   21  C   UNL     1      41.563 -11.283   1.055  1.00  0.00     0.026 A 
ENDBRANCH   5   7
ENDBRANCH   2   5
BRANCH   1  22
HETATM   22  C   UNL     1      43.435 -18.270   4.316  1.00  0.00     0.080 A 
HETATM   23  C   UNL     1      43.887 -18.313   5.630  1.00  0.00     0.137 A 
HETATM   24  N   UNL     1      44.435 -19.555   5.831  1.00  0.00    -0.349 N 
HETATM   25  H   UNL     1      44.835 -19.867   6.708  1.00  0.00     0.166 HD
HETATM   26  C   UNL     1      44.390 -20.302   4.681  1.00  0.00     0.045 A 
HETATM   27  C   UNL     1      43.776 -19.517   3.697  1.00  0.00     0.023 A 
HETATM   28  C   UNL     1      44.863 -21.601   4.449  1.00  0.00     0.033 A 
HETATM   29  C   UNL     1      43.676 -20.067   2.400  1.00  0.00     0.058 A 
HETATM   30  C   UNL     1      44.142 -21.361   2.162  1.00  0.00     0.117 A 
HETATM   31  C   UNL     1      44.722 -22.122   3.164  1.00  0.00     0.044 A 
HETATM   32  F   UNL     1      44.031 -21.878   0.930  1.00  0.00    -0.206 F 
BRANCH  23  33
HETATM   33  C   UNL     1      43.791 -17.286   6.638  1.00  0.00     0.312 C 
HETATM   34  O   UNL     1      43.221 -17.440   7.714  1.00  0.00    -0.258 OA
BRANCH  33  35
HETATM   35  O   UNL     1      44.423 -16.158   6.220  1.00  0.00    -0.317 OA
BRANCH  35  36
HETATM   36  C   UNL     1      43.906 -14.922   6.736  1.00  0.00     0.175 C 
HETATM   37  C   UNL     1      45.036 -13.937   6.972  1.00  0.00     0.034 C 
ENDBRANCH  35  36
ENDBRANCH  33  35
ENDBRANCH  23  33
ENDBRANCH   1  22
TORSDOF 6
ENDMDL
MODEL 2
REMARK VINA RESULT:      -8.9      2.086      3.423
REMARK  6 active torsions:
REMARK  status: ('A' for Active; 'I' for Inactive)
REMARK    1  A    between atoms: C_2  and  O_3 
REMARK    2  A    between atoms: O_3  and  C_4 
REMARK    3  A    between atoms: C_4  and  C_5 
REMARK    4  A    between atoms: C_10  and  N_11 
REMARK       I    between atoms: N_11  and  C_12 
REMARK    5  A    between atoms: C_12  and  C_13 
REMARK    6  A    between atoms: C_13  and  N_14 
ROOT
HETATM    1  N   UNL     1      40.826 -16.189   2.246  1.00  0.00    -0.322 N 
HETATM    2  C   UNL     1      41.198 -15.321   1.243  1.00  0.00     0.253 C 
HETATM    3  O   UNL     1      42.364 -15.143   0.899  1.00  0.00    -0.271 OA
HETATM    4  H   UNL     1      39.892 -16.595   2.244  1.00  0.00     0.169 HD
ENDROOT
BRANCH   2   5
HETATM    5  C   UNL     1      40.045 -14.528   0.542  1.00  0.00     0.275 C 
HETATM    6  C   UNL     1      38.717 -14.602   1.315  1.00  0.00     0.050 C 
BRANCH   5   7
HETATM    7  N   UNL     1      39.713 -14.943  -0.956  1.00  0.00    -0.058 N 
HETATM    8  H   UNL     1      39.261 -15.858  -0.830  1.00  0.00     0.281 HD
HETATM    9  C   UNL     1      38.664 -14.056  -1.628  1.00  0.00     0.246 C 
HETATM   10  C   UNL     1      39.257 -12.891  -2.450  1.00  0.00     0.062 C 
HETATM   11  C   UNL     1      40.226 -13.437  -3.490  1.00  0.00     0.020 C 
HETATM   12  C   UNL     1      39.937 -11.870  -1.563  1.00  0.00     0.020 A 
HETATM   13  C   UNL     1      41.373 -14.095  -2.736  1.00  0.00     0.031 C 
HETATM   14  C   UNL     1      42.123 -13.020  -1.950  1.00  0.00     0.138 C 
HETATM   15  C   UNL     1      40.849 -15.275  -1.910  1.00  0.00     0.242 C 
HETATM   16  N   UNL     1      41.291 -12.032  -1.258  1.00  0.00    -0.317 N 
HETATM   17  C   UNL     1      41.982 -11.139  -0.423  1.00  0.00     0.247 A 
HETATM   18  O   UNL     1      43.168 -11.245  -0.132  1.00  0.00    -0.268 OA
HETATM   19  C   UNL     1      41.190 -10.018   0.139  1.00  0.00     0.074 A 
HETATM   20  C   UNL     1      39.898  -9.883  -0.179  1.00  0.00     0.007 A 
HETATM   21  C   UNL     1      39.255 -10.828  -1.051  1.00  0.00     0.026 A 
ENDBRANCH   5   7
ENDBRANCH   2   5
BRANCH   1  22
HETATM   22  C   UNL     1      41.683 -16.823   3.147  1.00  0.00     0.080 A 
HETATM   23  C   UNL     1      41.905 -16.276   4.405  1.00  0.00     0.137 A 
HETATM   24  N   UNL     1      42.775 -17.110   5.063  1.00  0.00    -0.349 N 
HETATM   25  H   UNL     1      43.104 -16.959   6.009  1.00  0.00     0.166 HD
HETATM   26  C   UNL     1      43.155 -18.155   4.259  1.00  0.00     0.045 A 
HETATM   27  C   UNL     1      42.494 -18.001   3.033  1.00  0.00     0.023 A 
HETATM   28  C   UNL     1      44.043 -19.205   4.531  1.00  0.00     0.033 A 
HETATM   29  C   UNL     1      42.784 -18.939   2.019  1.00  0.00     0.058 A 
HETATM   30  C   UNL     1      43.665 -19.990   2.283  1.00  0.00     0.117 A 
HETATM   31  C   UNL     1      44.283 -20.129   3.515  1.00  0.00     0.044 A 
HETATM   32  F   UNL     1      43.924 -20.882   1.317  1.00  0.00    -0.206 F 
BRANCH  23  33
HETATM   33  C   UNL     1      41.329 -15.081   4.971  1.00  0.00     0.312 C 
HETATM   34  O   UNL     1      40.125 -14.920   5.138  1.00  0.00    -0.258 OA
BRANCH  33  35
HETATM   35  O   UNL     1      42.309 -14.194   5.288  1.00  0.00    -0.317 OA
BRANCH  35  36
HETATM   36  C   UNL     1      42.919 -13.511   4.182  1.00  0.00     0.175 C 
HETATM   37  C   UNL     1      41.919 -12.581   3.522  1.00  0.00     0.034 C 
ENDBRANCH  35  36
ENDBRANCH  33  35
ENDBRANCH  23  33
ENDBRANCH   1  22
TORSDOF 6
ENDMDL
MODEL 3
REMARK VINA RESULT:      -8.8      1.128      1.232
REMARK  6 active torsions:
REMARK  status: ('A' for Active; 'I' for Inactive)
REMARK    1  A    between atoms: C_2  and  O_3 
REMARK    2  A    between atoms: O_3  and  C_4 
REMARK    3  A    between atoms: C_4  and  C_5 
REMARK    4  A    between atoms: C_10  and  N_11 
REMARK       I    between atoms: N_11  and  C_12 
REMARK    5  A    between atoms: C_12  and  C_13 
REMARK    6  A    between atoms: C_13  and  N_14 
ROOT
HETATM    1  N   UNL     1      43.055 -16.075   4.018  1.00  0.00    -0.322 N 
HETATM    2  C   UNL     1      41.896 -15.956   3.284  1.00  0.00     0.253 C 
HETATM    3  O   UNL     1      41.081 -16.866   3.152  1.00  0.00    -0.271 OA
HETATM    4  H   UNL     1      43.488 -15.246   4.418  1.00  0.00     0.169 HD
ENDROOT
BRANCH   2   5
HETATM    5  C   UNL     1      41.651 -14.579   2.582  1.00  0.00     0.275 C 
HETATM    6  C   UNL     1      42.808 -13.587   2.798  1.00  0.00     0.050 C 
BRANCH   5   7
HETATM    7  N   UNL     1      40.321 -13.807   2.987  1.00  0.00    -0.058 N 
HETATM    8  H   UNL     1      40.273 -13.981   3.999  1.00  0.00     0.281 HD
HETATM    9  C   UNL     1      40.414 -12.289   2.834  1.00  0.00     0.246 C 
HETATM   10  C   UNL     1      39.894 -11.759   1.480  1.00  0.00     0.062 C 
HETATM   11  C   UNL     1      38.459 -12.221   1.263  1.00  0.00     0.020 C 
HETATM   12  C   UNL     1      40.780 -12.193   0.332  1.00  0.00     0.020 A 
HETATM   13  C   UNL     1      38.484 -13.741   1.181  1.00  0.00     0.031 C 
HETATM   14  C   UNL     1      39.276 -14.151  -0.060  1.00  0.00     0.138 C 
HETATM   15  C   UNL     1      38.977 -14.330   2.507  1.00  0.00     0.242 C 
HETATM   16  N   UNL     1      40.512 -13.407  -0.308  1.00  0.00    -0.317 N 
HETATM   17  C   UNL     1      41.305 -13.886  -1.363  1.00  0.00     0.247 A 
HETATM   18  O   UNL     1      41.104 -14.943  -1.952  1.00  0.00    -0.268 OA
HETATM   19  C   UNL     1      42.461 -13.042  -1.754  1.00  0.00     0.074 A 
HETATM   20  C   UNL     1      42.686 -11.882  -1.129  1.00  0.00     0.007 A 
HETATM   21  C   UNL     1      41.826 -11.444  -0.062  1.00  0.00     0.026 A 
ENDBRANCH   5   7
ENDBRANCH   2   5
BRANCH   1  22
HETATM   22  C   UNL     1      43.585 -17.258   4.536  1.00  0.00     0.080 A 
HETATM   23  C   UNL     1      44.023 -17.312   5.853  1.00  0.00     0.137 A 
HETATM   24  N   UNL     1      44.481 -18.586   6.078  1.00  0.00    -0.349 N 
HETATM   25  H   UNL     1      44.852 -18.911   6.963  1.00  0.00     0.166 HD
HETATM   26  C   UNL     1      44.394 -19.346   4.939  1.00  0.00     0.045 A 
HETATM   27  C   UNL     1      43.844 -18.536   3.937  1.00  0.00     0.023 A 
HETATM   28  C   UNL     1      44.777 -20.678   4.731  1.00  0.00     0.033 A 
HETATM   29  C   UNL     1      43.716 -19.097   2.648  1.00  0.00     0.058 A 
HETATM   30  C   UNL     1      44.092 -20.424   2.433  1.00  0.00     0.117 A 
HETATM   31  C   UNL     1      44.610 -21.208   3.452  1.00  0.00     0.044 A 
HETATM   32  F   UNL     1      43.956 -20.950   1.208  1.00  0.00    -0.206 F 
BRANCH  23  33
HETATM   33  C   UNL     1      43.990 -16.266   6.846  1.00  0.00     0.312 C 
HETATM   34  O   UNL     1      43.455 -16.386   7.943  1.00  0.00    -0.258 OA
BRANCH  33  35
HETATM   35  O   UNL     1      44.638 -15.163   6.386  1.00  0.00    -0.317 OA
BRANCH  35  36
HETATM   36  C   UNL     1      44.170 -13.904   6.892  1.00  0.00     0.175 C 
HETATM   37  C   UNL     1      45.201 -13.295   7.823  1.00  0.00     0.034 C 
ENDBRANCH  35  36
ENDBRANCH  33  35
ENDBRANCH  23  33
ENDBRANCH   1  22
TORSDOF 6
ENDMDL
MODEL 4
REMARK VINA RESULT:      -8.7      1.620      2.324
REMARK  6 active torsions:
REMARK  status: ('A' for Active; 'I' for Inactive)
REMARK    1  A    between atoms: C_2  and  O_3 
REMARK    2  A    between atoms: O_3  and  C_4 
REMARK    3  A    between atoms: C_4  and  C_5 
REMARK    4  A    between atoms: C_10  and  N_11 
REMARK       I    between atoms: N_11  and  C_12 
REMARK    5  A    between atoms: C_12  and  C_13 
REMARK    6  A    between atoms: C_13  and  N_14 
ROOT
HETATM    1  N   UNL     1      42.904 -16.595   3.616  1.00  0.00    -0.322 N 
HETATM    2  C   UNL     1      41.697 -16.533   2.956  1.00  0.00     0.253 C 
HETATM    3  O   UNL     1      40.854 -17.425   3.001  1.00  0.00    -0.271 OA
HETATM    4  H   UNL     1      43.385 -15.736   3.875  1.00  0.00     0.169 HD
ENDROOT
BRANCH   2   5
HETATM    5  C   UNL     1      41.432 -15.248   2.102  1.00  0.00     0.275 C 
HETATM    6  C   UNL     1      42.109 -15.303   0.721  1.00  0.00     0.050 C 
BRANCH   5   7
HETATM    7  N   UNL     1      41.864 -13.865   2.756  1.00  0.00    -0.058 N 
HETATM    8  H   UNL     1      42.705 -14.132   3.284  1.00  0.00     0.281 HD
HETATM    9  C   UNL     1      42.329 -12.818   1.743  1.00  0.00     0.246 C 
HETATM   10  C   UNL     1      41.218 -11.853   1.279  1.00  0.00     0.062 C 
HETATM   11  C   UNL     1      40.591 -11.171   2.488  1.00  0.00     0.020 C 
HETATM   12  C   UNL     1      40.165 -12.566   0.456  1.00  0.00     0.020 A 
HETATM   13  C   UNL     1      39.932 -12.258   3.327  1.00  0.00     0.031 C 
HETATM   14  C   UNL     1      38.790 -12.873   2.521  1.00  0.00     0.138 C 
HETATM   15  C   UNL     1      40.992 -13.243   3.834  1.00  0.00     0.242 C 
HETATM   16  N   UNL     1      39.070 -13.139   1.108  1.00  0.00    -0.317 N 
HETATM   17  C   UNL     1      38.068 -13.836   0.413  1.00  0.00     0.247 A 
HETATM   18  O   UNL     1      37.091 -14.352   0.946  1.00  0.00    -0.268 OA
HETATM   19  C   UNL     1      38.244 -13.951  -1.055  1.00  0.00     0.074 A 
HETATM   20  C   UNL     1      39.298 -13.385  -1.651  1.00  0.00     0.007 A 
HETATM   21  C   UNL     1      40.281 -12.673  -0.880  1.00  0.00     0.026 A 
ENDBRANCH   5   7
ENDBRANCH   2   5
BRANCH   1  22
HETATM   22  C   UNL     1      43.444 -17.719   4.243  1.00  0.00     0.080 A 
HETATM   23  C   UNL     1      43.802 -17.668   5.585  1.00  0.00     0.137 A 
HETATM   24  N   UNL     1      44.292 -18.905   5.923  1.00  0.00    -0.349 N 
HETATM   25  H   UNL     1      44.619 -19.157   6.848  1.00  0.00     0.166 HD
HETATM   26  C   UNL     1      44.302 -19.742   4.834  1.00  0.00     0.045 A 
HETATM   27  C   UNL     1      43.785 -19.022   3.749  1.00  0.00     0.023 A 
HETATM   28  C   UNL     1      44.745 -21.068   4.740  1.00  0.00     0.033 A 
HETATM   29  C   UNL     1      43.757 -19.671   2.496  1.00  0.00     0.058 A 
HETATM   30  C   UNL     1      44.193 -20.993   2.394  1.00  0.00     0.117 A 
HETATM   31  C   UNL     1      44.676 -21.687   3.492  1.00  0.00     0.044 A 
HETATM   32  F   UNL     1      44.151 -21.604   1.202  1.00  0.00    -0.206 F 
BRANCH  23  33
HETATM   33  C   UNL     1      43.672 -16.561   6.501  1.00  0.00     0.312 C 
HETATM   34  O   UNL     1      43.170 -16.657   7.616  1.00  0.00    -0.258 OA
BRANCH  33  35
HETATM   35  O   UNL     1      44.187 -15.432   5.947  1.00  0.00    -0.317 OA
BRANCH  35  36
HETATM   36  C   UNL     1      43.793 -14.196   6.562  1.00  0.00     0.175 C 
HETATM   37  C   UNL     1      44.930 -13.637   7.396  1.00  0.00     0.034 C 
ENDBRANCH  35  36
ENDBRANCH  33  35
ENDBRANCH  23  33
ENDBRANCH   1  22
TORSDOF 6
ENDMDL
MODEL 5
REMARK VINA RESULT:      -8.1      2.337      3.897
REMARK  6 active torsions:
REMARK  status: ('A' for Active; 'I' for Inactive)
REMARK    1  A    between atoms: C_2  and  O_3 
REMARK    2  A    between atoms: O_3  and  C_4 
REMARK    3  A    between atoms: C_4  and  C_5 
REMARK    4  A    between atoms: C_10  and  N_11 
REMARK       I    between atoms: N_11  and  C_12 
REMARK    5  A    between atoms: C_12  and  C_13 
REMARK    6  A    between atoms: C_13  and  N_14 
ROOT
HETATM    1  N   UNL     1      42.559 -15.573   1.665  1.00  0.00    -0.322 N 
HETATM    2  C   UNL     1      41.276 -15.463   1.177  1.00  0.00     0.253 C 
HETATM    3  O   UNL     1      40.298 -15.966   1.723  1.00  0.00    -0.271 OA
HETATM    4  H   UNL     1      43.251 -14.864   1.435  1.00  0.00     0.169 HD
ENDROOT
BRANCH   2   5
HETATM    5  C   UNL     1      41.102 -14.661  -0.156  1.00  0.00     0.275 C 
HETATM    6  C   UNL     1      41.149 -15.561  -1.402  1.00  0.00     0.050 C 
BRANCH   5   7
HETATM    7  N   UNL     1      42.143 -13.487  -0.414  1.00  0.00    -0.058 N 
HETATM    8  H   UNL     1      43.028 -13.918  -0.115  1.00  0.00     0.281 HD
HETATM    9  C   UNL     1      42.333 -13.139  -1.890  1.00  0.00     0.246 C 
HETATM   10  C   UNL     1      41.437 -11.983  -2.384  1.00  0.00     0.062 C 
HETATM   11  C   UNL     1      41.666 -10.749  -1.521  1.00  0.00     0.020 C 
HETATM   12  C   UNL     1      39.974 -12.372  -2.391  1.00  0.00     0.020 A 
HETATM   13  C   UNL     1      41.222 -11.100  -0.107  1.00  0.00     0.031 C 
HETATM   14  C   UNL     1      39.717 -11.362  -0.119  1.00  0.00     0.138 C 
HETATM   15  C   UNL     1      42.089 -12.236   0.447  1.00  0.00     0.242 C 
HETATM   16  N   UNL     1      39.211 -12.157  -1.240  1.00  0.00    -0.317 N 
HETATM   17  C   UNL     1      37.855 -12.515  -1.164  1.00  0.00     0.247 A 
HETATM   18  O   UNL     1      37.151 -12.342  -0.175  1.00  0.00    -0.268 OA
HETATM   19  C   UNL     1      37.275 -13.155  -2.370  1.00  0.00     0.074 A 
HETATM   20  C   UNL     1      38.028 -13.339  -3.460  1.00  0.00     0.007 A 
HETATM   21  C   UNL     1      39.409 -12.937  -3.474  1.00  0.00     0.026 A 
ENDBRANCH   5   7
ENDBRANCH   2   5
BRANCH   1  22
HETATM   22  C   UNL     1      42.979 -16.416   2.695  1.00  0.00     0.080 A 
HETATM   23  C   UNL     1      43.154 -15.918   3.981  1.00  0.00     0.137 A 
HETATM   24  N   UNL     1      43.560 -16.963   4.772  1.00  0.00    -0.349 N 
HETATM   25  H   UNL     1      43.752 -16.888   5.763  1.00  0.00     0.166 HD
HETATM   26  C   UNL     1      43.694 -18.112   4.033  1.00  0.00     0.045 A 
HETATM   27  C   UNL     1      43.348 -17.802   2.711  1.00  0.00     0.023 A 
HETATM   28  C   UNL     1      44.111 -19.386   4.443  1.00  0.00     0.033 A 
HETATM   29  C   UNL     1      43.472 -18.830   1.751  1.00  0.00     0.058 A 
HETATM   30  C   UNL     1      43.883 -20.102   2.153  1.00  0.00     0.117 A 
HETATM   31  C   UNL     1      44.194 -20.384   3.473  1.00  0.00     0.044 A 
HETATM   32  F   UNL     1      43.986 -21.074   1.235  1.00  0.00    -0.206 F 
BRANCH  23  33
HETATM   33  C   UNL     1      42.930 -14.573   4.453  1.00  0.00     0.312 C 
HETATM   34  O   UNL     1      43.457 -13.582   3.958  1.00  0.00    -0.258 OA
BRANCH  33  35
HETATM   35  O   UNL     1      42.061 -14.581   5.497  1.00  0.00    -0.317 OA
BRANCH  35  36
HETATM   36  C   UNL     1      40.674 -14.730   5.158  1.00  0.00     0.175 C 
HETATM   37  C   UNL     1      39.863 -13.593   5.751  1.00  0.00     0.034 C 
ENDBRANCH  35  36
ENDBRANCH  33  35
ENDBRANCH  23  33
ENDBRANCH   1  22
TORSDOF 6
ENDMDL
MODEL 6
REMARK VINA RESULT:      -7.9      2.844      5.190
REMARK  6 active torsions:
REMARK  status: ('A' for Active; 'I' for Inactive)
REMARK    1  A    between atoms: C_2  and  O_3 
REMARK    2  A    between atoms: O_3  and  C_4 
REMARK    3  A    between atoms: C_4  and  C_5 
REMARK    4  A    between atoms: C_10  and  N_11 
REMARK       I    between atoms: N_11  and  C_12 
REMARK    5  A    between atoms: C_12  and  C_13 
REMARK    6  A    between atoms: C_13  and  N_14 
ROOT
HETATM    1  N   UNL     1      41.162 -15.450   2.411  1.00  0.00    -0.322 N 
HETATM    2  C   UNL     1      41.292 -14.360   1.579  1.00  0.00     0.253 C 
HETATM    3  O   UNL     1      42.332 -13.718   1.462  1.00  0.00    -0.271 OA
HETATM    4  H   UNL     1      40.464 -16.162   2.207  1.00  0.00     0.169 HD
ENDROOT
BRANCH   2   5
HETATM    5  C   UNL     1      40.018 -13.942   0.770  1.00  0.00     0.275 C 
HETATM    6  C   UNL     1      38.720 -14.114   1.577  1.00  0.00     0.050 C 
BRANCH   5   7
HETATM    7  N   UNL     1      39.785 -14.688  -0.614  1.00  0.00    -0.058 N 
HETATM    8  H   UNL     1      39.310 -15.549  -0.315  1.00  0.00     0.281 HD
HETATM    9  C   UNL     1      38.802 -13.977  -1.545  1.00  0.00     0.246 C 
HETATM   10  C   UNL     1      39.472 -13.032  -2.565  1.00  0.00     0.062 C 
HETATM   11  C   UNL     1      40.502 -13.802  -3.380  1.00  0.00     0.020 C 
HETATM   12  C   UNL     1      40.106 -11.835  -1.887  1.00  0.00     0.020 A 
HETATM   13  C   UNL     1      41.582 -14.272  -2.414  1.00  0.00     0.031 C 
HETATM   14  C   UNL     1      42.293 -13.046  -1.842  1.00  0.00     0.138 C 
HETATM   15  C   UNL     1      40.979 -15.231  -1.382  1.00  0.00     0.242 C 
HETATM   16  N   UNL     1      41.432 -11.926  -1.456  1.00  0.00    -0.317 N 
HETATM   17  C   UNL     1      42.078 -10.866  -0.798  1.00  0.00     0.247 A 
HETATM   18  O   UNL     1      43.239 -10.904  -0.405  1.00  0.00    -0.268 OA
HETATM   19  C   UNL     1      41.269  -9.645  -0.566  1.00  0.00     0.074 A 
HETATM   20  C   UNL     1      40.005  -9.585  -0.999  1.00  0.00     0.007 A 
HETATM   21  C   UNL     1      39.409 -10.704  -1.677  1.00  0.00     0.026 A 
ENDBRANCH   5   7
ENDBRANCH   2   5
BRANCH   1  22
HETATM   22  C   UNL     1      42.078 -15.862   3.380  1.00  0.00     0.080 A 
HETATM   23  C   UNL     1      42.601 -17.149   3.348  1.00  0.00     0.137 A 
HETATM   24  N   UNL     1      43.467 -17.263   4.407  1.00  0.00    -0.349 N 
HETATM   25  H   UNL     1      44.001 -18.097   4.621  1.00  0.00     0.166 HD
HETATM   26  C   UNL     1      43.491 -16.106   5.146  1.00  0.00     0.045 A 
HETATM   27  C   UNL     1      42.615 -15.201   4.534  1.00  0.00     0.023 A 
HETATM   28  C   UNL     1      44.213 -15.815   6.312  1.00  0.00     0.033 A 
HETATM   29  C   UNL     1      42.432 -13.951   5.164  1.00  0.00     0.058 A 
HETATM   30  C   UNL     1      43.149 -13.651   6.324  1.00  0.00     0.117 A 
HETATM   31  C   UNL     1      44.029 -14.560   6.891  1.00  0.00     0.044 A 
HETATM   32  F   UNL     1      42.977 -12.457   6.907  1.00  0.00    -0.206 F 
BRANCH  23  33
HETATM   33  C   UNL     1      42.341 -18.193   2.387  1.00  0.00     0.312 C 
HETATM   34  O   UNL     1      41.669 -18.032   1.374  1.00  0.00    -0.258 OA
BRANCH  33  35
HETATM   35  O   UNL     1      42.949 -19.345   2.771  1.00  0.00    -0.317 OA
BRANCH  35  36
HETATM   36  C   UNL     1      43.633 -20.069   1.737  1.00  0.00     0.175 C 
HETATM   37  C   UNL     1      44.082 -21.423   2.251  1.00  0.00     0.034 C 
ENDBRANCH  35  36
ENDBRANCH  33  35
ENDBRANCH  23  33
ENDBRANCH   1  22
TORSDOF 6
ENDMDL
MODEL 7
REMARK VINA RESULT:      -7.9      2.449      4.040
REMARK  6 active torsions:
REMARK  status: ('A' for Active; 'I' for Inactive)
REMARK    1  A    between atoms: C_2  and  O_3 
REMARK    2  A    between atoms: O_3  and  C_4 
REMARK    3  A    between atoms: C_4  and  C_5 
REMARK    4  A    between atoms: C_10  and  N_11 
REMARK       I    between atoms: N_11  and  C_12 
REMARK    5  A    between atoms: C_12  and  C_13 
REMARK    6  A    between atoms: C_13  and  N_14 
ROOT
HETATM    1  N   UNL     1      42.951 -15.707   3.532  1.00  0.00    -0.322 N 
HETATM    2  C   UNL     1      41.642 -15.293   3.421  1.00  0.00     0.253 C 
HETATM    3  O   UNL     1      40.715 -15.805   4.041  1.00  0.00    -0.271 OA
HETATM    4  H   UNL     1      43.708 -15.056   3.331  1.00  0.00     0.169 HD
ENDROOT
BRANCH   2   5
HETATM    5  C   UNL     1      41.364 -14.115   2.428  1.00  0.00     0.275 C 
HETATM    6  C   UNL     1      42.463 -13.038   2.459  1.00  0.00     0.050 C 
BRANCH   5   7
HETATM    7  N   UNL     1      39.984 -13.348   2.613  1.00  0.00    -0.058 N 
HETATM    8  H   UNL     1      39.831 -13.424   3.627  1.00  0.00     0.281 HD
HETATM    9  C   UNL     1      40.062 -11.849   2.320  1.00  0.00     0.246 C 
HETATM   10  C   UNL     1      39.681 -11.469   0.874  1.00  0.00     0.062 C 
HETATM   11  C   UNL     1      38.287 -11.993   0.555  1.00  0.00     0.020 C 
HETATM   12  C   UNL     1      40.693 -11.986  -0.126  1.00  0.00     0.020 A 
HETATM   13  C   UNL     1      38.349 -13.513   0.627  1.00  0.00     0.031 C 
HETATM   14  C   UNL     1      39.278 -14.017  -0.477  1.00  0.00     0.138 C 
HETATM   15  C   UNL     1      38.710 -13.955   2.050  1.00  0.00     0.242 C 
HETATM   16  N   UNL     1      40.519 -13.263  -0.667  1.00  0.00    -0.317 N 
HETATM   17  C   UNL     1      41.430 -13.818  -1.581  1.00  0.00     0.247 A 
HETATM   18  O   UNL     1      41.314 -14.932  -2.079  1.00  0.00    -0.268 OA
HETATM   19  C   UNL     1      42.604 -12.981  -1.930  1.00  0.00     0.074 A 
HETATM   20  C   UNL     1      42.738 -11.760  -1.403  1.00  0.00     0.007 A 
HETATM   21  C   UNL     1      41.760 -11.247  -0.482  1.00  0.00     0.026 A 
ENDBRANCH   5   7
ENDBRANCH   2   5
BRANCH   1  22
HETATM   22  C   UNL     1      43.398 -16.864   4.171  1.00  0.00     0.080 A 
HETATM   23  C   UNL     1      43.741 -17.988   3.429  1.00  0.00     0.137 A 
HETATM   24  N   UNL     1      44.144 -18.955   4.315  1.00  0.00    -0.349 N 
HETATM   25  H   UNL     1      44.461 -19.879   4.047  1.00  0.00     0.166 HD
HETATM   26  C   UNL     1      44.034 -18.510   5.609  1.00  0.00     0.045 A 
HETATM   27  C   UNL     1      43.552 -17.195   5.559  1.00  0.00     0.023 A 
HETATM   28  C   UNL     1      44.311 -19.186   6.805  1.00  0.00     0.033 A 
HETATM   29  C   UNL     1      43.302 -16.550   6.790  1.00  0.00     0.058 A 
HETATM   30  C   UNL     1      43.579 -17.215   7.985  1.00  0.00     0.117 A 
HETATM   31  C   UNL     1      44.079 -18.508   8.001  1.00  0.00     0.044 A 
HETATM   32  F   UNL     1      43.348 -16.590   9.148  1.00  0.00    -0.206 F 
BRANCH  23  33
HETATM   33  C   UNL     1      43.726 -18.146   1.995  1.00  0.00     0.312 C 
HETATM   34  O   UNL     1      43.348 -17.275   1.218  1.00  0.00    -0.258 OA
BRANCH  33  35
HETATM   35  O   UNL     1      44.193 -19.375   1.654  1.00  0.00    -0.317 OA
BRANCH  35  36
HETATM   36  C   UNL     1      43.246 -20.451   1.737  1.00  0.00     0.175 C 
HETATM   37  C   UNL     1      43.966 -21.787   1.745  1.00  0.00     0.034 C 
ENDBRANCH  35  36
ENDBRANCH  33  35
ENDBRANCH  23  33
ENDBRANCH   1  22
TORSDOF 6
ENDMDL
MODEL 8
REMARK VINA RESULT:      -7.7      5.602      8.483
REMARK  6 active torsions:
REMARK  status: ('A' for Active; 'I' for Inactive)
REMARK    1  A    between atoms: C_2  and  O_3 
REMARK    2  A    between atoms: O_3  and  C_4 
REMARK    3  A    between atoms: C_4  and  C_5 
REMARK    4  A    between atoms: C_10  and  N_11 
REMARK       I    between atoms: N_11  and  C_12 
REMARK    5  A    between atoms: C_12  and  C_13 
REMARK    6  A    between atoms: C_13  and  N_14 
ROOT
HETATM    1  N   UNL     1      41.599 -11.554   7.903  1.00  0.00    -0.322 N 
HETATM    2  C   UNL     1      41.389 -11.273   6.571  1.00  0.00     0.253 C 
HETATM    3  O   UNL     1      41.486 -10.146   6.093  1.00  0.00    -0.271 OA
HETATM    4  H   UNL     1      41.888 -12.489   8.184  1.00  0.00     0.169 HD
ENDROOT
BRANCH   2   5
HETATM    5  C   UNL     1      40.991 -12.479   5.656  1.00  0.00     0.275 C 
HETATM    6  C   UNL     1      39.468 -12.645   5.519  1.00  0.00     0.050 C 
BRANCH   5   7
HETATM    7  N   UNL     1      41.557 -13.903   6.080  1.00  0.00    -0.058 N 
HETATM    8  H   UNL     1      41.502 -13.858   7.106  1.00  0.00     0.281 HD
HETATM    9  C   UNL     1      40.663 -15.074   5.671  1.00  0.00     0.246 C 
HETATM   10  C   UNL     1      41.043 -15.713   4.319  1.00  0.00     0.062 C 
HETATM   11  C   UNL     1      42.501 -16.153   4.348  1.00  0.00     0.020 C 
HETATM   12  C   UNL     1      40.787 -14.770   3.162  1.00  0.00     0.020 A 
HETATM   13  C   UNL     1      43.346 -14.897   4.513  1.00  0.00     0.031 C 
HETATM   14  C   UNL     1      43.170 -14.021   3.274  1.00  0.00     0.138 C 
HETATM   15  C   UNL     1      43.026 -14.222   5.852  1.00  0.00     0.242 C 
HETATM   16  N   UNL     1      41.802 -13.895   2.765  1.00  0.00    -0.317 N 
HETATM   17  C   UNL     1      41.629 -12.976   1.718  1.00  0.00     0.247 A 
HETATM   18  O   UNL     1      42.493 -12.193   1.338  1.00  0.00    -0.268 OA
HETATM   19  C   UNL     1      40.298 -12.967   1.063  1.00  0.00     0.074 A 
HETATM   20  C   UNL     1      39.350 -13.822   1.459  1.00  0.00     0.007 A 
HETATM   21  C   UNL     1      39.598 -14.748   2.532  1.00  0.00     0.026 A 
ENDBRANCH   5   7
ENDBRANCH   2   5
BRANCH   1  22
HETATM   22  C   UNL     1      41.739 -10.620   8.930  1.00  0.00     0.080 A 
HETATM   23  C   UNL     1      42.809 -10.705   9.813  1.00  0.00     0.137 A 
HETATM   24  N   UNL     1      42.688  -9.664  10.700  1.00  0.00    -0.349 N 
HETATM   25  H   UNL     1      43.341  -9.475  11.451  1.00  0.00     0.166 HD
HETATM   26  C   UNL     1      41.554  -8.933  10.446  1.00  0.00     0.045 A 
HETATM   27  C   UNL     1      40.920  -9.517   9.341  1.00  0.00     0.023 A 
HETATM   28  C   UNL     1      41.048  -7.817  11.127  1.00  0.00     0.033 A 
HETATM   29  C   UNL     1      39.688  -8.961   8.934  1.00  0.00     0.058 A 
HETATM   30  C   UNL     1      39.179  -7.847   9.605  1.00  0.00     0.117 A 
HETATM   31  C   UNL     1      39.843  -7.277  10.679  1.00  0.00     0.044 A 
HETATM   32  F   UNL     1      38.014  -7.320   9.203  1.00  0.00    -0.206 F 
BRANCH  23  33
HETATM   33  C   UNL     1      43.886 -11.664   9.818  1.00  0.00     0.312 C 
HETATM   34  O   UNL     1      44.330 -12.183  10.837  1.00  0.00    -0.258 OA
BRANCH  33  35
HETATM   35  O   UNL     1      44.309 -11.899   8.549  1.00  0.00    -0.317 OA
BRANCH  35  36
HETATM   36  C   UNL     1      45.523 -12.655   8.422  1.00  0.00     0.175 C 
HETATM   37  C   UNL     1      46.707 -11.723   8.246  1.00  0.00     0.034 C 
ENDBRANCH  35  36
ENDBRANCH  33  35
ENDBRANCH  23  33
ENDBRANCH   1  22
TORSDOF 6
ENDMDL
MODEL 9
REMARK VINA RESULT:      -7.5      3.468      7.791
REMARK  6 active torsions:
REMARK  status: ('A' for Active; 'I' for Inactive)
REMARK    1  A    between atoms: C_2  and  O_3 
REMARK    2  A    between atoms: O_3  and  C_4 
REMARK    3  A    between atoms: C_4  and  C_5 
REMARK    4  A    between atoms: C_10  and  N_11 
REMARK       I    between atoms: N_11  and  C_12 
REMARK    5  A    between atoms: C_12  and  C_13 
REMARK    6  A    between atoms: C_13  and  N_14 
ROOT
HETATM    1  N   UNL     1      40.526 -13.329   3.435  1.00  0.00    -0.322 N 
HETATM    2  C   UNL     1      41.788 -13.309   2.885  1.00  0.00     0.253 C 
HETATM    3  O   UNL     1      42.193 -12.413   2.149  1.00  0.00    -0.271 OA
HETATM    4  H   UNL     1      40.358 -13.837   4.301  1.00  0.00     0.169 HD
ENDROOT
BRANCH   2   5
HETATM    5  C   UNL     1      42.719 -14.520   3.228  1.00  0.00     0.275 C 
HETATM    6  C   UNL     1      44.146 -14.085   3.605  1.00  0.00     0.050 C 
BRANCH   5   7
HETATM    7  N   UNL     1      42.875 -15.631   2.102  1.00  0.00    -0.058 N 
HETATM    8  H   UNL     1      43.117 -15.067   1.277  1.00  0.00     0.281 HD
HETATM    9  C   UNL     1      44.060 -16.572   2.318  1.00  0.00     0.246 C 
HETATM   10  C   UNL     1      43.702 -17.875   3.064  1.00  0.00     0.062 C 
HETATM   11  C   UNL     1      42.585 -18.601   2.326  1.00  0.00     0.020 C 
HETATM   12  C   UNL     1      43.313 -17.607   4.503  1.00  0.00     0.020 A 
HETATM   13  C   UNL     1      41.359 -17.699   2.366  1.00  0.00     0.031 C 
HETATM   14  C   UNL     1      40.909 -17.549   3.819  1.00  0.00     0.138 C 
HETATM   15  C   UNL     1      41.647 -16.389   1.624  1.00  0.00     0.242 C 
HETATM   16  N   UNL     1      41.974 -17.345   4.804  1.00  0.00    -0.317 N 
HETATM   17  C   UNL     1      41.543 -17.064   6.110  1.00  0.00     0.247 A 
HETATM   18  O   UNL     1      40.379 -16.831   6.417  1.00  0.00    -0.268 OA
HETATM   19  C   UNL     1      42.592 -17.040   7.159  1.00  0.00     0.074 A 
HETATM   20  C   UNL     1      43.864 -17.304   6.841  1.00  0.00     0.007 A 
HETATM   21  C   UNL     1      44.235 -17.597   5.483  1.00  0.00     0.026 A 
ENDBRANCH   5   7
ENDBRANCH   2   5
BRANCH   1  22
HETATM   22  C   UNL     1      39.465 -12.488   3.095  1.00  0.00     0.080 A 
HETATM   23  C   UNL     1      39.005 -11.539   3.999  1.00  0.00     0.137 A 
HETATM   24  N   UNL     1      37.974 -10.865   3.394  1.00  0.00    -0.349 N 
HETATM   25  H   UNL     1      37.458 -10.107   3.824  1.00  0.00     0.166 HD
HETATM   26  C   UNL     1      37.724 -11.374   2.144  1.00  0.00     0.045 A 
HETATM   27  C   UNL     1      38.639 -12.411   1.925  1.00  0.00     0.023 A 
HETATM   28  C   UNL     1      36.747 -10.995   1.213  1.00  0.00     0.033 A 
HETATM   29  C   UNL     1      38.527 -13.128   0.713  1.00  0.00     0.058 A 
HETATM   30  C   UNL     1      37.559 -12.755  -0.221  1.00  0.00     0.117 A 
HETATM   31  C   UNL     1      36.684 -11.706   0.015  1.00  0.00     0.044 A 
HETATM   32  F   UNL     1      37.469 -13.434  -1.373  1.00  0.00    -0.206 F 
BRANCH  23  33
HETATM   33  C   UNL     1      39.505 -11.254   5.322  1.00  0.00     0.312 C 
HETATM   34  O   UNL     1      38.797 -11.211   6.323  1.00  0.00    -0.258 OA
BRANCH  33  35
HETATM   35  O   UNL     1      40.849 -11.055   5.282  1.00  0.00    -0.317 OA
BRANCH  35  36
HETATM   36  C   UNL     1      41.277  -9.716   4.986  1.00  0.00     0.175 C 
HETATM   37  C   UNL     1      41.452  -8.925   6.268  1.00  0.00     0.034 C 
ENDBRANCH  35  36
ENDBRANCH  33  35
ENDBRANCH  23  33
ENDBRANCH   1  22
TORSDOF 6
ENDMDL
MODEL 10
REMARK VINA RESULT:      -7.4      3.125      4.630
REMARK  6 active torsions:
REMARK  status: ('A' for Active; 'I' for Inactive)
REMARK    1  A    between atoms: C_2  and  O_3 
REMARK    2  A    between atoms: O_3  and  C_4 
REMARK    3  A    between atoms: C_4  and  C_5 
REMARK    4  A    between atoms: C_10  and  N_11 
REMARK       I    between atoms: N_11  and  C_12 
REMARK    5  A    between atoms: C_12  and  C_13 
REMARK    6  A    between atoms: C_13  and  N_14 
ROOT
HETATM    1  N   UNL     1      40.324 -14.151   2.745  1.00  0.00    -0.322 N 
HETATM    2  C   UNL     1      41.289 -13.741   1.851  1.00  0.00     0.253 C 
HETATM    3  O   UNL     1      42.486 -13.976   1.992  1.00  0.00    -0.271 OA
HETATM    4  H   UNL     1      39.366 -14.286   2.429  1.00  0.00     0.169 HD
ENDROOT
BRANCH   2   5
HETATM    5  C   UNL     1      40.792 -12.921   0.614  1.00  0.00     0.275 C 
HETATM    6  C   UNL     1      41.453 -11.535   0.515  1.00  0.00     0.050 C 
BRANCH   5   7
HETATM    7  N   UNL     1      39.225 -12.676   0.514  1.00  0.00    -0.058 N 
HETATM    8  H   UNL     1      38.958 -12.590   1.503  1.00  0.00     0.281 HD
HETATM    9  C   UNL     1      38.845 -11.343  -0.132  1.00  0.00     0.246 C 
HETATM   10  C   UNL     1      38.577 -11.432  -1.649  1.00  0.00     0.062 C 
HETATM   11  C   UNL     1      37.497 -12.472  -1.921  1.00  0.00     0.020 C 
HETATM   12  C   UNL     1      39.839 -11.750  -2.424  1.00  0.00     0.020 A 
HETATM   13  C   UNL     1      38.048 -13.820  -1.474  1.00  0.00     0.031 C 
HETATM   14  C   UNL     1      39.243 -14.177  -2.357  1.00  0.00     0.138 C 
HETATM   15  C   UNL     1      38.321 -13.800   0.035  1.00  0.00     0.242 C 
HETATM   16  N   UNL     1      40.178 -13.087  -2.644  1.00  0.00    -0.317 N 
HETATM   17  C   UNL     1      41.345 -13.458  -3.332  1.00  0.00     0.247 A 
HETATM   18  O   UNL     1      41.680 -14.618  -3.548  1.00  0.00    -0.268 OA
HETATM   19  C   UNL     1      42.215 -12.350  -3.798  1.00  0.00     0.074 A 
HETATM   20  C   UNL     1      41.858 -11.080  -3.580  1.00  0.00     0.007 A 
HETATM   21  C   UNL     1      40.641 -10.770  -2.879  1.00  0.00     0.026 A 
ENDBRANCH   5   7
ENDBRANCH   2   5
BRANCH   1  22
HETATM   22  C   UNL     1      40.551 -14.690   4.012  1.00  0.00     0.080 A 
HETATM   23  C   UNL     1      40.191 -13.978   5.150  1.00  0.00     0.137 A 
HETATM   24  N   UNL     1      40.524 -14.749   6.235  1.00  0.00    -0.349 N 
HETATM   25  H   UNL     1      40.363 -14.480   7.199  1.00  0.00     0.166 HD
HETATM   26  C   UNL     1      41.125 -15.918   5.839  1.00  0.00     0.045 A 
HETATM   27  C   UNL     1      41.172 -15.910   4.439  1.00  0.00     0.023 A 
HETATM   28  C   UNL     1      41.639 -16.960   6.624  1.00  0.00     0.033 A 
HETATM   29  C   UNL     1      41.810 -16.999   3.807  1.00  0.00     0.058 A 
HETATM   30  C   UNL     1      42.321 -18.043   4.580  1.00  0.00     0.117 A 
HETATM   31  C   UNL     1      42.237 -18.033   5.964  1.00  0.00     0.044 A 
HETATM   32  F   UNL     1      42.915 -19.077   3.969  1.00  0.00    -0.206 F 
BRANCH  23  33
HETATM   33  C   UNL     1      39.554 -12.686   5.228  1.00  0.00     0.312 C 
HETATM   34  O   UNL     1      38.542 -12.465   5.886  1.00  0.00    -0.258 OA
BRANCH  33  35
HETATM   35  O   UNL     1      40.240 -11.780   4.484  1.00  0.00    -0.317 OA
BRANCH  35  36
HETATM   36  C   UNL     1      39.444 -10.825   3.766  1.00  0.00     0.175 C 
HETATM   37  C   UNL     1      40.269  -9.596   3.434  1.00  0.00     0.034 C 
ENDBRANCH  35  36
ENDBRANCH  33  35
ENDBRANCH  23  33
ENDBRANCH   1  22
TORSDOF 6
ENDMDL
