MODEL 1
REMARK VINA RESULT:      -7.8      0.000      0.000
REMARK  4 active torsions:
REMARK  status: ('A' for Active; 'I' for Inactive)
REMARK    1  A    between atoms: C_9  and  C_10 
REMARK       I    between atoms: C_10  and  N_11 
REMARK    2  A    between atoms: N_11  and  C_12 
REMARK    3  A    between atoms: C_12  and  C_13 
REMARK    4  A    between atoms: C_14  and  O_15 
ROOT
HETATM    1  C   UNL     1      43.222 -17.041   6.652  1.00  0.00     0.273 C 
HETATM    2  N   UNL     1      44.057 -15.991   6.336  1.00  0.00    -0.347 N 
HETATM    3  O   UNL     1      42.219 -16.932   7.350  1.00  0.00    -0.266 OA
HETATM    4  H   UNL     1      44.745 -16.211   5.621  1.00  0.00     0.163 HD
ENDROOT
BRANCH   1   5
HETATM    5  C   UNL     1      43.650 -18.316   6.053  1.00  0.00     0.157 A 
HETATM    6  C   UNL     1      43.812 -18.609   4.666  1.00  0.00     0.029 A 
HETATM    7  C   UNL     1      43.633 -17.912   3.454  1.00  0.00     0.023 A 
HETATM    8  C   UNL     1      44.247 -19.927   4.623  1.00  0.00     0.063 A 
HETATM    9  C   UNL     1      43.893 -18.565   2.236  1.00  0.00    -0.061 A 
HETATM   10  C   UNL     1      43.689 -17.849   0.932  1.00  0.00     0.048 C 
HETATM   11  C   UNL     1      44.335 -19.893   2.238  1.00  0.00     0.009 A 
HETATM   12  C   UNL     1      44.523 -20.602   3.431  1.00  0.00     0.032 A 
HETATM   13  N   UNL     1      44.316 -20.327   5.929  1.00  0.00    -0.277 N 
HETATM   14  H   UNL     1      44.601 -21.234   6.276  1.00  0.00     0.189 HD
HETATM   15  N   UNL     1      43.952 -19.388   6.819  1.00  0.00    -0.168 NA
ENDBRANCH   1   5
BRANCH   2  16
HETATM   16  C   UNL     1      43.714 -14.601   6.573  1.00  0.00     0.116 C 
HETATM   17  C   UNL     1      44.890 -13.806   7.159  1.00  0.00     0.037 C 
BRANCH  16  18
HETATM   18  C   UNL     1      43.182 -13.990   5.280  1.00  0.00    -0.003 A 
HETATM   19  C   UNL     1      42.268 -12.915   5.308  1.00  0.00     0.076 A 
HETATM   20  C   UNL     1      41.791 -12.374   4.108  1.00  0.00     0.037 A 
HETATM   21  C   UNL     1      42.187 -12.907   2.880  1.00  0.00     0.003 A 
HETATM   22  C   UNL     1      43.057 -13.990   2.841  1.00  0.00     0.001 A 
HETATM   23  C   UNL     1      43.543 -14.532   4.030  1.00  0.00     0.012 A 
BRANCH  19  24
HETATM   24  O   UNL     1      41.912 -12.455   6.549  1.00  0.00    -0.355 OA
HETATM   25  C   UNL     1      41.480 -11.103   6.645  1.00  0.00     0.210 C 
ENDBRANCH  19  24
ENDBRANCH  16  18
ENDBRANCH   2  16
TORSDOF 4
ENDMDL
MODEL 2
REMARK VINA RESULT:      -7.8      3.692      5.255
REMARK  4 active torsions:
REMARK  status: ('A' for Active; 'I' for Inactive)
REMARK    1  A    between atoms: C_9  and  C_10 
REMARK       I    between atoms: C_10  and  N_11 
REMARK    2  A    between atoms: N_11  and  C_12 
REMARK    3  A    between atoms: C_12  and  C_13 
REMARK    4  A    between atoms: C_14  and  O_15 
ROOT
HETATM    1  C   UNL     1      41.197 -17.005   1.844  1.00  0.00     0.273 C 
HETATM    2  N   UNL     1      40.692 -15.736   2.027  1.00  0.00    -0.347 N 
HETATM    3  O   UNL     1      40.869 -17.747   0.922  1.00  0.00    -0.266 OA
HETATM    4  H   UNL     1      41.182 -15.196   2.734  1.00  0.00     0.163 HD
ENDROOT
BRANCH   1   5
HETATM    5  C   UNL     1      42.187 -17.383   2.866  1.00  0.00     0.157 A 
HETATM    6  C   UNL     1      42.992 -18.561   2.896  1.00  0.00     0.029 A 
HETATM    7  C   UNL     1      43.144 -19.708   2.091  1.00  0.00     0.023 A 
HETATM    8  C   UNL     1      43.769 -18.439   4.041  1.00  0.00     0.063 A 
HETATM    9  C   UNL     1      44.068 -20.699   2.466  1.00  0.00    -0.061 A 
HETATM   10  C   UNL     1      44.230 -21.939   1.635  1.00  0.00     0.048 C 
HETATM   11  C   UNL     1      44.834 -20.534   3.626  1.00  0.00     0.009 A 
HETATM   12  C   UNL     1      44.702 -19.400   4.437  1.00  0.00     0.032 A 
HETATM   13  N   UNL     1      43.397 -17.249   4.603  1.00  0.00    -0.277 N 
HETATM   14  H   UNL     1      43.762 -16.833   5.452  1.00  0.00     0.189 HD
HETATM   15  N   UNL     1      42.438 -16.590   3.931  1.00  0.00    -0.168 NA
ENDBRANCH   1   5
BRANCH   2  16
HETATM   16  C   UNL     1      39.916 -15.034   1.021  1.00  0.00     0.116 C 
HETATM   17  C   UNL     1      38.633 -14.423   1.602  1.00  0.00     0.037 C 
BRANCH  16  18
HETATM   18  C   UNL     1      40.804 -13.994   0.343  1.00  0.00    -0.003 A 
HETATM   19  C   UNL     1      41.323 -14.218  -0.951  1.00  0.00     0.076 A 
HETATM   20  C   UNL     1      42.139 -13.250  -1.551  1.00  0.00     0.037 A 
HETATM   21  C   UNL     1      42.469 -12.077  -0.870  1.00  0.00     0.003 A 
HETATM   22  C   UNL     1      41.993 -11.863   0.418  1.00  0.00     0.001 A 
HETATM   23  C   UNL     1      41.175 -12.817   1.021  1.00  0.00     0.012 A 
BRANCH  19  24
HETATM   24  O   UNL     1      40.970 -15.399  -1.550  1.00  0.00    -0.355 OA
HETATM   25  C   UNL     1      41.057 -15.462  -2.968  1.00  0.00     0.210 C 
ENDBRANCH  19  24
ENDBRANCH  16  18
ENDBRANCH   2  16
TORSDOF 4
ENDMDL
MODEL 3
REMARK VINA RESULT:      -7.7      2.048      3.318
REMARK  4 active torsions:
REMARK  status: ('A' for Active; 'I' for Inactive)
REMARK    1  A    between atoms: C_9  and  C_10 
REMARK       I    between atoms: C_10  and  N_11 
REMARK    2  A    between atoms: N_11  and  C_12 
REMARK    3  A    between atoms: C_12  and  C_13 
REMARK    4  A    between atoms: C_14  and  O_15 
ROOT
HETATM    1  C   UNL     1      43.247 -16.583   3.253  1.00  0.00     0.273 C 
HETATM    2  N   UNL     1      42.093 -15.971   3.691  1.00  0.00    -0.347 N 
HETATM    3  O   UNL     1      43.843 -16.267   2.227  1.00  0.00    -0.266 OA
HETATM    4  H   UNL     1      41.818 -16.235   4.633  1.00  0.00     0.163 HD
ENDROOT
BRANCH   1   5
HETATM    5  C   UNL     1      43.707 -17.654   4.152  1.00  0.00     0.157 A 
HETATM    6  C   UNL     1      43.986 -19.011   3.809  1.00  0.00     0.029 A 
HETATM    7  C   UNL     1      43.926 -19.795   2.639  1.00  0.00     0.023 A 
HETATM    8  C   UNL     1      44.403 -19.605   4.993  1.00  0.00     0.063 A 
HETATM    9  C   UNL     1      44.282 -21.154   2.699  1.00  0.00    -0.061 A 
HETATM   10  C   UNL     1      44.204 -22.013   1.470  1.00  0.00     0.048 C 
HETATM   11  C   UNL     1      44.702 -21.711   3.912  1.00  0.00     0.009 A 
HETATM   12  C   UNL     1      44.774 -20.949   5.084  1.00  0.00     0.032 A 
HETATM   13  N   UNL     1      44.351 -18.612   5.932  1.00  0.00    -0.277 N 
HETATM   14  H   UNL     1      44.591 -18.686   6.913  1.00  0.00     0.189 HD
HETATM   15  N   UNL     1      43.924 -17.426   5.467  1.00  0.00    -0.168 NA
ENDBRANCH   1   5
BRANCH   2  16
HETATM   16  C   UNL     1      41.592 -14.726   3.138  1.00  0.00     0.116 C 
HETATM   17  C   UNL     1      40.466 -14.957   2.119  1.00  0.00     0.037 C 
BRANCH  16  18
HETATM   18  C   UNL     1      41.167 -13.808   4.280  1.00  0.00    -0.003 A 
HETATM   19  C   UNL     1      42.128 -13.146   5.074  1.00  0.00     0.076 A 
HETATM   20  C   UNL     1      41.714 -12.312   6.120  1.00  0.00     0.037 A 
HETATM   21  C   UNL     1      40.357 -12.150   6.405  1.00  0.00     0.003 A 
HETATM   22  C   UNL     1      39.403 -12.826   5.654  1.00  0.00     0.001 A 
HETATM   23  C   UNL     1      39.805 -13.653   4.606  1.00  0.00     0.012 A 
BRANCH  19  24
HETATM   24  O   UNL     1      43.441 -13.366   4.745  1.00  0.00    -0.355 OA
HETATM   25  C   UNL     1      44.281 -13.917   5.751  1.00  0.00     0.210 C 
ENDBRANCH  19  24
ENDBRANCH  16  18
ENDBRANCH   2  16
TORSDOF 4
ENDMDL
MODEL 4
REMARK VINA RESULT:      -7.6      2.483      6.066
REMARK  4 active torsions:
REMARK  status: ('A' for Active; 'I' for Inactive)
REMARK    1  A    between atoms: C_9  and  C_10 
REMARK       I    between atoms: C_10  and  N_11 
REMARK    2  A    between atoms: N_11  and  C_12 
REMARK    3  A    between atoms: C_12  and  C_13 
REMARK    4  A    between atoms: C_14  and  O_15 
ROOT
HETATM    1  C   UNL     1      43.099 -16.189   5.439  1.00  0.00     0.273 C 
HETATM    2  N   UNL     1      43.256 -17.517   5.109  1.00  0.00    -0.347 N 
HETATM    3  O   UNL     1      43.967 -15.509   5.979  1.00  0.00    -0.266 OA
HETATM    4  H   UNL     1      42.512 -17.888   4.525  1.00  0.00     0.163 HD
ENDROOT
BRANCH   1   5
HETATM    5  C   UNL     1      41.779 -15.655   5.063  1.00  0.00     0.157 A 
HETATM    6  C   UNL     1      41.338 -15.275   3.760  1.00  0.00     0.029 A 
HETATM    7  C   UNL     1      41.904 -15.232   2.470  1.00  0.00     0.023 A 
HETATM    8  C   UNL     1      40.024 -14.859   3.930  1.00  0.00     0.063 A 
HETATM    9  C   UNL     1      41.131 -14.766   1.392  1.00  0.00    -0.061 A 
HETATM   10  C   UNL     1      41.720 -14.691   0.012  1.00  0.00     0.048 C 
HETATM   11  C   UNL     1      39.808 -14.362   1.606  1.00  0.00     0.009 A 
HETATM   12  C   UNL     1      39.226 -14.401   2.879  1.00  0.00     0.032 A 
HETATM   13  N   UNL     1      39.768 -15.009   5.265  1.00  0.00    -0.277 N 
HETATM   14  H   UNL     1      38.902 -14.805   5.748  1.00  0.00     0.189 HD
HETATM   15  N   UNL     1      40.804 -15.474   5.983  1.00  0.00    -0.168 NA
ENDBRANCH   1   5
BRANCH   2  16
HETATM   16  C   UNL     1      44.538 -18.196   5.126  1.00  0.00     0.116 C 
HETATM   17  C   UNL     1      45.002 -18.522   6.554  1.00  0.00     0.037 C 
BRANCH  16  18
HETATM   18  C   UNL     1      44.458 -19.437   4.240  1.00  0.00    -0.003 A 
HETATM   19  C   UNL     1      44.008 -19.345   2.905  1.00  0.00     0.076 A 
HETATM   20  C   UNL     1      43.939 -20.498   2.113  1.00  0.00     0.037 A 
HETATM   21  C   UNL     1      44.283 -21.744   2.639  1.00  0.00     0.003 A 
HETATM   22  C   UNL     1      44.692 -21.851   3.963  1.00  0.00     0.001 A 
HETATM   23  C   UNL     1      44.771 -20.709   4.758  1.00  0.00     0.012 A 
BRANCH  19  24
HETATM   24  O   UNL     1      43.672 -18.092   2.463  1.00  0.00    -0.355 OA
HETATM   25  C   UNL     1      43.971 -17.776   1.109  1.00  0.00     0.210 C 
ENDBRANCH  19  24
ENDBRANCH  16  18
ENDBRANCH   2  16
TORSDOF 4
ENDMDL
MODEL 5
REMARK VINA RESULT:      -7.3      2.799      4.154
REMARK  4 active torsions:
REMARK  status: ('A' for Active; 'I' for Inactive)
REMARK    1  A    between atoms: C_9  and  C_10 
REMARK       I    between atoms: C_10  and  N_11 
REMARK    2  A    between atoms: N_11  and  C_12 
REMARK    3  A    between atoms: C_12  and  C_13 
REMARK    4  A    between atoms: C_14  and  O_15 
ROOT
HETATM    1  C   UNL     1      41.734 -16.657   2.438  1.00  0.00     0.273 C 
HETATM    2  N   UNL     1      42.308 -15.581   1.796  1.00  0.00    -0.347 N 
HETATM    3  O   UNL     1      40.583 -17.038   2.242  1.00  0.00    -0.266 OA
HETATM    4  H   UNL     1      43.309 -15.498   1.946  1.00  0.00     0.163 HD
ENDROOT
BRANCH   1   5
HETATM    5  C   UNL     1      42.650 -17.320   3.381  1.00  0.00     0.157 A 
HETATM    6  C   UNL     1      43.279 -18.591   3.227  1.00  0.00     0.029 A 
HETATM    7  C   UNL     1      43.274 -19.615   2.259  1.00  0.00     0.023 A 
HETATM    8  C   UNL     1      44.053 -18.752   4.369  1.00  0.00     0.063 A 
HETATM    9  C   UNL     1      44.044 -20.773   2.472  1.00  0.00    -0.061 A 
HETATM   10  C   UNL     1      44.036 -21.886   1.465  1.00  0.00     0.048 C 
HETATM   11  C   UNL     1      44.814 -20.892   3.635  1.00  0.00     0.009 A 
HETATM   12  C   UNL     1      44.837 -19.884   4.607  1.00  0.00     0.032 A 
HETATM   13  N   UNL     1      43.850 -17.618   5.105  1.00  0.00    -0.277 N 
HETATM   14  H   UNL     1      44.261 -17.390   6.002  1.00  0.00     0.189 HD
HETATM   15  N   UNL     1      43.001 -16.737   4.550  1.00  0.00    -0.168 NA
ENDBRANCH   1   5
BRANCH   2  16
HETATM   16  C   UNL     1      41.716 -14.935   0.639  1.00  0.00     0.116 C 
HETATM   17  C   UNL     1      41.289 -15.947  -0.434  1.00  0.00     0.037 C 
BRANCH  16  18
HETATM   18  C   UNL     1      40.562 -14.048   1.098  1.00  0.00    -0.003 A 
HETATM   19  C   UNL     1      40.768 -13.029   2.054  1.00  0.00     0.076 A 
HETATM   20  C   UNL     1      39.692 -12.231   2.463  1.00  0.00     0.037 A 
HETATM   21  C   UNL     1      38.410 -12.451   1.957  1.00  0.00     0.003 A 
HETATM   22  C   UNL     1      38.190 -13.475   1.044  1.00  0.00     0.001 A 
HETATM   23  C   UNL     1      39.254 -14.271   0.625  1.00  0.00     0.012 A 
BRANCH  19  24
HETATM   24  O   UNL     1      42.049 -12.883   2.518  1.00  0.00    -0.355 OA
HETATM   25  C   UNL     1      42.223 -12.759   3.924  1.00  0.00     0.210 C 
ENDBRANCH  19  24
ENDBRANCH  16  18
ENDBRANCH   2  16
TORSDOF 4
ENDMDL
MODEL 6
REMARK VINA RESULT:      -7.3      3.637      7.119
REMARK  4 active torsions:
REMARK  status: ('A' for Active; 'I' for Inactive)
REMARK    1  A    between atoms: C_9  and  C_10 
REMARK       I    between atoms: C_10  and  N_11 
REMARK    2  A    between atoms: N_11  and  C_12 
REMARK    3  A    between atoms: C_12  and  C_13 
REMARK    4  A    between atoms: C_14  and  O_15 
ROOT
HETATM    1  C   UNL     1      42.399 -15.760   2.114  1.00  0.00     0.273 C 
HETATM    2  N   UNL     1      41.874 -16.909   2.662  1.00  0.00    -0.347 N 
HETATM    3  O   UNL     1      43.223 -15.045   2.678  1.00  0.00    -0.266 OA
HETATM    4  H   UNL     1      41.335 -17.470   2.008  1.00  0.00     0.163 HD
ENDROOT
BRANCH   1   5
HETATM    5  C   UNL     1      41.880 -15.477   0.765  1.00  0.00     0.157 A 
HETATM    6  C   UNL     1      41.688 -14.198   0.163  1.00  0.00     0.029 A 
HETATM    7  C   UNL     1      41.865 -12.855   0.554  1.00  0.00     0.023 A 
HETATM    8  C   UNL     1      41.202 -14.466  -1.110  1.00  0.00     0.063 A 
HETATM    9  C   UNL     1      41.542 -11.824  -0.347  1.00  0.00    -0.061 A 
HETATM   10  C   UNL     1      41.702 -10.387   0.057  1.00  0.00     0.048 C 
HETATM   11  C   UNL     1      41.059 -12.140  -1.622  1.00  0.00     0.009 A 
HETATM   12  C   UNL     1      40.881 -13.467  -2.032  1.00  0.00     0.032 A 
HETATM   13  N   UNL     1      41.134 -15.830  -1.189  1.00  0.00    -0.277 N 
HETATM   14  H   UNL     1      40.825 -16.382  -1.981  1.00  0.00     0.189 HD
HETATM   15  N   UNL     1      41.522 -16.474  -0.076  1.00  0.00    -0.168 NA
ENDBRANCH   1   5
BRANCH   2  16
HETATM   16  C   UNL     1      42.416 -17.546   3.849  1.00  0.00     0.116 C 
HETATM   17  C   UNL     1      41.329 -17.847   4.891  1.00  0.00     0.037 C 
BRANCH  16  18
HETATM   18  C   UNL     1      43.192 -18.793   3.436  1.00  0.00    -0.003 A 
HETATM   19  C   UNL     1      44.267 -19.269   4.218  1.00  0.00     0.076 A 
HETATM   20  C   UNL     1      44.967 -20.414   3.816  1.00  0.00     0.037 A 
HETATM   21  C   UNL     1      44.632 -21.073   2.633  1.00  0.00     0.003 A 
HETATM   22  C   UNL     1      43.600 -20.592   1.836  1.00  0.00     0.001 A 
HETATM   23  C   UNL     1      42.892 -19.458   2.231  1.00  0.00     0.012 A 
BRANCH  19  24
HETATM   24  O   UNL     1      44.548 -18.561   5.357  1.00  0.00    -0.355 OA
HETATM   25  C   UNL     1      44.348 -19.220   6.601  1.00  0.00     0.210 C 
ENDBRANCH  19  24
ENDBRANCH  16  18
ENDBRANCH   2  16
TORSDOF 4
ENDMDL
MODEL 7
REMARK VINA RESULT:      -7.3      2.110      3.218
REMARK  4 active torsions:
REMARK  status: ('A' for Active; 'I' for Inactive)
REMARK    1  A    between atoms: C_9  and  C_10 
REMARK       I    between atoms: C_10  and  N_11 
REMARK    2  A    between atoms: N_11  and  C_12 
REMARK    3  A    between atoms: C_12  and  C_13 
REMARK    4  A    between atoms: C_14  and  O_15 
ROOT
HETATM    1  C   UNL     1      41.995 -16.238   5.759  1.00  0.00     0.273 C 
HETATM    2  N   UNL     1      42.763 -15.597   4.812  1.00  0.00    -0.347 N 
HETATM    3  O   UNL     1      40.874 -15.867   6.098  1.00  0.00    -0.266 OA
HETATM    4  H   UNL     1      43.588 -16.118   4.529  1.00  0.00     0.163 HD
ENDROOT
BRANCH   1   5
HETATM    5  C   UNL     1      42.651 -17.430   6.322  1.00  0.00     0.157 A 
HETATM    6  C   UNL     1      43.266 -18.498   5.604  1.00  0.00     0.029 A 
HETATM    7  C   UNL     1      43.459 -18.832   4.248  1.00  0.00     0.023 A 
HETATM    8  C   UNL     1      43.751 -19.359   6.581  1.00  0.00     0.063 A 
HETATM    9  C   UNL     1      44.128 -20.023   3.917  1.00  0.00    -0.061 A 
HETATM   10  C   UNL     1      44.325 -20.409   2.479  1.00  0.00     0.048 C 
HETATM   11  C   UNL     1      44.605 -20.859   4.934  1.00  0.00     0.009 A 
HETATM   12  C   UNL     1      44.429 -20.544   6.286  1.00  0.00     0.032 A 
HETATM   13  N   UNL     1      43.411 -18.779   7.772  1.00  0.00    -0.277 N 
HETATM   14  H   UNL     1      43.610 -19.130   8.701  1.00  0.00     0.189 HD
HETATM   15  N   UNL     1      42.737 -17.623   7.658  1.00  0.00    -0.168 NA
ENDBRANCH   1   5
BRANCH   2  16
HETATM   16  C   UNL     1      42.244 -14.571   3.926  1.00  0.00     0.116 C 
HETATM   17  C   UNL     1      43.160 -13.340   3.867  1.00  0.00     0.037 C 
BRANCH  16  18
HETATM   18  C   UNL     1      41.994 -15.181   2.549  1.00  0.00    -0.003 A 
HETATM   19  C   UNL     1      40.904 -14.760   1.758  1.00  0.00     0.076 A 
HETATM   20  C   UNL     1      40.692 -15.337   0.499  1.00  0.00     0.037 A 
HETATM   21  C   UNL     1      41.533 -16.348   0.031  1.00  0.00     0.003 A 
HETATM   22  C   UNL     1      42.587 -16.796   0.817  1.00  0.00     0.001 A 
HETATM   23  C   UNL     1      42.811 -16.223   2.068  1.00  0.00     0.012 A 
BRANCH  19  24
HETATM   24  O   UNL     1      40.112 -13.776   2.291  1.00  0.00    -0.355 OA
HETATM   25  C   UNL     1      38.812 -13.613   1.737  1.00  0.00     0.210 C 
ENDBRANCH  19  24
ENDBRANCH  16  18
ENDBRANCH   2  16
TORSDOF 4
ENDMDL
MODEL 8
REMARK VINA RESULT:      -7.2      3.175      5.342
REMARK  4 active torsions:
REMARK  status: ('A' for Active; 'I' for Inactive)
REMARK    1  A    between atoms: C_9  and  C_10 
REMARK       I    between atoms: C_10  and  N_11 
REMARK    2  A    between atoms: N_11  and  C_12 
REMARK    3  A    between atoms: C_12  and  C_13 
REMARK    4  A    between atoms: C_14  and  O_15 
ROOT
HETATM    1  C   UNL     1      44.390 -13.777   7.057  1.00  0.00     0.273 C 
HETATM    2  N   UNL     1      43.946 -12.928   8.047  1.00  0.00    -0.347 N 
HETATM    3  O   UNL     1      45.567 -14.084   6.896  1.00  0.00    -0.266 OA
HETATM    4  H   UNL     1      42.935 -12.905   8.148  1.00  0.00     0.163 HD
ENDROOT
BRANCH   1   5
HETATM    5  C   UNL     1      43.301 -14.295   6.212  1.00  0.00     0.157 A 
HETATM    6  C   UNL     1      43.058 -15.653   5.851  1.00  0.00     0.029 A 
HETATM    7  C   UNL     1      43.678 -16.895   6.095  1.00  0.00     0.023 A 
HETATM    8  C   UNL     1      41.912 -15.619   5.067  1.00  0.00     0.063 A 
HETATM    9  C   UNL     1      43.130 -18.064   5.537  1.00  0.00    -0.061 A 
HETATM   10  C   UNL     1      43.787 -19.394   5.766  1.00  0.00     0.048 C 
HETATM   11  C   UNL     1      41.970 -17.985   4.757  1.00  0.00     0.009 A 
HETATM   12  C   UNL     1      41.336 -16.762   4.506  1.00  0.00     0.032 A 
HETATM   13  N   UNL     1      41.555 -14.301   5.007  1.00  0.00    -0.277 N 
HETATM   14  H   UNL     1      40.760 -13.904   4.521  1.00  0.00     0.189 HD
HETATM   15  N   UNL     1      42.374 -13.470   5.674  1.00  0.00    -0.168 NA
ENDBRANCH   1   5
BRANCH   2  16
HETATM   16  C   UNL     1      44.771 -12.504   9.163  1.00  0.00     0.116 C 
HETATM   17  C   UNL     1      45.960 -11.644   8.710  1.00  0.00     0.037 C 
BRANCH  16  18
HETATM   18  C   UNL     1      43.893 -11.793  10.190  1.00  0.00    -0.003 A 
HETATM   19  C   UNL     1      43.034 -10.742   9.806  1.00  0.00     0.076 A 
HETATM   20  C   UNL     1      42.241 -10.102  10.767  1.00  0.00     0.037 A 
HETATM   21  C   UNL     1      42.315 -10.475  12.111  1.00  0.00     0.003 A 
HETATM   22  C   UNL     1      43.185 -11.483  12.506  1.00  0.00     0.001 A 
HETATM   23  C   UNL     1      43.973 -12.131  11.556  1.00  0.00     0.012 A 
BRANCH  19  24
HETATM   24  O   UNL     1      43.028 -10.421   8.473  1.00  0.00    -0.355 OA
HETATM   25  C   UNL     1      41.777 -10.076   7.891  1.00  0.00     0.210 C 
ENDBRANCH  19  24
ENDBRANCH  16  18
ENDBRANCH   2  16
TORSDOF 4
ENDMDL
MODEL 9
REMARK VINA RESULT:      -7.2      3.529      6.346
REMARK  4 active torsions:
REMARK  status: ('A' for Active; 'I' for Inactive)
REMARK    1  A    between atoms: C_9  and  C_10 
REMARK       I    between atoms: C_10  and  N_11 
REMARK    2  A    between atoms: N_11  and  C_12 
REMARK    3  A    between atoms: C_12  and  C_13 
REMARK    4  A    between atoms: C_14  and  O_15 
ROOT
HETATM    1  C   UNL     1      41.915 -17.013   1.746  1.00  0.00     0.273 C 
HETATM    2  N   UNL     1      42.932 -17.332   2.618  1.00  0.00    -0.347 N 
HETATM    3  O   UNL     1      41.081 -17.818   1.341  1.00  0.00    -0.266 OA
HETATM    4  H   UNL     1      43.433 -16.525   2.980  1.00  0.00     0.163 HD
ENDROOT
BRANCH   1   5
HETATM    5  C   UNL     1      41.917 -15.593   1.353  1.00  0.00     0.157 A 
HETATM    6  C   UNL     1      41.511 -15.042   0.102  1.00  0.00     0.029 A 
HETATM    7  C   UNL     1      41.027 -15.547  -1.121  1.00  0.00     0.023 A 
HETATM    8  C   UNL     1      41.683 -13.670   0.238  1.00  0.00     0.063 A 
HETATM    9  C   UNL     1      40.736 -14.658  -2.171  1.00  0.00    -0.061 A 
HETATM   10  C   UNL     1      40.240 -15.177  -3.490  1.00  0.00     0.048 C 
HETATM   11  C   UNL     1      40.919 -13.282  -1.989  1.00  0.00     0.009 A 
HETATM   12  C   UNL     1      41.394 -12.759  -0.780  1.00  0.00     0.032 A 
HETATM   13  N   UNL     1      42.161 -13.491   1.507  1.00  0.00    -0.277 N 
HETATM   14  H   UNL     1      42.398 -12.614   1.953  1.00  0.00     0.189 HD
HETATM   15  N   UNL     1      42.328 -14.627   2.205  1.00  0.00    -0.168 NA
ENDBRANCH   1   5
BRANCH   2  16
HETATM   16  C   UNL     1      42.988 -18.580   3.355  1.00  0.00     0.116 C 
HETATM   17  C   UNL     1      43.913 -19.607   2.686  1.00  0.00     0.037 C 
BRANCH  16  18
HETATM   18  C   UNL     1      43.385 -18.289   4.800  1.00  0.00    -0.003 A 
HETATM   19  C   UNL     1      42.495 -17.631   5.677  1.00  0.00     0.076 A 
HETATM   20  C   UNL     1      42.884 -17.372   6.997  1.00  0.00     0.037 A 
HETATM   21  C   UNL     1      44.155 -17.731   7.448  1.00  0.00     0.003 A 
HETATM   22  C   UNL     1      45.052 -18.346   6.583  1.00  0.00     0.001 A 
HETATM   23  C   UNL     1      44.672 -18.615   5.269  1.00  0.00     0.012 A 
BRANCH  19  24
HETATM   24  O   UNL     1      41.272 -17.294   5.159  1.00  0.00    -0.355 OA
HETATM   25  C   UNL     1      40.846 -15.946   5.317  1.00  0.00     0.210 C 
ENDBRANCH  19  24
ENDBRANCH  16  18
ENDBRANCH   2  16
TORSDOF 4
ENDMDL
MODEL 10
REMARK VINA RESULT:      -7.0      2.114      3.042
REMARK  4 active torsions:
REMARK  status: ('A' for Active; 'I' for Inactive)
REMARK    1  A    between atoms: C_9  and  C_10 
REMARK       I    between atoms: C_10  and  N_11 
REMARK    2  A    between atoms: N_11  and  C_12 
REMARK    3  A    between atoms: C_12  and  C_13 
REMARK    4  A    between atoms: C_14  and  O_15 
ROOT
HETATM    1  C   UNL     1      41.516 -16.441   6.196  1.00  0.00     0.273 C 
HETATM    2  N   UNL     1      42.106 -15.313   5.670  1.00  0.00    -0.347 N 
HETATM    3  O   UNL     1      40.320 -16.531   6.456  1.00  0.00    -0.266 OA
HETATM    4  H   UNL     1      43.064 -15.454   5.362  1.00  0.00     0.163 HD
ENDROOT
BRANCH   1   5
HETATM    5  C   UNL     1      42.469 -17.544   6.406  1.00  0.00     0.157 A 
HETATM    6  C   UNL     1      43.045 -18.390   5.412  1.00  0.00     0.029 A 
HETATM    7  C   UNL     1      42.945 -18.526   4.013  1.00  0.00     0.023 A 
HETATM    8  C   UNL     1      43.885 -19.248   6.110  1.00  0.00     0.063 A 
HETATM    9  C   UNL     1      43.688 -19.525   3.360  1.00  0.00    -0.061 A 
HETATM   10  C   UNL     1      43.580 -19.703   1.873  1.00  0.00     0.048 C 
HETATM   11  C   UNL     1      44.527 -20.366   4.102  1.00  0.00     0.009 A 
HETATM   12  C   UNL     1      44.645 -20.244   5.492  1.00  0.00     0.032 A 
HETATM   13  N   UNL     1      43.766 -18.881   7.422  1.00  0.00    -0.277 N 
HETATM   14  H   UNL     1      44.241 -19.290   8.217  1.00  0.00     0.189 HD
HETATM   15  N   UNL     1      42.912 -17.867   7.642  1.00  0.00    -0.168 NA
ENDBRANCH   1   5
BRANCH   2  16
HETATM   16  C   UNL     1      41.352 -14.199   5.126  1.00  0.00     0.116 C 
HETATM   17  C   UNL     1      42.148 -12.886   5.167  1.00  0.00     0.037 C 
BRANCH  16  18
HETATM   18  C   UNL     1      40.882 -14.554   3.718  1.00  0.00    -0.003 A 
HETATM   19  C   UNL     1      41.798 -14.994   2.738  1.00  0.00     0.076 A 
HETATM   20  C   UNL     1      41.344 -15.310   1.452  1.00  0.00     0.037 A 
HETATM   21  C   UNL     1      39.996 -15.167   1.119  1.00  0.00     0.003 A 
HETATM   22  C   UNL     1      39.091 -14.700   2.065  1.00  0.00     0.001 A 
HETATM   23  C   UNL     1      39.532 -14.389   3.350  1.00  0.00     0.012 A 
BRANCH  19  24
HETATM   24  O   UNL     1      43.107 -15.094   3.133  1.00  0.00    -0.355 OA
HETATM   25  C   UNL     1      43.982 -15.851   2.306  1.00  0.00     0.210 C 
ENDBRANCH  19  24
ENDBRANCH  16  18
ENDBRANCH   2  16
TORSDOF 4
ENDMDL
