MODEL 1
REMARK VINA RESULT:      -9.9      0.000      0.000
REMARK  4 active torsions:
REMARK  status: ('A' for Active; 'I' for Inactive)
REMARK    1  A    between atoms: C_7  and  C_8 
REMARK       I    between atoms: C_8  and  N_9 
REMARK    2  A    between atoms: N_9  and  N_10 
REMARK       I    between atoms: N_10  and  C_11 
REMARK    3  A    between atoms: C_11  and  C_12 
REMARK    4  A    between atoms: C_12  and  C_13 
ROOT
HETATM    1  C   UNL     1      44.674 -13.682   7.396  1.00  0.00     0.273 C 
HETATM    2  N   UNL     1      44.118 -14.944   7.506  1.00  0.00    -0.263 N 
HETATM    3  O   UNL     1      45.784 -13.497   6.900  1.00  0.00    -0.266 OA
HETATM    4  H   UNL     1      43.103 -15.014   7.565  1.00  0.00     0.190 HD
ENDROOT
BRANCH   2   5
HETATM    5  N   UNL     1      44.740 -15.999   6.798  1.00  0.00    -0.267 N 
HETATM    6  C   UNL     1      44.100 -17.220   6.835  1.00  0.00     0.240 C 
HETATM    7  O   UNL     1      43.139 -17.420   7.583  1.00  0.00    -0.272 OA
HETATM    8  H   UNL     1      45.274 -15.714   5.975  1.00  0.00     0.190 HD
BRANCH   6   9
HETATM    9  C   UNL     1      44.667 -18.338   5.979  1.00  0.00     0.144 C 
BRANCH   9  10
HETATM   10  C   UNL     1      44.109 -18.485   4.578  1.00  0.00    -0.038 A 
HETATM   11  C   UNL     1      44.162 -19.710   3.855  1.00  0.00    -0.019 A 
HETATM   12  C   UNL     1      43.634 -19.745   2.539  1.00  0.00    -0.025 A 
HETATM   13  C   UNL     1      44.713 -20.907   4.369  1.00  0.00     0.013 A 
HETATM   14  C   UNL     1      43.688 -20.932   1.788  1.00  0.00     0.012 A 
HETATM   15  C   UNL     1      43.056 -18.594   1.984  1.00  0.00     0.012 A 
HETATM   16  C   UNL     1      44.248 -22.091   2.320  1.00  0.00     0.001 A 
HETATM   17  C   UNL     1      44.755 -22.080   3.611  1.00  0.00     0.001 A 
HETATM   18  C   UNL     1      42.989 -17.409   2.707  1.00  0.00     0.001 A 
HETATM   19  C   UNL     1      43.510 -17.353   3.993  1.00  0.00     0.008 A 
ENDBRANCH   9  10
ENDBRANCH   6   9
ENDBRANCH   2   5
BRANCH   1  20
HETATM   20  C   UNL     1      43.808 -12.596   7.856  1.00  0.00     0.068 A 
HETATM   21  C   UNL     1      42.674 -12.087   7.227  1.00  0.00     0.022 A 
HETATM   22  C   UNL     1      41.962 -12.484   5.983  1.00  0.00     0.069 C 
HETATM   23  N   UNL     1      42.195 -11.058   8.003  1.00  0.00    -0.358 N 
HETATM   24  H   UNL     1      41.379 -10.500   7.792  1.00  0.00     0.166 HD
HETATM   25  C   UNL     1      42.962 -10.899   9.131  1.00  0.00     0.043 A 
HETATM   26  C   UNL     1      43.971 -11.859   9.078  1.00  0.00     0.008 A 
HETATM   27  C   UNL     1      42.834  -9.986  10.185  1.00  0.00     0.030 A 
HETATM   28  C   UNL     1      44.902 -11.907  10.137  1.00  0.00     0.015 A 
HETATM   29  C   UNL     1      44.792 -11.002  11.199  1.00  0.00     0.001 A 
HETATM   30  C   UNL     1      43.771 -10.056  11.219  1.00  0.00     0.002 A 
ENDBRANCH   1  20
TORSDOF 4
ENDMDL
MODEL 2
REMARK VINA RESULT:      -9.7      5.757      8.873
REMARK  4 active torsions:
REMARK  status: ('A' for Active; 'I' for Inactive)
REMARK    1  A    between atoms: C_7  and  C_8 
REMARK       I    between atoms: C_8  and  N_9 
REMARK    2  A    between atoms: N_9  and  N_10 
REMARK       I    between atoms: N_10  and  C_11 
REMARK    3  A    between atoms: C_11  and  C_12 
REMARK    4  A    between atoms: C_12  and  C_13 
ROOT
HETATM    1  C   UNL     1      41.084 -14.440  -0.459  1.00  0.00     0.273 C 
HETATM    2  N   UNL     1      41.090 -15.746  -0.001  1.00  0.00    -0.263 N 
HETATM    3  O   UNL     1      42.078 -13.719  -0.391  1.00  0.00    -0.266 OA
HETATM    4  H   UNL     1      40.411 -16.394  -0.399  1.00  0.00     0.190 HD
ENDROOT
BRANCH   2   5
HETATM    5  N   UNL     1      42.341 -16.326   0.314  1.00  0.00    -0.267 N 
HETATM    6  C   UNL     1      42.314 -17.425   1.146  1.00  0.00     0.240 C 
HETATM    7  O   UNL     1      41.276 -17.772   1.718  1.00  0.00    -0.272 OA
HETATM    8  H   UNL     1      43.056 -16.237  -0.411  1.00  0.00     0.190 HD
BRANCH   6   9
HETATM    9  C   UNL     1      43.623 -18.151   1.397  1.00  0.00     0.144 C 
BRANCH   9  10
HETATM   10  C   UNL     1      43.907 -18.587   2.821  1.00  0.00    -0.038 A 
HETATM   11  C   UNL     1      44.189 -19.938   3.167  1.00  0.00    -0.019 A 
HETATM   12  C   UNL     1      44.419 -20.256   4.531  1.00  0.00    -0.025 A 
HETATM   13  C   UNL     1      44.255 -20.996   2.231  1.00  0.00     0.013 A 
HETATM   14  C   UNL     1      44.680 -21.583   4.912  1.00  0.00     0.012 A 
HETATM   15  C   UNL     1      44.387 -19.244   5.502  1.00  0.00     0.012 A 
HETATM   16  C   UNL     1      44.727 -22.604   3.966  1.00  0.00     0.001 A 
HETATM   17  C   UNL     1      44.519 -22.310   2.626  1.00  0.00     0.001 A 
HETATM   18  C   UNL     1      44.133 -17.923   5.149  1.00  0.00     0.001 A 
HETATM   19  C   UNL     1      43.895 -17.596   3.820  1.00  0.00     0.008 A 
ENDBRANCH   9  10
ENDBRANCH   6   9
ENDBRANCH   2   5
BRANCH   1  20
HETATM   20  C   UNL     1      39.829 -14.023  -1.083  1.00  0.00     0.068 A 
HETATM   21  C   UNL     1      38.954 -13.027  -0.653  1.00  0.00     0.022 A 
HETATM   22  C   UNL     1      39.019 -12.065   0.479  1.00  0.00     0.069 C 
HETATM   23  N   UNL     1      37.893 -13.000  -1.528  1.00  0.00    -0.358 N 
HETATM   24  H   UNL     1      37.101 -12.375  -1.464  1.00  0.00     0.166 HD
HETATM   25  C   UNL     1      38.062 -13.925  -2.529  1.00  0.00     0.043 A 
HETATM   26  C   UNL     1      39.273 -14.571  -2.289  1.00  0.00     0.008 A 
HETATM   27  C   UNL     1      37.239 -14.229  -3.620  1.00  0.00     0.030 A 
HETATM   28  C   UNL     1      39.682 -15.577  -3.190  1.00  0.00     0.015 A 
HETATM   29  C   UNL     1      38.874 -15.897  -4.287  1.00  0.00     0.001 A 
HETATM   30  C   UNL     1      37.669 -15.231  -4.495  1.00  0.00     0.002 A 
ENDBRANCH   1  20
TORSDOF 4
ENDMDL
MODEL 3
REMARK VINA RESULT:      -9.7      5.645      8.124
REMARK  4 active torsions:
REMARK  status: ('A' for Active; 'I' for Inactive)
REMARK    1  A    between atoms: C_7  and  C_8 
REMARK       I    between atoms: C_8  and  N_9 
REMARK    2  A    between atoms: N_9  and  N_10 
REMARK       I    between atoms: N_10  and  C_11 
REMARK    3  A    between atoms: C_11  and  C_12 
REMARK    4  A    between atoms: C_12  and  C_13 
ROOT
HETATM    1  C   UNL     1      40.419 -14.770  -0.554  1.00  0.00     0.273 C 
HETATM    2  N   UNL     1      40.999 -16.017  -0.398  1.00  0.00    -0.263 N 
HETATM    3  O   UNL     1      39.563 -14.346   0.220  1.00  0.00    -0.266 OA
HETATM    4  H   UNL     1      41.921 -16.168  -0.805  1.00  0.00     0.190 HD
ENDROOT
BRANCH   2   5
HETATM    5  N   UNL     1      40.776 -16.697   0.821  1.00  0.00    -0.267 N 
HETATM    6  C   UNL     1      41.769 -16.590   1.772  1.00  0.00     0.240 C 
HETATM    7  O   UNL     1      42.861 -16.076   1.505  1.00  0.00    -0.272 OA
HETATM    8  H   UNL     1      39.796 -16.783   1.098  1.00  0.00     0.190 HD
BRANCH   6   9
HETATM    9  C   UNL     1      41.506 -17.195   3.138  1.00  0.00     0.144 C 
BRANCH   9  10
HETATM   10  C   UNL     1      42.684 -17.826   3.852  1.00  0.00    -0.038 A 
HETATM   11  C   UNL     1      43.321 -19.010   3.384  1.00  0.00    -0.019 A 
HETATM   12  C   UNL     1      44.403 -19.541   4.133  1.00  0.00    -0.025 A 
HETATM   13  C   UNL     1      42.940 -19.700   2.210  1.00  0.00     0.013 A 
HETATM   14  C   UNL     1      45.042 -20.719   3.712  1.00  0.00     0.012 A 
HETATM   15  C   UNL     1      44.838 -18.888   5.295  1.00  0.00     0.012 A 
HETATM   16  C   UNL     1      44.634 -21.381   2.556  1.00  0.00     0.001 A 
HETATM   17  C   UNL     1      43.588 -20.869   1.803  1.00  0.00     0.001 A 
HETATM   18  C   UNL     1      44.224 -17.719   5.731  1.00  0.00     0.001 A 
HETATM   19  C   UNL     1      43.157 -17.191   5.016  1.00  0.00     0.008 A 
ENDBRANCH   9  10
ENDBRANCH   6   9
ENDBRANCH   2   5
BRANCH   1  20
HETATM   20  C   UNL     1      40.957 -13.986  -1.665  1.00  0.00     0.068 A 
HETATM   21  C   UNL     1      40.866 -14.267  -3.027  1.00  0.00     0.022 A 
HETATM   22  C   UNL     1      40.183 -15.355  -3.778  1.00  0.00     0.069 C 
HETATM   23  N   UNL     1      41.539 -13.274  -3.702  1.00  0.00    -0.358 N 
HETATM   24  H   UNL     1      41.640 -13.218  -4.706  1.00  0.00     0.166 HD
HETATM   25  C   UNL     1      42.039 -12.342  -2.827  1.00  0.00     0.043 A 
HETATM   26  C   UNL     1      41.678 -12.749  -1.544  1.00  0.00     0.008 A 
HETATM   27  C   UNL     1      42.775 -11.177  -3.077  1.00  0.00     0.030 A 
HETATM   28  C   UNL     1      42.075 -11.948  -0.453  1.00  0.00     0.015 A 
HETATM   29  C   UNL     1      42.812 -10.781  -0.682  1.00  0.00     0.001 A 
HETATM   30  C   UNL     1      43.157 -10.404  -1.977  1.00  0.00     0.002 A 
ENDBRANCH   1  20
TORSDOF 4
ENDMDL
MODEL 4
REMARK VINA RESULT:      -9.5      4.807      9.207
REMARK  4 active torsions:
REMARK  status: ('A' for Active; 'I' for Inactive)
REMARK    1  A    between atoms: C_7  and  C_8 
REMARK       I    between atoms: C_8  and  N_9 
REMARK    2  A    between atoms: N_9  and  N_10 
REMARK       I    between atoms: N_10  and  C_11 
REMARK    3  A    between atoms: C_11  and  C_12 
REMARK    4  A    between atoms: C_12  and  C_13 
ROOT
HETATM    1  C   UNL     1      43.151 -17.044   3.826  1.00  0.00     0.273 C 
HETATM    2  N   UNL     1      43.621 -16.444   2.671  1.00  0.00    -0.263 N 
HETATM    3  O   UNL     1      42.197 -16.592   4.457  1.00  0.00    -0.266 OA
HETATM    4  H   UNL     1      44.132 -17.023   2.007  1.00  0.00     0.190 HD
ENDROOT
BRANCH   2   5
HETATM    5  N   UNL     1      42.818 -15.441   2.080  1.00  0.00    -0.267 N 
HETATM    6  C   UNL     1      41.953 -15.854   1.089  1.00  0.00     0.240 C 
HETATM    7  O   UNL     1      42.004 -16.999   0.629  1.00  0.00    -0.272 OA
HETATM    8  H   UNL     1      42.574 -14.662   2.694  1.00  0.00     0.190 HD
BRANCH   6   9
HETATM    9  C   UNL     1      40.985 -14.830   0.526  1.00  0.00     0.144 C 
BRANCH   9  10
HETATM   10  C   UNL     1      41.216 -14.374  -0.900  1.00  0.00    -0.038 A 
HETATM   11  C   UNL     1      41.799 -13.115  -1.218  1.00  0.00    -0.019 A 
HETATM   12  C   UNL     1      41.954 -12.763  -2.584  1.00  0.00    -0.025 A 
HETATM   13  C   UNL     1      42.236 -12.181  -0.251  1.00  0.00     0.013 A 
HETATM   14  C   UNL     1      42.507 -11.520  -2.935  1.00  0.00     0.012 A 
HETATM   15  C   UNL     1      41.557 -13.659  -3.588  1.00  0.00     0.012 A 
HETATM   16  C   UNL     1      42.917 -10.617  -1.957  1.00  0.00     0.001 A 
HETATM   17  C   UNL     1      42.787 -10.949  -0.616  1.00  0.00     0.001 A 
HETATM   18  C   UNL     1      41.011 -14.897  -3.266  1.00  0.00     0.001 A 
HETATM   19  C   UNL     1      40.841 -15.252  -1.934  1.00  0.00     0.008 A 
ENDBRANCH   9  10
ENDBRANCH   6   9
ENDBRANCH   2   5
BRANCH   1  20
HETATM   20  C   UNL     1      43.840 -18.283   4.187  1.00  0.00     0.068 A 
HETATM   21  C   UNL     1      44.590 -18.537   5.334  1.00  0.00     0.022 A 
HETATM   22  C   UNL     1      44.883 -17.713   6.536  1.00  0.00     0.069 C 
HETATM   23  N   UNL     1      45.071 -19.822   5.239  1.00  0.00    -0.358 N 
HETATM   24  H   UNL     1      45.651 -20.279   5.929  1.00  0.00     0.166 HD
HETATM   25  C   UNL     1      44.635 -20.423   4.084  1.00  0.00     0.043 A 
HETATM   26  C   UNL     1      43.846 -19.492   3.411  1.00  0.00     0.008 A 
HETATM   27  C   UNL     1      44.876 -21.712   3.594  1.00  0.00     0.030 A 
HETATM   28  C   UNL     1      43.269 -19.871   2.180  1.00  0.00     0.015 A 
HETATM   29  C   UNL     1      43.499 -21.155   1.673  1.00  0.00     0.001 A 
HETATM   30  C   UNL     1      44.293 -22.060   2.372  1.00  0.00     0.002 A 
ENDBRANCH   1  20
TORSDOF 4
ENDMDL
MODEL 5
REMARK VINA RESULT:      -9.5      2.125      3.695
REMARK  4 active torsions:
REMARK  status: ('A' for Active; 'I' for Inactive)
REMARK    1  A    between atoms: C_7  and  C_8 
REMARK       I    between atoms: C_8  and  N_9 
REMARK    2  A    between atoms: N_9  and  N_10 
REMARK       I    between atoms: N_10  and  C_11 
REMARK    3  A    between atoms: C_11  and  C_12 
REMARK    4  A    between atoms: C_12  and  C_13 
ROOT
HETATM    1  C   UNL     1      43.035 -11.344   8.527  1.00  0.00     0.273 C 
HETATM    2  N   UNL     1      43.596 -12.517   8.054  1.00  0.00    -0.263 N 
HETATM    3  O   UNL     1      42.317 -10.633   7.827  1.00  0.00    -0.266 OA
HETATM    4  H   UNL     1      43.853 -13.231   8.734  1.00  0.00     0.190 HD
ENDROOT
BRANCH   2   5
HETATM    5  N   UNL     1      43.118 -13.023   6.823  1.00  0.00    -0.267 N 
HETATM    6  C   UNL     1      43.931 -13.930   6.177  1.00  0.00     0.240 C 
HETATM    7  O   UNL     1      45.082 -14.151   6.566  1.00  0.00    -0.272 OA
HETATM    8  H   UNL     1      42.101 -13.086   6.745  1.00  0.00     0.190 HD
BRANCH   6   9
HETATM    9  C   UNL     1      43.391 -14.592   4.923  1.00  0.00     0.144 C 
BRANCH   9  10
HETATM   10  C   UNL     1      43.268 -16.103   4.940  1.00  0.00    -0.038 A 
HETATM   11  C   UNL     1      43.422 -16.898   3.770  1.00  0.00    -0.019 A 
HETATM   12  C   UNL     1      43.265 -18.304   3.878  1.00  0.00    -0.025 A 
HETATM   13  C   UNL     1      43.723 -16.373   2.492  1.00  0.00     0.013 A 
HETATM   14  C   UNL     1      43.390 -19.119   2.740  1.00  0.00     0.012 A 
HETATM   15  C   UNL     1      42.986 -18.885   5.124  1.00  0.00     0.012 A 
HETATM   16  C   UNL     1      43.676 -18.568   1.493  1.00  0.00     0.001 A 
HETATM   17  C   UNL     1      43.847 -17.197   1.370  1.00  0.00     0.001 A 
HETATM   18  C   UNL     1      42.861 -18.100   6.266  1.00  0.00     0.001 A 
HETATM   19  C   UNL     1      43.001 -16.721   6.176  1.00  0.00     0.008 A 
ENDBRANCH   9  10
ENDBRANCH   6   9
ENDBRANCH   2   5
BRANCH   1  20
HETATM   20  C   UNL     1      43.315 -11.064   9.936  1.00  0.00     0.068 A 
HETATM   21  C   UNL     1      44.555 -10.828  10.526  1.00  0.00     0.022 A 
HETATM   22  C   UNL     1      45.926 -10.726   9.959  1.00  0.00     0.069 C 
HETATM   23  N   UNL     1      44.345 -10.640  11.873  1.00  0.00    -0.358 N 
HETATM   24  H   UNL     1      45.067 -10.451  12.554  1.00  0.00     0.166 HD
HETATM   25  C   UNL     1      43.007 -10.716  12.173  1.00  0.00     0.043 A 
HETATM   26  C   UNL     1      42.333 -10.963  10.979  1.00  0.00     0.008 A 
HETATM   27  C   UNL     1      42.353 -10.581  13.403  1.00  0.00     0.030 A 
HETATM   28  C   UNL     1      40.928 -11.083  11.019  1.00  0.00     0.015 A 
HETATM   29  C   UNL     1      40.255 -10.953  12.239  1.00  0.00     0.001 A 
HETATM   30  C   UNL     1      40.961 -10.706  13.413  1.00  0.00     0.002 A 
ENDBRANCH   1  20
TORSDOF 4
ENDMDL
MODEL 6
REMARK VINA RESULT:      -9.4      2.064      2.640
REMARK  4 active torsions:
REMARK  status: ('A' for Active; 'I' for Inactive)
REMARK    1  A    between atoms: C_7  and  C_8 
REMARK       I    between atoms: C_8  and  N_9 
REMARK    2  A    between atoms: N_9  and  N_10 
REMARK       I    between atoms: N_10  and  C_11 
REMARK    3  A    between atoms: C_11  and  C_12 
REMARK    4  A    between atoms: C_12  and  C_13 
ROOT
HETATM    1  C   UNL     1      42.725 -13.529   5.629  1.00  0.00     0.273 C 
HETATM    2  N   UNL     1      42.820 -14.604   6.496  1.00  0.00    -0.263 N 
HETATM    3  O   UNL     1      43.586 -13.293   4.784  1.00  0.00    -0.266 OA
HETATM    4  H   UNL     1      41.958 -14.970   6.898  1.00  0.00     0.190 HD
ENDROOT
BRANCH   2   5
HETATM    5  N   UNL     1      43.803 -15.583   6.222  1.00  0.00    -0.267 N 
HETATM    6  C   UNL     1      43.366 -16.890   6.167  1.00  0.00     0.240 C 
HETATM    7  O   UNL     1      42.220 -17.199   6.510  1.00  0.00    -0.272 OA
HETATM    8  H   UNL     1      44.579 -15.267   5.637  1.00  0.00     0.190 HD
BRANCH   6   9
HETATM    9  C   UNL     1      44.366 -17.950   5.745  1.00  0.00     0.144 C 
BRANCH   9  10
HETATM   10  C   UNL     1      44.166 -18.584   4.383  1.00  0.00    -0.038 A 
HETATM   11  C   UNL     1      44.341 -19.977   4.152  1.00  0.00    -0.019 A 
HETATM   12  C   UNL     1      44.154 -20.477   2.837  1.00  0.00    -0.025 A 
HETATM   13  C   UNL     1      44.693 -20.907   5.158  1.00  0.00     0.013 A 
HETATM   14  C   UNL     1      44.338 -21.843   2.568  1.00  0.00     0.012 A 
HETATM   15  C   UNL     1      43.784 -19.605   1.802  1.00  0.00     0.012 A 
HETATM   16  C   UNL     1      44.697 -22.731   3.580  1.00  0.00     0.001 A 
HETATM   17  C   UNL     1      44.869 -22.263   4.875  1.00  0.00     0.001 A 
HETATM   18  C   UNL     1      43.593 -18.249   2.044  1.00  0.00     0.001 A 
HETATM   19  C   UNL     1      43.782 -17.742   3.323  1.00  0.00     0.008 A 
ENDBRANCH   9  10
ENDBRANCH   6   9
ENDBRANCH   2   5
BRANCH   1  20
HETATM   20  C   UNL     1      41.493 -12.751   5.763  1.00  0.00     0.068 A 
HETATM   21  C   UNL     1      40.282 -12.954   5.103  1.00  0.00     0.022 A 
HETATM   22  C   UNL     1      39.832 -13.998   4.144  1.00  0.00     0.069 C 
HETATM   23  N   UNL     1      39.415 -11.969   5.515  1.00  0.00    -0.358 N 
HETATM   24  H   UNL     1      38.461 -11.865   5.200  1.00  0.00     0.166 HD
HETATM   25  C   UNL     1      40.011 -11.150   6.443  1.00  0.00     0.043 A 
HETATM   26  C   UNL     1      41.308 -11.624   6.633  1.00  0.00     0.008 A 
HETATM   27  C   UNL     1      39.499 -10.039   7.122  1.00  0.00     0.030 A 
HETATM   28  C   UNL     1      42.137 -10.947   7.553  1.00  0.00     0.015 A 
HETATM   29  C   UNL     1      41.644  -9.833   8.241  1.00  0.00     0.001 A 
HETATM   30  C   UNL     1      40.342  -9.387   8.026  1.00  0.00     0.002 A 
ENDBRANCH   1  20
TORSDOF 4
ENDMDL
MODEL 7
REMARK VINA RESULT:      -9.3      5.116      7.331
REMARK  4 active torsions:
REMARK  status: ('A' for Active; 'I' for Inactive)
REMARK    1  A    between atoms: C_7  and  C_8 
REMARK       I    between atoms: C_8  and  N_9 
REMARK    2  A    between atoms: N_9  and  N_10 
REMARK       I    between atoms: N_10  and  C_11 
REMARK    3  A    between atoms: C_11  and  C_12 
REMARK    4  A    between atoms: C_12  and  C_13 
ROOT
HETATM    1  C   UNL     1      41.411 -14.582   0.417  1.00  0.00     0.273 C 
HETATM    2  N   UNL     1      42.496 -15.436   0.339  1.00  0.00    -0.263 N 
HETATM    3  O   UNL     1      40.266 -14.993   0.599  1.00  0.00    -0.266 OA
HETATM    4  H   UNL     1      43.417 -15.059   0.560  1.00  0.00     0.190 HD
ENDROOT
BRANCH   2   5
HETATM    5  N   UNL     1      42.302 -16.781   0.732  1.00  0.00    -0.267 N 
HETATM    6  C   UNL     1      43.412 -17.444   1.212  1.00  0.00     0.240 C 
HETATM    7  O   UNL     1      44.540 -16.945   1.139  1.00  0.00    -0.272 OA
HETATM    8  H   UNL     1      41.369 -17.000   1.086  1.00  0.00     0.190 HD
BRANCH   6   9
HETATM    9  C   UNL     1      43.212 -18.843   1.765  1.00  0.00     0.144 C 
BRANCH   9  10
HETATM   10  C   UNL     1      43.632 -19.082   3.202  1.00  0.00    -0.038 A 
HETATM   11  C   UNL     1      44.095 -20.346   3.665  1.00  0.00    -0.019 A 
HETATM   12  C   UNL     1      44.443 -20.482   5.033  1.00  0.00    -0.025 A 
HETATM   13  C   UNL     1      44.231 -21.488   2.841  1.00  0.00     0.013 A 
HETATM   14  C   UNL     1      44.885 -21.720   5.531  1.00  0.00     0.012 A 
HETATM   15  C   UNL     1      44.349 -19.378   5.894  1.00  0.00     0.012 A 
HETATM   16  C   UNL     1      44.996 -22.828   4.695  1.00  0.00     0.001 A 
HETATM   17  C   UNL     1      44.675 -22.711   3.350  1.00  0.00     0.001 A 
HETATM   18  C   UNL     1      43.917 -18.142   5.426  1.00  0.00     0.001 A 
HETATM   19  C   UNL     1      43.562 -17.994   4.091  1.00  0.00     0.008 A 
ENDBRANCH   9  10
ENDBRANCH   6   9
ENDBRANCH   2   5
BRANCH   1  20
HETATM   20  C   UNL     1      41.751 -13.161   0.333  1.00  0.00     0.068 A 
HETATM   21  C   UNL     1      41.828 -12.241   1.376  1.00  0.00     0.022 A 
HETATM   22  C   UNL     1      41.662 -12.385   2.847  1.00  0.00     0.069 C 
HETATM   23  N   UNL     1      42.152 -11.021   0.831  1.00  0.00    -0.358 N 
HETATM   24  H   UNL     1      42.274 -10.164   1.352  1.00  0.00     0.166 HD
HETATM   25  C   UNL     1      42.318 -11.122  -0.529  1.00  0.00     0.043 A 
HETATM   26  C   UNL     1      42.090 -12.454  -0.870  1.00  0.00     0.008 A 
HETATM   27  C   UNL     1      42.653 -10.141  -1.470  1.00  0.00     0.030 A 
HETATM   28  C   UNL     1      42.204 -12.823  -2.227  1.00  0.00     0.015 A 
HETATM   29  C   UNL     1      42.537 -11.857  -3.184  1.00  0.00     0.001 A 
HETATM   30  C   UNL     1      42.757 -10.535  -2.807  1.00  0.00     0.002 A 
ENDBRANCH   1  20
TORSDOF 4
ENDMDL
MODEL 8
REMARK VINA RESULT:      -9.2      6.212      8.905
REMARK  4 active torsions:
REMARK  status: ('A' for Active; 'I' for Inactive)
REMARK    1  A    between atoms: C_7  and  C_8 
REMARK       I    between atoms: C_8  and  N_9 
REMARK    2  A    between atoms: N_9  and  N_10 
REMARK       I    between atoms: N_10  and  C_11 
REMARK    3  A    between atoms: C_11  and  C_12 
REMARK    4  A    between atoms: C_12  and  C_13 
ROOT
HETATM    1  C   UNL     1      40.678 -15.067  -1.327  1.00  0.00     0.273 C 
HETATM    2  N   UNL     1      40.242 -14.771  -0.048  1.00  0.00    -0.263 N 
HETATM    3  O   UNL     1      41.220 -16.136  -1.602  1.00  0.00    -0.266 OA
HETATM    4  H   UNL     1      39.499 -14.081   0.055  1.00  0.00     0.190 HD
ENDROOT
BRANCH   2   5
HETATM    5  N   UNL     1      40.195 -15.829   0.891  1.00  0.00    -0.267 N 
HETATM    6  C   UNL     1      41.203 -15.857   1.831  1.00  0.00     0.240 C 
HETATM    7  O   UNL     1      42.180 -15.107   1.748  1.00  0.00    -0.272 OA
HETATM    8  H   UNL     1      39.257 -16.164   1.120  1.00  0.00     0.190 HD
BRANCH   6   9
HETATM    9  C   UNL     1      41.110 -16.898   2.931  1.00  0.00     0.144 C 
BRANCH   9  10
HETATM   10  C   UNL     1      42.256 -17.884   3.046  1.00  0.00    -0.038 A 
HETATM   11  C   UNL     1      43.105 -17.944   4.187  1.00  0.00    -0.019 A 
HETATM   12  C   UNL     1      44.167 -18.884   4.195  1.00  0.00    -0.025 A 
HETATM   13  C   UNL     1      42.957 -17.119   5.326  1.00  0.00     0.013 A 
HETATM   14  C   UNL     1      45.037 -18.958   5.295  1.00  0.00     0.012 A 
HETATM   15  C   UNL     1      44.351 -19.744   3.102  1.00  0.00     0.012 A 
HETATM   16  C   UNL     1      44.871 -18.122   6.397  1.00  0.00     0.001 A 
HETATM   17  C   UNL     1      43.828 -17.207   6.414  1.00  0.00     0.001 A 
HETATM   18  C   UNL     1      43.501 -19.692   2.001  1.00  0.00     0.001 A 
HETATM   19  C   UNL     1      42.463 -18.771   1.973  1.00  0.00     0.008 A 
ENDBRANCH   9  10
ENDBRANCH   6   9
ENDBRANCH   2   5
BRANCH   1  20
HETATM   20  C   UNL     1      40.382 -14.036  -2.321  1.00  0.00     0.068 A 
HETATM   21  C   UNL     1      39.317 -14.001  -3.219  1.00  0.00     0.022 A 
HETATM   22  C   UNL     1      38.156 -14.908  -3.425  1.00  0.00     0.069 C 
HETATM   23  N   UNL     1      39.452 -12.863  -3.980  1.00  0.00    -0.358 N 
HETATM   24  H   UNL     1      38.822 -12.576  -4.716  1.00  0.00     0.166 HD
HETATM   25  C   UNL     1      40.552 -12.141  -3.587  1.00  0.00     0.043 A 
HETATM   26  C   UNL     1      41.147 -12.840  -2.538  1.00  0.00     0.008 A 
HETATM   27  C   UNL     1      41.055 -10.930  -4.078  1.00  0.00     0.030 A 
HETATM   28  C   UNL     1      42.309 -12.297  -1.950  1.00  0.00     0.015 A 
HETATM   29  C   UNL     1      42.829 -11.089  -2.427  1.00  0.00     0.001 A 
HETATM   30  C   UNL     1      42.208 -10.417  -3.477  1.00  0.00     0.002 A 
ENDBRANCH   1  20
TORSDOF 4
ENDMDL
MODEL 9
REMARK VINA RESULT:      -9.2      5.018      7.750
REMARK  4 active torsions:
REMARK  status: ('A' for Active; 'I' for Inactive)
REMARK    1  A    between atoms: C_7  and  C_8 
REMARK       I    between atoms: C_8  and  N_9 
REMARK    2  A    between atoms: N_9  and  N_10 
REMARK       I    between atoms: N_10  and  C_11 
REMARK    3  A    between atoms: C_11  and  C_12 
REMARK    4  A    between atoms: C_12  and  C_13 
ROOT
HETATM    1  C   UNL     1      41.271 -14.682   0.443  1.00  0.00     0.273 C 
HETATM    2  N   UNL     1      42.240 -15.613   0.118  1.00  0.00    -0.263 N 
HETATM    3  O   UNL     1      40.171 -15.010   0.884  1.00  0.00    -0.266 OA
HETATM    4  H   UNL     1      43.213 -15.310   0.121  1.00  0.00     0.190 HD
ENDROOT
BRANCH   2   5
HETATM    5  N   UNL     1      42.040 -16.947   0.545  1.00  0.00    -0.267 N 
HETATM    6  C   UNL     1      43.071 -17.523   1.256  1.00  0.00     0.240 C 
HETATM    7  O   UNL     1      44.169 -16.967   1.360  1.00  0.00    -0.272 OA
HETATM    8  H   UNL     1      41.068 -17.200   0.736  1.00  0.00     0.190 HD
BRANCH   6   9
HETATM    9  C   UNL     1      42.837 -18.903   1.843  1.00  0.00     0.144 C 
BRANCH   9  10
HETATM   10  C   UNL     1      43.420 -19.176   3.215  1.00  0.00    -0.038 A 
HETATM   11  C   UNL     1      42.939 -18.542   4.394  1.00  0.00    -0.019 A 
HETATM   12  C   UNL     1      43.564 -18.843   5.631  1.00  0.00    -0.025 A 
HETATM   13  C   UNL     1      41.867 -17.619   4.412  1.00  0.00     0.013 A 
HETATM   14  C   UNL     1      43.128 -18.220   6.813  1.00  0.00     0.012 A 
HETATM   15  C   UNL     1      44.619 -19.766   5.678  1.00  0.00     0.012 A 
HETATM   16  C   UNL     1      42.076 -17.306   6.795  1.00  0.00     0.001 A 
HETATM   17  C   UNL     1      41.443 -17.010   5.597  1.00  0.00     0.001 A 
HETATM   18  C   UNL     1      45.066 -20.398   4.523  1.00  0.00     0.001 A 
HETATM   19  C   UNL     1      44.473 -20.107   3.301  1.00  0.00     0.008 A 
ENDBRANCH   9  10
ENDBRANCH   6   9
ENDBRANCH   2   5
BRANCH   1  20
HETATM   20  C   UNL     1      41.690 -13.290   0.282  1.00  0.00     0.068 A 
HETATM   21  C   UNL     1      41.864 -12.332   1.279  1.00  0.00     0.022 A 
HETATM   22  C   UNL     1      41.751 -12.404   2.761  1.00  0.00     0.069 C 
HETATM   23  N   UNL     1      42.237 -11.158   0.667  1.00  0.00    -0.358 N 
HETATM   24  H   UNL     1      42.431 -10.289   1.144  1.00  0.00     0.166 HD
HETATM   25  C   UNL     1      42.340 -11.327  -0.692  1.00  0.00     0.043 A 
HETATM   26  C   UNL     1      42.021 -12.656  -0.964  1.00  0.00     0.008 A 
HETATM   27  C   UNL     1      42.693 -10.409  -1.688  1.00  0.00     0.030 A 
HETATM   28  C   UNL     1      42.056 -13.089  -2.307  1.00  0.00     0.015 A 
HETATM   29  C   UNL     1      42.405 -12.186  -3.317  1.00  0.00     0.001 A 
HETATM   30  C   UNL     1      42.718 -10.865  -3.009  1.00  0.00     0.002 A 
ENDBRANCH   1  20
TORSDOF 4
ENDMDL
MODEL 10
REMARK VINA RESULT:      -9.2      4.452      8.684
REMARK  4 active torsions:
REMARK  status: ('A' for Active; 'I' for Inactive)
REMARK    1  A    between atoms: C_7  and  C_8 
REMARK       I    between atoms: C_8  and  N_9 
REMARK    2  A    between atoms: N_9  and  N_10 
REMARK       I    between atoms: N_10  and  C_11 
REMARK    3  A    between atoms: C_11  and  C_12 
REMARK    4  A    between atoms: C_12  and  C_13 
ROOT
HETATM    1  C   UNL     1      42.744 -16.820   3.871  1.00  0.00     0.273 C 
HETATM    2  N   UNL     1      43.311 -16.036   2.882  1.00  0.00    -0.263 N 
HETATM    3  O   UNL     1      41.636 -16.575   4.345  1.00  0.00    -0.266 OA
HETATM    4  H   UNL     1      44.014 -16.463   2.280  1.00  0.00     0.190 HD
ENDROOT
BRANCH   2   5
HETATM    5  N   UNL     1      42.480 -15.091   2.237  1.00  0.00    -0.267 N 
HETATM    6  C   UNL     1      42.772 -13.763   2.466  1.00  0.00     0.240 C 
HETATM    7  O   UNL     1      43.597 -13.425   3.320  1.00  0.00    -0.272 OA
HETATM    8  H   UNL     1      42.094 -15.394   1.341  1.00  0.00     0.190 HD
BRANCH   6   9
HETATM    9  C   UNL     1      41.986 -12.725   1.686  1.00  0.00     0.144 C 
BRANCH   9  10
HETATM   10  C   UNL     1      40.725 -13.195   0.989  1.00  0.00    -0.038 A 
HETATM   11  C   UNL     1      40.689 -13.517  -0.396  1.00  0.00    -0.019 A 
HETATM   12  C   UNL     1      39.456 -13.926  -0.967  1.00  0.00    -0.025 A 
HETATM   13  C   UNL     1      41.814 -13.455  -1.251  1.00  0.00     0.013 A 
HETATM   14  C   UNL     1      39.378 -14.232  -2.336  1.00  0.00     0.012 A 
HETATM   15  C   UNL     1      38.311 -14.026  -0.164  1.00  0.00     0.012 A 
HETATM   16  C   UNL     1      40.503 -14.149  -3.153  1.00  0.00     0.001 A 
HETATM   17  C   UNL     1      41.721 -13.766  -2.610  1.00  0.00     0.001 A 
HETATM   18  C   UNL     1      38.362 -13.731   1.195  1.00  0.00     0.001 A 
HETATM   19  C   UNL     1      39.559 -13.319   1.767  1.00  0.00     0.008 A 
ENDBRANCH   9  10
ENDBRANCH   6   9
ENDBRANCH   2   5
BRANCH   1  20
HETATM   20  C   UNL     1      43.541 -17.988   4.250  1.00  0.00     0.068 A 
HETATM   21  C   UNL     1      44.290 -18.167   5.411  1.00  0.00     0.022 A 
HETATM   22  C   UNL     1      44.480 -17.316   6.616  1.00  0.00     0.069 C 
HETATM   23  N   UNL     1      44.893 -19.401   5.329  1.00  0.00    -0.358 N 
HETATM   24  H   UNL     1      45.501 -19.799   6.032  1.00  0.00     0.166 HD
HETATM   25  C   UNL     1      44.538 -20.042   4.168  1.00  0.00     0.043 A 
HETATM   26  C   UNL     1      43.677 -19.191   3.477  1.00  0.00     0.008 A 
HETATM   27  C   UNL     1      44.910 -21.303   3.688  1.00  0.00     0.030 A 
HETATM   28  C   UNL     1      43.163 -19.626   2.238  1.00  0.00     0.015 A 
HETATM   29  C   UNL     1      43.523 -20.883   1.739  1.00  0.00     0.001 A 
HETATM   30  C   UNL     1      44.387 -21.707   2.456  1.00  0.00     0.002 A 
ENDBRANCH   1  20
TORSDOF 4
ENDMDL
