MODEL 1
REMARK VINA RESULT:      -8.7      0.000      0.000
REMARK  5 active torsions:
REMARK  status: ('A' for Active; 'I' for Inactive)
REMARK    1  A    between atoms: C_2  and  C_3 
REMARK    2  A    between atoms: C_3  and  N_4 
REMARK    3  A    between atoms: N_8  and  C_10 
REMARK    4  A    between atoms: C_10  and  C_11 
REMARK    5  A    between atoms: C_14  and  C_15 
ROOT
HETATM    1  N   UNL     1      39.821 -14.059  -1.970  1.00  0.00     0.104 N 
HETATM    2  C   UNL     1      40.734 -13.620  -0.840  1.00  0.00     0.206 C 
HETATM    3  C   UNL     1      41.745 -14.710  -0.405  1.00  0.00     0.076 C 
HETATM    4  C   UNL     1      41.030 -15.962   0.094  1.00  0.00     0.238 C 
HETATM    5  N   UNL     1      40.175 -15.643   1.301  1.00  0.00    -0.065 N 
HETATM    6  H   UNL     1      39.615 -16.495   1.451  1.00  0.00     0.280 HD
HETATM    7  C   UNL     1      39.181 -14.551   0.995  1.00  0.00     0.238 C 
HETATM    8  C   UNL     1      39.879 -13.313   0.429  1.00  0.00     0.076 C 
HETATM    9  C   UNL     1      41.459 -12.353  -1.253  1.00  0.00     0.072 A 
HETATM   10  C   UNL     1      41.044 -11.521  -2.274  1.00  0.00     0.037 A 
HETATM   11  N   UNL     1      41.952 -10.487  -2.332  1.00  0.00    -0.354 N 
HETATM   12  H   UNL     1      41.927  -9.713  -2.996  1.00  0.00     0.166 HD
HETATM   13  C   UNL     1      42.900 -10.644  -1.403  1.00  0.00     0.181 A 
HETATM   14  N   UNL     1      42.604 -11.771  -0.736  1.00  0.00    -0.352 N 
HETATM   15  H   UNL     1      43.188 -12.124   0.021  1.00  0.00     0.166 HD
HETATM   16  C   UNL     1      39.878 -11.758  -3.145  1.00  0.00     0.089 C 
HETATM   17  C   UNL     1      39.033 -12.907  -2.538  1.00  0.00     0.280 C 
ENDROOT
BRANCH   1  18
HETATM   18  C   UNL     1      40.505 -14.799  -3.069  1.00  0.00     0.273 C 
BRANCH  18  19
HETATM   19  C   UNL     1      39.931 -16.188  -3.398  1.00  0.00     0.026 C 
HETATM   20  C   UNL     1      38.812 -16.145  -4.429  1.00  0.00     0.007 C 
ENDBRANCH  18  19
ENDBRANCH   1  18
BRANCH   5  21
HETATM   21  C   UNL     1      40.907 -15.464   2.636  1.00  0.00     0.301 C 
BRANCH  21  22
HETATM   22  C   UNL     1      41.938 -16.491   2.870  1.00  0.00     0.107 A 
HETATM   23  O   UNL     1      43.199 -16.125   2.526  1.00  0.00    -0.216 OA
HETATM   24  N   UNL     1      44.016 -17.226   2.541  1.00  0.00    -0.128 NA
HETATM   25  C   UNL     1      43.267 -18.256   2.967  1.00  0.00     0.097 A 
HETATM   26  C   UNL     1      41.939 -17.814   3.239  1.00  0.00     0.071 A 
BRANCH  25  27
HETATM   27  C   UNL     1      43.777 -19.621   3.011  1.00  0.00    -0.005 A 
HETATM   28  C   UNL     1      43.578 -20.480   1.917  1.00  0.00     0.014 A 
HETATM   29  C   UNL     1      43.995 -21.810   1.976  1.00  0.00     0.001 A 
HETATM   30  C   UNL     1      44.624 -22.293   3.120  1.00  0.00     0.000 A 
HETATM   31  C   UNL     1      44.843 -21.445   4.206  1.00  0.00     0.001 A 
HETATM   32  C   UNL     1      44.418 -20.115   4.155  1.00  0.00     0.014 A 
ENDBRANCH  25  27
ENDBRANCH  21  22
ENDBRANCH   5  21
TORSDOF 5
ENDMDL
MODEL 2
REMARK VINA RESULT:      -8.6      1.337      3.263
REMARK  5 active torsions:
REMARK  status: ('A' for Active; 'I' for Inactive)
REMARK    1  A    between atoms: C_2  and  C_3 
REMARK    2  A    between atoms: C_3  and  N_4 
REMARK    3  A    between atoms: N_8  and  C_10 
REMARK    4  A    between atoms: C_10  and  C_11 
REMARK    5  A    between atoms: C_14  and  C_15 
ROOT
HETATM    1  N   UNL     1      41.725 -12.682  -1.426  1.00  0.00     0.104 N 
HETATM    2  C   UNL     1      40.680 -13.596  -0.812  1.00  0.00     0.206 C 
HETATM    3  C   UNL     1      40.000 -12.998   0.444  1.00  0.00     0.076 C 
HETATM    4  C   UNL     1      41.018 -12.722   1.547  1.00  0.00     0.238 C 
HETATM    5  N   UNL     1      41.699 -14.002   1.978  1.00  0.00    -0.065 N 
HETATM    6  H   UNL     1      42.470 -13.689   2.587  1.00  0.00     0.280 HD
HETATM    7  C   UNL     1      42.358 -14.692   0.810  1.00  0.00     0.238 C 
HETATM    8  C   UNL     1      41.363 -14.914  -0.330  1.00  0.00     0.076 C 
HETATM    9  C   UNL     1      39.645 -13.945  -1.865  1.00  0.00     0.072 A 
HETATM   10  C   UNL     1      39.850 -13.815  -3.225  1.00  0.00     0.037 A 
HETATM   11  N   UNL     1      38.691 -14.235  -3.838  1.00  0.00    -0.354 N 
HETATM   12  H   UNL     1      38.524 -14.247  -4.845  1.00  0.00     0.166 HD
HETATM   13  C   UNL     1      37.789 -14.612  -2.927  1.00  0.00     0.181 A 
HETATM   14  N   UNL     1      38.363 -14.447  -1.724  1.00  0.00    -0.352 N 
HETATM   15  H   UNL     1      37.872 -14.651  -0.856  1.00  0.00     0.166 HD
HETATM   16  C   UNL     1      41.069 -13.276  -3.855  1.00  0.00     0.089 C 
HETATM   17  C   UNL     1      42.179 -13.174  -2.777  1.00  0.00     0.280 C 
ENDROOT
BRANCH   1  18
HETATM   18  C   UNL     1      41.321 -11.250  -1.515  1.00  0.00     0.273 C 
BRANCH  18  19
HETATM   19  C   UNL     1      42.362 -10.300  -2.132  1.00  0.00     0.026 C 
HETATM   20  C   UNL     1      43.553 -10.041  -1.220  1.00  0.00     0.007 C 
ENDBRANCH  18  19
ENDBRANCH   1  18
BRANCH   5  21
HETATM   21  C   UNL     1      40.893 -14.940   2.884  1.00  0.00     0.301 C 
BRANCH  21  22
HETATM   22  C   UNL     1      41.638 -16.154   3.266  1.00  0.00     0.107 A 
HETATM   23  O   UNL     1      42.638 -15.953   4.161  1.00  0.00    -0.216 OA
HETATM   24  N   UNL     1      43.415 -17.080   4.241  1.00  0.00    -0.128 NA
HETATM   25  C   UNL     1      42.844 -17.999   3.445  1.00  0.00     0.097 A 
HETATM   26  C   UNL     1      41.671 -17.459   2.841  1.00  0.00     0.071 A 
BRANCH  25  27
HETATM   27  C   UNL     1      43.455 -19.300   3.198  1.00  0.00    -0.005 A 
HETATM   28  C   UNL     1      43.158 -20.000   2.017  1.00  0.00     0.014 A 
HETATM   29  C   UNL     1      43.676 -21.277   1.801  1.00  0.00     0.001 A 
HETATM   30  C   UNL     1      44.504 -21.863   2.755  1.00  0.00     0.000 A 
HETATM   31  C   UNL     1      44.819 -21.170   3.924  1.00  0.00     0.001 A 
HETATM   32  C   UNL     1      44.295 -19.895   4.148  1.00  0.00     0.014 A 
ENDBRANCH  25  27
ENDBRANCH  21  22
ENDBRANCH   5  21
TORSDOF 5
ENDMDL
MODEL 3
REMARK VINA RESULT:      -8.3      6.731      8.896
REMARK  5 active torsions:
REMARK  status: ('A' for Active; 'I' for Inactive)
REMARK    1  A    between atoms: C_2  and  C_3 
REMARK    2  A    between atoms: C_3  and  N_4 
REMARK    3  A    between atoms: N_8  and  C_10 
REMARK    4  A    between atoms: C_10  and  C_11 
REMARK    5  A    between atoms: C_14  and  C_15 
ROOT
HETATM    1  N   UNL     1      41.699 -15.517   3.867  1.00  0.00     0.104 N 
HETATM    2  C   UNL     1      41.703 -14.014   3.654  1.00  0.00     0.206 C 
HETATM    3  C   UNL     1      42.862 -13.291   4.384  1.00  0.00     0.076 C 
HETATM    4  C   UNL     1      42.784 -13.502   5.893  1.00  0.00     0.238 C 
HETATM    5  N   UNL     1      41.493 -12.940   6.445  1.00  0.00    -0.065 N 
HETATM    6  H   UNL     1      41.461 -13.279   7.418  1.00  0.00     0.280 HD
HETATM    7  C   UNL     1      40.293 -13.548   5.762  1.00  0.00     0.238 C 
HETATM    8  C   UNL     1      40.393 -13.403   4.242  1.00  0.00     0.076 C 
HETATM    9  C   UNL     1      41.746 -13.724   2.165  1.00  0.00     0.072 A 
HETATM   10  C   UNL     1      41.404 -14.639   1.189  1.00  0.00     0.037 A 
HETATM   11  N   UNL     1      41.565 -14.000  -0.020  1.00  0.00    -0.354 N 
HETATM   12  H   UNL     1      41.405 -14.418  -0.938  1.00  0.00     0.166 HD
HETATM   13  C   UNL     1      41.990 -12.746   0.165  1.00  0.00     0.181 A 
HETATM   14  N   UNL     1      42.094 -12.566   1.491  1.00  0.00    -0.352 N 
HETATM   15  H   UNL     1      42.416 -11.689   1.897  1.00  0.00     0.166 HD
HETATM   16  C   UNL     1      41.001 -16.036   1.433  1.00  0.00     0.089 C 
HETATM   17  C   UNL     1      40.727 -16.213   2.949  1.00  0.00     0.280 C 
ENDROOT
BRANCH   1  18
HETATM   18  C   UNL     1      43.040 -16.161   3.772  1.00  0.00     0.273 C 
BRANCH  18  19
HETATM   19  C   UNL     1      43.075 -17.675   4.041  1.00  0.00     0.026 C 
HETATM   20  C   UNL     1      43.786 -18.461   2.948  1.00  0.00     0.007 C 
ENDBRANCH  18  19
ENDBRANCH   1  18
BRANCH   5  21
HETATM   21  C   UNL     1      41.416 -11.416   6.600  1.00  0.00     0.301 C 
BRANCH  21  22
HETATM   22  C   UNL     1      41.920 -10.944   7.903  1.00  0.00     0.107 A 
HETATM   23  O   UNL     1      43.271 -10.879   8.004  1.00  0.00    -0.216 OA
HETATM   24  N   UNL     1      43.624 -10.684   9.315  1.00  0.00    -0.128 NA
HETATM   25  C   UNL     1      42.480 -10.554  10.007  1.00  0.00     0.097 A 
HETATM   26  C   UNL     1      41.364 -10.664   9.127  1.00  0.00     0.071 A 
BRANCH  25  27
HETATM   27  C   UNL     1      42.461 -10.435  11.460  1.00  0.00    -0.005 A 
HETATM   28  C   UNL     1      41.394 -10.979  12.193  1.00  0.00     0.014 A 
HETATM   29  C   UNL     1      41.325 -10.807  13.576  1.00  0.00     0.001 A 
HETATM   30  C   UNL     1      42.324 -10.103  14.241  1.00  0.00     0.000 A 
HETATM   31  C   UNL     1      43.397  -9.573  13.525  1.00  0.00     0.001 A 
HETATM   32  C   UNL     1      43.466  -9.734  12.139  1.00  0.00     0.014 A 
ENDBRANCH  25  27
ENDBRANCH  21  22
ENDBRANCH   5  21
TORSDOF 5
ENDMDL
MODEL 4
REMARK VINA RESULT:      -8.1      2.722      9.274
REMARK  5 active torsions:
REMARK  status: ('A' for Active; 'I' for Inactive)
REMARK    1  A    between atoms: C_2  and  C_3 
REMARK    2  A    between atoms: C_3  and  N_4 
REMARK    3  A    between atoms: N_8  and  C_10 
REMARK    4  A    between atoms: C_10  and  C_11 
REMARK    5  A    between atoms: C_14  and  C_15 
ROOT
HETATM    1  N   UNL     1      42.859 -16.428   5.758  1.00  0.00     0.104 N 
HETATM    2  C   UNL     1      42.967 -17.309   4.526  1.00  0.00     0.206 C 
HETATM    3  C   UNL     1      43.732 -16.643   3.357  1.00  0.00     0.076 C 
HETATM    4  C   UNL     1      43.040 -15.362   2.899  1.00  0.00     0.238 C 
HETATM    5  N   UNL     1      41.643 -15.659   2.402  1.00  0.00    -0.065 N 
HETATM    6  H   UNL     1      41.211 -14.731   2.282  1.00  0.00     0.280 HD
HETATM    7  C   UNL     1      40.822 -16.357   3.457  1.00  0.00     0.238 C 
HETATM    8  C   UNL     1      41.538 -17.606   3.974  1.00  0.00     0.076 C 
HETATM    9  C   UNL     1      43.619 -18.623   4.912  1.00  0.00     0.072 A 
HETATM   10  C   UNL     1      43.698 -19.097   6.207  1.00  0.00     0.037 A 
HETATM   11  N   UNL     1      44.347 -20.309   6.142  1.00  0.00    -0.354 N 
HETATM   12  H   UNL     1      44.572 -20.905   6.939  1.00  0.00     0.166 HD
HETATM   13  C   UNL     1      44.673 -20.600   4.879  1.00  0.00     0.181 A 
HETATM   14  N   UNL     1      44.226 -19.584   4.122  1.00  0.00    -0.352 N 
HETATM   15  H   UNL     1      44.363 -19.557   3.113  1.00  0.00     0.166 HD
HETATM   16  C   UNL     1      43.214 -18.387   7.405  1.00  0.00     0.089 C 
HETATM   17  C   UNL     1      42.341 -17.189   6.951  1.00  0.00     0.280 C 
ENDROOT
BRANCH   1  18
HETATM   18  C   UNL     1      44.114 -15.708   6.118  1.00  0.00     0.273 C 
BRANCH  18  19
HETATM   19  C   UNL     1      43.949 -14.225   6.492  1.00  0.00     0.026 C 
HETATM   20  C   UNL     1      45.151 -13.659   7.237  1.00  0.00     0.007 C 
ENDBRANCH  18  19
ENDBRANCH   1  18
BRANCH   5  21
HETATM   21  C   UNL     1      41.526 -16.284   1.006  1.00  0.00     0.301 C 
BRANCH  21  22
HETATM   22  C   UNL     1      41.421 -15.280  -0.068  1.00  0.00     0.107 A 
HETATM   23  O   UNL     1      41.060 -15.775  -1.279  1.00  0.00    -0.216 OA
HETATM   24  N   UNL     1      41.247 -14.814  -2.241  1.00  0.00    -0.128 NA
HETATM   25  C   UNL     1      41.654 -13.705  -1.603  1.00  0.00     0.097 A 
HETATM   26  C   UNL     1      41.729 -13.948  -0.200  1.00  0.00     0.071 A 
BRANCH  25  27
HETATM   27  C   UNL     1      42.052 -12.499  -2.319  1.00  0.00    -0.005 A 
HETATM   28  C   UNL     1      42.683 -11.450  -1.630  1.00  0.00     0.014 A 
HETATM   29  C   UNL     1      43.001 -10.261  -2.287  1.00  0.00     0.001 A 
HETATM   30  C   UNL     1      42.704 -10.112  -3.639  1.00  0.00     0.000 A 
HETATM   31  C   UNL     1      42.093 -11.153  -4.338  1.00  0.00     0.001 A 
HETATM   32  C   UNL     1      41.764 -12.341  -3.681  1.00  0.00     0.014 A 
ENDBRANCH  25  27
ENDBRANCH  21  22
ENDBRANCH   5  21
TORSDOF 5
ENDMDL
MODEL 5
REMARK VINA RESULT:      -8.0      2.608      4.988
REMARK  5 active torsions:
REMARK  status: ('A' for Active; 'I' for Inactive)
REMARK    1  A    between atoms: C_2  and  C_3 
REMARK    2  A    between atoms: C_3  and  N_4 
REMARK    3  A    between atoms: N_8  and  C_10 
REMARK    4  A    between atoms: C_10  and  C_11 
REMARK    5  A    between atoms: C_14  and  C_15 
ROOT
HETATM    1  N   UNL     1      39.979 -13.049   3.595  1.00  0.00     0.104 N 
HETATM    2  C   UNL     1      41.179 -13.901   3.220  1.00  0.00     0.206 C 
HETATM    3  C   UNL     1      41.824 -13.498   1.872  1.00  0.00     0.076 C 
HETATM    4  C   UNL     1      40.834 -13.635   0.719  1.00  0.00     0.238 C 
HETATM    5  N   UNL     1      40.374 -15.070   0.579  1.00  0.00    -0.065 N 
HETATM    6  H   UNL     1      39.597 -15.025  -0.097  1.00  0.00     0.280 HD
HETATM    7  C   UNL     1      39.768 -15.579   1.863  1.00  0.00     0.238 C 
HETATM    8  C   UNL     1      40.726 -15.383   3.039  1.00  0.00     0.076 C 
HETATM    9  C   UNL     1      42.199 -13.840   4.341  1.00  0.00     0.072 A 
HETATM   10  C   UNL     1      41.908 -13.446   5.632  1.00  0.00     0.037 A 
HETATM   11  N   UNL     1      43.084 -13.533   6.343  1.00  0.00    -0.354 N 
HETATM   12  H   UNL     1      43.200 -13.295   7.329  1.00  0.00     0.166 HD
HETATM   13  C   UNL     1      44.078 -13.956   5.556  1.00  0.00     0.181 A 
HETATM   14  N   UNL     1      43.547 -14.154   4.338  1.00  0.00    -0.352 N 
HETATM   15  H   UNL     1      44.106 -14.466   3.546  1.00  0.00     0.166 HD
HETATM   16  C   UNL     1      40.592 -12.980   6.105  1.00  0.00     0.089 C 
HETATM   17  C   UNL     1      39.536 -13.294   5.014  1.00  0.00     0.280 C 
ENDROOT
BRANCH   1  18
HETATM   18  C   UNL     1      40.159 -11.587   3.362  1.00  0.00     0.273 C 
BRANCH  18  19
HETATM   19  C   UNL     1      38.969 -10.863   2.709  1.00  0.00     0.026 C 
HETATM   20  C   UNL     1      38.022 -11.806   1.979  1.00  0.00     0.007 C 
ENDBRANCH  18  19
ENDBRANCH   1  18
BRANCH   5  21
HETATM   21  C   UNL     1      41.356 -16.047  -0.078  1.00  0.00     0.301 C 
BRANCH  21  22
HETATM   22  C   UNL     1      42.096 -16.866   0.900  1.00  0.00     0.107 A 
HETATM   23  O   UNL     1      43.261 -16.323   1.335  1.00  0.00    -0.216 OA
HETATM   24  N   UNL     1      43.978 -17.267   2.025  1.00  0.00    -0.128 NA
HETATM   25  C   UNL     1      43.213 -18.370   2.074  1.00  0.00     0.097 A 
HETATM   26  C   UNL     1      41.975 -18.136   1.408  1.00  0.00     0.071 A 
BRANCH  25  27
HETATM   27  C   UNL     1      43.694 -19.623   2.645  1.00  0.00    -0.005 A 
HETATM   28  C   UNL     1      44.258 -19.636   3.931  1.00  0.00     0.014 A 
HETATM   29  C   UNL     1      44.790 -20.813   4.460  1.00  0.00     0.001 A 
HETATM   30  C   UNL     1      44.753 -21.989   3.716  1.00  0.00     0.000 A 
HETATM   31  C   UNL     1      44.179 -21.992   2.444  1.00  0.00     0.001 A 
HETATM   32  C   UNL     1      43.654 -20.813   1.908  1.00  0.00     0.014 A 
ENDBRANCH  25  27
ENDBRANCH  21  22
ENDBRANCH   5  21
TORSDOF 5
ENDMDL
MODEL 6
REMARK VINA RESULT:      -7.9      3.233      5.315
REMARK  5 active torsions:
REMARK  status: ('A' for Active; 'I' for Inactive)
REMARK    1  A    between atoms: C_2  and  C_3 
REMARK    2  A    between atoms: C_3  and  N_4 
REMARK    3  A    between atoms: N_8  and  C_10 
REMARK    4  A    between atoms: C_10  and  C_11 
REMARK    5  A    between atoms: C_14  and  C_15 
ROOT
HETATM    1  N   UNL     1      41.434 -13.587   3.696  1.00  0.00     0.104 N 
HETATM    2  C   UNL     1      42.334 -14.808   3.755  1.00  0.00     0.206 C 
HETATM    3  C   UNL     1      41.927 -15.820   4.855  1.00  0.00     0.076 C 
HETATM    4  C   UNL     1      41.985 -15.186   6.241  1.00  0.00     0.238 C 
HETATM    5  N   UNL     1      43.391 -14.727   6.560  1.00  0.00    -0.065 N 
HETATM    6  H   UNL     1      43.290 -14.172   7.423  1.00  0.00     0.280 HD
HETATM    7  C   UNL     1      43.904 -13.767   5.516  1.00  0.00     0.238 C 
HETATM    8  C   UNL     1      43.787 -14.365   4.113  1.00  0.00     0.076 C 
HETATM    9  C   UNL     1      42.353 -15.477   2.394  1.00  0.00     0.072 A 
HETATM   10  C   UNL     1      41.979 -14.853   1.220  1.00  0.00     0.037 A 
HETATM   11  N   UNL     1      42.143 -15.779   0.214  1.00  0.00    -0.354 N 
HETATM   12  H   UNL     1      41.937 -15.625  -0.773  1.00  0.00     0.166 HD
HETATM   13  C   UNL     1      42.593 -16.936   0.711  1.00  0.00     0.181 A 
HETATM   14  N   UNL     1      42.732 -16.759   2.035  1.00  0.00    -0.352 N 
HETATM   15  H   UNL     1      43.050 -17.504   2.652  1.00  0.00     0.166 HD
HETATM   16  C   UNL     1      41.461 -13.476   1.114  1.00  0.00     0.089 C 
HETATM   17  C   UNL     1      41.695 -12.755   2.466  1.00  0.00     0.280 C 
ENDROOT
BRANCH   1  18
HETATM   18  C   UNL     1      39.977 -13.882   3.812  1.00  0.00     0.273 C 
BRANCH  18  19
HETATM   19  C   UNL     1      39.117 -12.768   4.431  1.00  0.00     0.026 C 
HETATM   20  C   UNL     1      39.287 -12.648   5.939  1.00  0.00     0.007 C 
ENDBRANCH  18  19
ENDBRANCH   1  18
BRANCH   5  21
HETATM   21  C   UNL     1      44.397 -15.814   6.956  1.00  0.00     0.301 C 
BRANCH  21  22
HETATM   22  C   UNL     1      44.090 -17.128   6.362  1.00  0.00     0.107 A 
HETATM   23  O   UNL     1      43.497 -18.011   7.205  1.00  0.00    -0.216 OA
HETATM   24  N   UNL     1      43.498 -19.259   6.636  1.00  0.00    -0.128 NA
HETATM   25  C   UNL     1      44.027 -19.122   5.409  1.00  0.00     0.097 A 
HETATM   26  C   UNL     1      44.373 -17.759   5.176  1.00  0.00     0.071 A 
BRANCH  25  27
HETATM   27  C   UNL     1      44.284 -20.266   4.542  1.00  0.00    -0.005 A 
HETATM   28  C   UNL     1      44.172 -20.129   3.149  1.00  0.00     0.014 A 
HETATM   29  C   UNL     1      44.341 -21.233   2.312  1.00  0.00     0.001 A 
HETATM   30  C   UNL     1      44.636 -22.480   2.856  1.00  0.00     0.000 A 
HETATM   31  C   UNL     1      44.766 -22.625   4.237  1.00  0.00     0.001 A 
HETATM   32  C   UNL     1      44.588 -21.524   5.079  1.00  0.00     0.014 A 
ENDBRANCH  25  27
ENDBRANCH  21  22
ENDBRANCH   5  21
TORSDOF 5
ENDMDL
MODEL 7
REMARK VINA RESULT:      -7.8      5.532      7.244
REMARK  5 active torsions:
REMARK  status: ('A' for Active; 'I' for Inactive)
REMARK    1  A    between atoms: C_2  and  C_3 
REMARK    2  A    between atoms: C_3  and  N_4 
REMARK    3  A    between atoms: N_8  and  C_10 
REMARK    4  A    between atoms: C_10  and  C_11 
REMARK    5  A    between atoms: C_14  and  C_15 
ROOT
HETATM    1  N   UNL     1      40.355  -9.997   5.978  1.00  0.00     0.104 N 
HETATM    2  C   UNL     1      40.784 -11.166   6.846  1.00  0.00     0.206 C 
HETATM    3  C   UNL     1      41.872 -12.052   6.192  1.00  0.00     0.076 C 
HETATM    4  C   UNL     1      41.380 -12.659   4.881  1.00  0.00     0.238 C 
HETATM    5  N   UNL     1      40.174 -13.541   5.121  1.00  0.00    -0.065 N 
HETATM    6  H   UNL     1      39.824 -13.758   4.176  1.00  0.00     0.280 HD
HETATM    7  C   UNL     1      39.065 -12.780   5.802  1.00  0.00     0.238 C 
HETATM    8  C   UNL     1      39.564 -12.110   7.084  1.00  0.00     0.076 C 
HETATM    9  C   UNL     1      41.257 -10.640   8.188  1.00  0.00     0.072 A 
HETATM   10  C   UNL     1      40.948  -9.389   8.682  1.00  0.00     0.037 A 
HETATM   11  N   UNL     1      41.551  -9.294   9.916  1.00  0.00    -0.354 N 
HETATM   12  H   UNL     1      41.520  -8.479  10.530  1.00  0.00     0.166 HD
HETATM   13  C   UNL     1      42.215 -10.418  10.201  1.00  0.00     0.181 A 
HETATM   14  N   UNL     1      42.035 -11.247   9.160  1.00  0.00    -0.352 N 
HETATM   15  H   UNL     1      42.456 -12.173   9.124  1.00  0.00     0.166 HD
HETATM   16  C   UNL     1      40.163  -8.362   7.972  1.00  0.00     0.089 C 
HETATM   17  C   UNL     1      39.494  -9.019   6.737  1.00  0.00     0.280 C 
ENDROOT
BRANCH   1  18
HETATM   18  C   UNL     1      41.476  -9.276   5.309  1.00  0.00     0.273 C 
BRANCH  18  19
HETATM   19  C   UNL     1      41.140  -8.626   3.956  1.00  0.00     0.026 C 
HETATM   20  C   UNL     1      40.402  -9.563   3.009  1.00  0.00     0.007 C 
ENDBRANCH  18  19
ENDBRANCH   1  18
BRANCH   5  21
HETATM   21  C   UNL     1      40.442 -14.926   5.722  1.00  0.00     0.301 C 
BRANCH  21  22
HETATM   22  C   UNL     1      41.211 -15.806   4.823  1.00  0.00     0.107 A 
HETATM   23  O   UNL     1      40.708 -15.921   3.568  1.00  0.00    -0.216 OA
HETATM   24  N   UNL     1      41.340 -16.947   2.913  1.00  0.00    -0.128 NA
HETATM   25  C   UNL     1      42.284 -17.413   3.747  1.00  0.00     0.097 A 
HETATM   26  C   UNL     1      42.268 -16.672   4.965  1.00  0.00     0.071 A 
BRANCH  25  27
HETATM   27  C   UNL     1      43.094 -18.582   3.428  1.00  0.00    -0.005 A 
HETATM   28  C   UNL     1      42.945 -19.219   2.185  1.00  0.00     0.014 A 
HETATM   29  C   UNL     1      43.659 -20.383   1.895  1.00  0.00     0.001 A 
HETATM   30  C   UNL     1      44.535 -20.915   2.837  1.00  0.00     0.000 A 
HETATM   31  C   UNL     1      44.704 -20.281   4.068  1.00  0.00     0.001 A 
HETATM   32  C   UNL     1      43.984 -19.121   4.366  1.00  0.00     0.014 A 
ENDBRANCH  25  27
ENDBRANCH  21  22
ENDBRANCH   5  21
TORSDOF 5
ENDMDL
MODEL 8
REMARK VINA RESULT:      -7.6      2.779      3.691
REMARK  5 active torsions:
REMARK  status: ('A' for Active; 'I' for Inactive)
REMARK    1  A    between atoms: C_2  and  C_3 
REMARK    2  A    between atoms: C_3  and  N_4 
REMARK    3  A    between atoms: N_8  and  C_10 
REMARK    4  A    between atoms: C_10  and  C_11 
REMARK    5  A    between atoms: C_14  and  C_15 
ROOT
HETATM    1  N   UNL     1      39.218 -12.161   1.518  1.00  0.00     0.104 N 
HETATM    2  C   UNL     1      40.371 -12.035   2.498  1.00  0.00     0.206 C 
HETATM    3  C   UNL     1      41.751 -12.352   1.870  1.00  0.00     0.076 C 
HETATM    4  C   UNL     1      41.804 -13.781   1.338  1.00  0.00     0.238 C 
HETATM    5  N   UNL     1      41.588 -14.775   2.458  1.00  0.00    -0.065 N 
HETATM    6  H   UNL     1      41.472 -15.681   1.978  1.00  0.00     0.280 HD
HETATM    7  C   UNL     1      40.283 -14.523   3.171  1.00  0.00     0.238 C 
HETATM    8  C   UNL     1      40.188 -13.073   3.649  1.00  0.00     0.076 C 
HETATM    9  C   UNL     1      40.363 -10.642   3.097  1.00  0.00     0.072 A 
HETATM   10  C   UNL     1      39.268  -9.800   3.085  1.00  0.00     0.037 A 
HETATM   11  N   UNL     1      39.655  -8.644   3.726  1.00  0.00    -0.354 N 
HETATM   12  H   UNL     1      39.069  -7.821   3.867  1.00  0.00     0.166 HD
HETATM   13  C   UNL     1      40.927  -8.733   4.125  1.00  0.00     0.181 A 
HETATM   14  N   UNL     1      41.364  -9.948   3.754  1.00  0.00    -0.352 N 
HETATM   15  H   UNL     1      42.317 -10.259   3.931  1.00  0.00     0.166 HD
HETATM   16  C   UNL     1      37.970 -10.099   2.453  1.00  0.00     0.089 C 
HETATM   17  C   UNL     1      37.937 -11.605   2.083  1.00  0.00     0.280 C 
ENDROOT
BRANCH   1  18
HETATM   18  C   UNL     1      39.480 -11.573   0.173  1.00  0.00     0.273 C 
BRANCH  18  19
HETATM   19  C   UNL     1      39.314 -12.531  -1.019  1.00  0.00     0.026 C 
HETATM   20  C   UNL     1      38.573 -13.811  -0.659  1.00  0.00     0.007 C 
ENDBRANCH  18  19
ENDBRANCH   1  18
BRANCH   5  21
HETATM   21  C   UNL     1      42.774 -15.024   3.397  1.00  0.00     0.301 C 
BRANCH  21  22
HETATM   22  C   UNL     1      43.412 -16.336   3.184  1.00  0.00     0.107 A 
HETATM   23  O   UNL     1      43.812 -16.577   1.910  1.00  0.00    -0.216 OA
HETATM   24  N   UNL     1      44.146 -17.900   1.777  1.00  0.00    -0.128 NA
HETATM   25  C   UNL     1      44.020 -18.454   2.994  1.00  0.00     0.097 A 
HETATM   26  C   UNL     1      43.601 -17.469   3.936  1.00  0.00     0.071 A 
BRANCH  25  27
HETATM   27  C   UNL     1      44.194 -19.884   3.219  1.00  0.00    -0.005 A 
HETATM   28  C   UNL     1      44.585 -20.352   4.484  1.00  0.00     0.014 A 
HETATM   29  C   UNL     1      44.828 -21.710   4.693  1.00  0.00     0.001 A 
HETATM   30  C   UNL     1      44.672 -22.614   3.646  1.00  0.00     0.000 A 
HETATM   31  C   UNL     1      44.268 -22.163   2.390  1.00  0.00     0.001 A 
HETATM   32  C   UNL     1      44.033 -20.803   2.174  1.00  0.00     0.014 A 
ENDBRANCH  25  27
ENDBRANCH  21  22
ENDBRANCH   5  21
TORSDOF 5
ENDMDL
MODEL 9
REMARK VINA RESULT:      -7.6      2.550      4.167
REMARK  5 active torsions:
REMARK  status: ('A' for Active; 'I' for Inactive)
REMARK    1  A    between atoms: C_2  and  C_3 
REMARK    2  A    between atoms: C_3  and  N_4 
REMARK    3  A    between atoms: N_8  and  C_10 
REMARK    4  A    between atoms: C_10  and  C_11 
REMARK    5  A    between atoms: C_14  and  C_15 
ROOT
HETATM    1  N   UNL     1      40.491 -12.925   2.224  1.00  0.00     0.104 N 
HETATM    2  C   UNL     1      41.252 -14.188   2.586  1.00  0.00     0.206 C 
HETATM    3  C   UNL     1      40.648 -14.947   3.793  1.00  0.00     0.076 C 
HETATM    4  C   UNL     1      40.647 -14.081   5.049  1.00  0.00     0.238 C 
HETATM    5  N   UNL     1      42.059 -13.694   5.431  1.00  0.00    -0.065 N 
HETATM    6  H   UNL     1      41.939 -12.986   6.171  1.00  0.00     0.280 HD
HETATM    7  C   UNL     1      42.758 -12.984   4.298  1.00  0.00     0.238 C 
HETATM    8  C   UNL     1      42.705 -13.813   3.013  1.00  0.00     0.076 C 
HETATM    9  C   UNL     1      41.323 -15.089   1.368  1.00  0.00     0.072 A 
HETATM   10  C   UNL     1      41.121 -14.657   0.072  1.00  0.00     0.037 A 
HETATM   11  N   UNL     1      41.277 -15.760  -0.738  1.00  0.00    -0.354 N 
HETATM   12  H   UNL     1      41.176 -15.769  -1.753  1.00  0.00     0.166 HD
HETATM   13  C   UNL     1      41.560 -16.842  -0.006  1.00  0.00     0.181 A 
HETATM   14  N   UNL     1      41.599 -16.443   1.275  1.00  0.00    -0.352 N 
HETATM   15  H   UNL     1      41.783 -17.089   2.040  1.00  0.00     0.166 HD
HETATM   16  C   UNL     1      40.758 -13.283  -0.321  1.00  0.00     0.089 C 
HETATM   17  C   UNL     1      40.944 -12.353   0.905  1.00  0.00     0.280 C 
ENDROOT
BRANCH   1  18
HETATM   18  C   UNL     1      39.007 -13.069   2.235  1.00  0.00     0.273 C 
BRANCH  18  19
HETATM   19  C   UNL     1      38.208 -11.758   2.148  1.00  0.00     0.026 C 
HETATM   20  C   UNL     1      37.259 -11.713   0.959  1.00  0.00     0.007 C 
ENDBRANCH  18  19
ENDBRANCH   1  18
BRANCH   5  21
HETATM   21  C   UNL     1      42.910 -14.773   6.110  1.00  0.00     0.301 C 
BRANCH  21  22
HETATM   22  C   UNL     1      42.810 -16.087   5.449  1.00  0.00     0.107 A 
HETATM   23  O   UNL     1      41.968 -16.966   6.050  1.00  0.00    -0.216 OA
HETATM   24  N   UNL     1      42.151 -18.215   5.513  1.00  0.00    -0.128 NA
HETATM   25  C   UNL     1      43.055 -18.083   4.529  1.00  0.00     0.097 A 
HETATM   26  C   UNL     1      43.464 -16.722   4.423  1.00  0.00     0.071 A 
BRANCH  25  27
HETATM   27  C   UNL     1      43.578 -19.230   3.796  1.00  0.00    -0.005 A 
HETATM   28  C   UNL     1      43.217 -19.426   2.452  1.00  0.00     0.014 A 
HETATM   29  C   UNL     1      43.650 -20.559   1.761  1.00  0.00     0.001 A 
HETATM   30  C   UNL     1      44.454 -21.499   2.399  1.00  0.00     0.000 A 
HETATM   31  C   UNL     1      44.832 -21.306   3.728  1.00  0.00     0.001 A 
HETATM   32  C   UNL     1      44.394 -20.178   4.426  1.00  0.00     0.014 A 
ENDBRANCH  25  27
ENDBRANCH  21  22
ENDBRANCH   5  21
TORSDOF 5
ENDMDL
MODEL 10
REMARK VINA RESULT:      -7.5      2.274      3.270
REMARK  5 active torsions:
REMARK  status: ('A' for Active; 'I' for Inactive)
REMARK    1  A    between atoms: C_2  and  C_3 
REMARK    2  A    between atoms: C_3  and  N_4 
REMARK    3  A    between atoms: N_8  and  C_10 
REMARK    4  A    between atoms: C_10  and  C_11 
REMARK    5  A    between atoms: C_14  and  C_15 
ROOT
HETATM    1  N   UNL     1      38.865 -12.049   1.515  1.00  0.00     0.104 N 
HETATM    2  C   UNL     1      40.262 -12.297   0.973  1.00  0.00     0.206 C 
HETATM    3  C   UNL     1      40.271 -12.968  -0.422  1.00  0.00     0.076 C 
HETATM    4  C   UNL     1      39.585 -14.331  -0.386  1.00  0.00     0.238 C 
HETATM    5  N   UNL     1      40.305 -15.266   0.561  1.00  0.00    -0.065 N 
HETATM    6  H   UNL     1      39.678 -16.081   0.642  1.00  0.00     0.280 HD
HETATM    7  C   UNL     1      40.392 -14.680   1.948  1.00  0.00     0.238 C 
HETATM    8  C   UNL     1      41.017 -13.284   1.917  1.00  0.00     0.076 C 
HETATM    9  C   UNL     1      41.021 -10.984   0.940  1.00  0.00     0.072 A 
HETATM   10  C   UNL     1      40.665  -9.865   1.667  1.00  0.00     0.037 A 
HETATM   11  N   UNL     1      41.596  -8.894   1.374  1.00  0.00    -0.354 N 
HETATM   12  H   UNL     1      41.600  -7.944   1.746  1.00  0.00     0.166 HD
HETATM   13  C   UNL     1      42.499  -9.358   0.505  1.00  0.00     0.181 A 
HETATM   14  N   UNL     1      42.163 -10.631   0.241  1.00  0.00    -0.352 N 
HETATM   15  H   UNL     1      42.690 -11.209  -0.411  1.00  0.00     0.166 HD
HETATM   16  C   UNL     1      39.480  -9.756   2.538  1.00  0.00     0.089 C 
HETATM   17  C   UNL     1      38.885 -11.173   2.741  1.00  0.00     0.280 C 
ENDROOT
BRANCH   1  18
HETATM   18  C   UNL     1      37.899 -11.507   0.517  1.00  0.00     0.273 C 
BRANCH  18  19
HETATM   19  C   UNL     1      36.491 -12.124   0.547  1.00  0.00     0.026 C 
HETATM   20  C   UNL     1      35.381 -11.083   0.589  1.00  0.00     0.007 C 
ENDBRANCH  18  19
ENDBRANCH   1  18
BRANCH   5  21
HETATM   21  C   UNL     1      41.617 -15.880   0.059  1.00  0.00     0.301 C 
BRANCH  21  22
HETATM   22  C   UNL     1      42.255 -16.767   1.049  1.00  0.00     0.107 A 
HETATM   23  O   UNL     1      43.242 -16.190   1.780  1.00  0.00    -0.216 OA
HETATM   24  N   UNL     1      43.927 -17.158   2.470  1.00  0.00    -0.128 NA
HETATM   25  C   UNL     1      43.307 -18.323   2.216  1.00  0.00     0.097 A 
HETATM   26  C   UNL     1      42.197 -18.106   1.349  1.00  0.00     0.071 A 
BRANCH  25  27
HETATM   27  C   UNL     1      43.822 -19.598   2.701  1.00  0.00    -0.005 A 
HETATM   28  C   UNL     1      43.718 -20.746   1.899  1.00  0.00     0.014 A 
HETATM   29  C   UNL     1      44.139 -21.987   2.380  1.00  0.00     0.001 A 
HETATM   30  C   UNL     1      44.676 -22.091   3.660  1.00  0.00     0.000 A 
HETATM   31  C   UNL     1      44.800 -20.955   4.459  1.00  0.00     0.001 A 
HETATM   32  C   UNL     1      44.372 -19.712   3.985  1.00  0.00     0.014 A 
ENDBRANCH  25  27
ENDBRANCH  21  22
ENDBRANCH   5  21
TORSDOF 5
ENDMDL
