MODEL 1
REMARK VINA RESULT:      -8.4      0.000      0.000
REMARK  5 active torsions:
REMARK  status: ('A' for Active; 'I' for Inactive)
REMARK    1  A    between atoms: O_2  and  C_3 
REMARK    2  A    between atoms: C_4  and  N_5 
REMARK       I    between atoms: N_5  and  C_6 
REMARK    3  A    between atoms: C_6  and  C_7 
REMARK    4  A    between atoms: C_8  and  S_9 
REMARK    5  A    between atoms: S_9  and  C_10 
ROOT
HETATM    1  C   UNL     1      42.899 -16.057   3.748  1.00  0.00     0.068 A 
HETATM    2  C   UNL     1      42.660 -15.283   2.617  1.00  0.00     0.113 A 
HETATM    3  N   UNL     1      42.763 -13.926   2.647  1.00  0.00    -0.253 NA
HETATM    4  C   UNL     1      43.123 -13.348   3.815  1.00  0.00     0.118 A 
HETATM    5  C   UNL     1      43.386 -14.052   4.977  1.00  0.00     0.020 A 
HETATM    6  C   UNL     1      43.272 -15.436   4.943  1.00  0.00     0.021 A 
ENDROOT
BRANCH   1   7
HETATM    7  C   UNL     1      42.768 -17.521   3.740  1.00  0.00     0.259 C 
HETATM    8  N   UNL     1      43.935 -18.172   3.409  1.00  0.00    -0.320 N 
HETATM    9  H   UNL     1      44.763 -17.613   3.213  1.00  0.00     0.169 HD
HETATM   10  O   UNL     1      41.667 -18.008   3.952  1.00  0.00    -0.267 OA
BRANCH   8  11
HETATM   11  C   UNL     1      44.144 -19.562   3.301  1.00  0.00     0.071 A 
HETATM   12  C   UNL     1      44.609 -20.229   4.451  1.00  0.00     0.095 A 
HETATM   13  C   UNL     1      44.802 -21.612   4.458  1.00  0.00     0.042 A 
HETATM   14  C   UNL     1      44.567 -22.339   3.292  1.00  0.00     0.045 A 
HETATM   15  C   UNL     1      44.135 -21.675   2.148  1.00  0.00     0.118 A 
HETATM   16  C   UNL     1      43.919 -20.298   2.139  1.00  0.00     0.074 A 
HETATM   17  F   UNL     1      43.912 -22.383   1.032  1.00  0.00    -0.206 F 
BRANCH  12  18
HETATM   18  O   UNL     1      44.824 -19.491   5.591  1.00  0.00    -0.354 OA
HETATM   19  C   UNL     1      43.852 -19.812   6.589  1.00  0.00     0.210 C 
ENDBRANCH  12  18
ENDBRANCH   8  11
ENDBRANCH   1   7
BRANCH   2  20
HETATM   20  S   UNL     1      42.214 -15.979   1.037  1.00  0.00    -0.070 SA
BRANCH  20  21
HETATM   21  C   UNL     1      40.625 -15.214   0.778  1.00  0.00     0.007 A 
HETATM   22  C   UNL     1      39.617 -15.299   1.742  1.00  0.00     0.019 A 
HETATM   23  C   UNL     1      38.384 -14.679   1.532  1.00  0.00     0.001 A 
HETATM   24  C   UNL     1      38.154 -13.965   0.358  1.00  0.00     0.000 A 
HETATM   25  C   UNL     1      39.158 -13.868  -0.606  1.00  0.00     0.001 A 
HETATM   26  C   UNL     1      40.392 -14.487  -0.394  1.00  0.00     0.019 A 
ENDBRANCH  20  21
ENDBRANCH   2  20
TORSDOF 5
ENDMDL
MODEL 2
REMARK VINA RESULT:      -7.9      1.653      2.171
REMARK  5 active torsions:
REMARK  status: ('A' for Active; 'I' for Inactive)
REMARK    1  A    between atoms: O_2  and  C_3 
REMARK    2  A    between atoms: C_4  and  N_5 
REMARK       I    between atoms: N_5  and  C_6 
REMARK    3  A    between atoms: C_6  and  C_7 
REMARK    4  A    between atoms: C_8  and  S_9 
REMARK    5  A    between atoms: S_9  and  C_10 
ROOT
HETATM    1  C   UNL     1      43.081 -15.574   2.551  1.00  0.00     0.068 A 
HETATM    2  C   UNL     1      41.870 -15.155   2.010  1.00  0.00     0.113 A 
HETATM    3  N   UNL     1      41.312 -13.961   2.350  1.00  0.00    -0.253 NA
HETATM    4  C   UNL     1      41.983 -13.179   3.225  1.00  0.00     0.118 A 
HETATM    5  C   UNL     1      43.196 -13.523   3.797  1.00  0.00     0.020 A 
HETATM    6  C   UNL     1      43.758 -14.747   3.451  1.00  0.00     0.021 A 
ENDROOT
BRANCH   1   7
HETATM    7  C   UNL     1      43.687 -16.870   2.214  1.00  0.00     0.259 C 
HETATM    8  N   UNL     1      43.340 -17.878   3.085  1.00  0.00    -0.320 N 
HETATM    9  H   UNL     1      42.711 -17.659   3.854  1.00  0.00     0.169 HD
HETATM   10  O   UNL     1      44.465 -16.921   1.273  1.00  0.00    -0.267 OA
BRANCH   8  11
HETATM   11  C   UNL     1      43.755 -19.225   3.051  1.00  0.00     0.071 A 
HETATM   12  C   UNL     1      44.439 -19.712   4.182  1.00  0.00     0.095 A 
HETATM   13  C   UNL     1      44.849 -21.045   4.262  1.00  0.00     0.042 A 
HETATM   14  C   UNL     1      44.610 -21.897   3.187  1.00  0.00     0.045 A 
HETATM   15  C   UNL     1      43.959 -21.409   2.058  1.00  0.00     0.118 A 
HETATM   16  C   UNL     1      43.527 -20.086   1.979  1.00  0.00     0.074 A 
HETATM   17  F   UNL     1      43.733 -22.237   1.028  1.00  0.00    -0.206 F 
BRANCH  12  18
HETATM   18  O   UNL     1      44.655 -18.853   5.234  1.00  0.00    -0.354 OA
HETATM   19  C   UNL     1      44.033 -19.348   6.422  1.00  0.00     0.210 C 
ENDBRANCH  12  18
ENDBRANCH   8  11
ENDBRANCH   1   7
BRANCH   2  20
HETATM   20  S   UNL     1      40.947 -16.119   0.827  1.00  0.00    -0.070 SA
BRANCH  20  21
HETATM   21  C   UNL     1      41.254 -15.192  -0.664  1.00  0.00     0.007 A 
HETATM   22  C   UNL     1      41.833 -13.919  -0.617  1.00  0.00     0.019 A 
HETATM   23  C   UNL     1      42.083 -13.213  -1.794  1.00  0.00     0.001 A 
HETATM   24  C   UNL     1      41.761 -13.778  -3.027  1.00  0.00     0.000 A 
HETATM   25  C   UNL     1      41.191 -15.049  -3.083  1.00  0.00     0.001 A 
HETATM   26  C   UNL     1      40.943 -15.756  -1.904  1.00  0.00     0.019 A 
ENDBRANCH  20  21
ENDBRANCH   2  20
TORSDOF 5
ENDMDL
MODEL 3
REMARK VINA RESULT:      -7.7      2.889      6.478
REMARK  5 active torsions:
REMARK  status: ('A' for Active; 'I' for Inactive)
REMARK    1  A    between atoms: O_2  and  C_3 
REMARK    2  A    between atoms: C_4  and  N_5 
REMARK       I    between atoms: N_5  and  C_6 
REMARK    3  A    between atoms: C_6  and  C_7 
REMARK    4  A    between atoms: C_8  and  S_9 
REMARK    5  A    between atoms: S_9  and  C_10 
ROOT
HETATM    1  C   UNL     1      42.721 -14.965   4.807  1.00  0.00     0.068 A 
HETATM    2  C   UNL     1      42.738 -16.144   5.544  1.00  0.00     0.113 A 
HETATM    3  N   UNL     1      43.553 -16.299   6.623  1.00  0.00    -0.253 NA
HETATM    4  C   UNL     1      44.342 -15.258   6.971  1.00  0.00     0.118 A 
HETATM    5  C   UNL     1      44.372 -14.051   6.293  1.00  0.00     0.020 A 
HETATM    6  C   UNL     1      43.543 -13.901   5.188  1.00  0.00     0.021 A 
ENDROOT
BRANCH   1   7
HETATM    7  C   UNL     1      41.865 -14.789   3.625  1.00  0.00     0.259 C 
HETATM    8  N   UNL     1      42.565 -14.782   2.440  1.00  0.00    -0.320 N 
HETATM    9  H   UNL     1      43.575 -14.904   2.472  1.00  0.00     0.169 HD
HETATM   10  O   UNL     1      40.669 -14.603   3.796  1.00  0.00    -0.267 OA
BRANCH   8  11
HETATM   11  C   UNL     1      42.050 -14.623   1.137  1.00  0.00     0.071 A 
HETATM   12  C   UNL     1      41.935 -13.307   0.650  1.00  0.00     0.095 A 
HETATM   13  C   UNL     1      41.480 -13.050  -0.644  1.00  0.00     0.042 A 
HETATM   14  C   UNL     1      41.095 -14.116  -1.456  1.00  0.00     0.045 A 
HETATM   15  C   UNL     1      41.182 -15.415  -0.965  1.00  0.00     0.118 A 
HETATM   16  C   UNL     1      41.656 -15.681   0.319  1.00  0.00     0.074 A 
HETATM   17  F   UNL     1      40.810 -16.434  -1.753  1.00  0.00    -0.206 F 
BRANCH  12  18
HETATM   18  O   UNL     1      42.329 -12.273   1.467  1.00  0.00    -0.354 OA
HETATM   19  C   UNL     1      41.207 -11.469   1.838  1.00  0.00     0.210 C 
ENDBRANCH  12  18
ENDBRANCH   8  11
ENDBRANCH   1   7
BRANCH   2  20
HETATM   20  S   UNL     1      41.702 -17.546   5.163  1.00  0.00    -0.070 SA
BRANCH  20  21
HETATM   21  C   UNL     1      42.807 -18.503   4.144  1.00  0.00     0.007 A 
HETATM   22  C   UNL     1      43.784 -19.327   4.713  1.00  0.00     0.019 A 
HETATM   23  C   UNL     1      44.630 -20.084   3.900  1.00  0.00     0.001 A 
HETATM   24  C   UNL     1      44.501 -20.026   2.514  1.00  0.00     0.000 A 
HETATM   25  C   UNL     1      43.525 -19.212   1.939  1.00  0.00     0.001 A 
HETATM   26  C   UNL     1      42.677 -18.457   2.752  1.00  0.00     0.019 A 
ENDBRANCH  20  21
ENDBRANCH   2  20
TORSDOF 5
ENDMDL
MODEL 4
REMARK VINA RESULT:      -7.6      2.031      3.537
REMARK  5 active torsions:
REMARK  status: ('A' for Active; 'I' for Inactive)
REMARK    1  A    between atoms: O_2  and  C_3 
REMARK    2  A    between atoms: C_4  and  N_5 
REMARK       I    between atoms: N_5  and  C_6 
REMARK    3  A    between atoms: C_6  and  C_7 
REMARK    4  A    between atoms: C_8  and  S_9 
REMARK    5  A    between atoms: S_9  and  C_10 
ROOT
HETATM    1  C   UNL     1      42.555 -16.109   1.167  1.00  0.00     0.068 A 
HETATM    2  C   UNL     1      42.421 -14.888   1.821  1.00  0.00     0.113 A 
HETATM    3  N   UNL     1      41.538 -13.944   1.397  1.00  0.00    -0.253 NA
HETATM    4  C   UNL     1      40.774 -14.236   0.319  1.00  0.00     0.118 A 
HETATM    5  C   UNL     1      40.843 -15.431  -0.376  1.00  0.00     0.020 A 
HETATM    6  C   UNL     1      41.752 -16.388   0.057  1.00  0.00     0.021 A 
ENDROOT
BRANCH   1   7
HETATM    7  C   UNL     1      43.520 -17.130   1.596  1.00  0.00     0.259 C 
HETATM    8  N   UNL     1      42.981 -18.069   2.445  1.00  0.00    -0.320 N 
HETATM    9  H   UNL     1      41.997 -17.993   2.690  1.00  0.00     0.169 HD
HETATM   10  O   UNL     1      44.683 -17.020   1.232  1.00  0.00    -0.267 OA
BRANCH   8  11
HETATM   11  C   UNL     1      43.636 -19.167   3.042  1.00  0.00     0.071 A 
HETATM   12  C   UNL     1      44.086 -19.000   4.366  1.00  0.00     0.095 A 
HETATM   13  C   UNL     1      44.703 -20.044   5.058  1.00  0.00     0.042 A 
HETATM   14  C   UNL     1      44.913 -21.260   4.411  1.00  0.00     0.045 A 
HETATM   15  C   UNL     1      44.494 -21.416   3.093  1.00  0.00     0.118 A 
HETATM   16  C   UNL     1      43.857 -20.386   2.403  1.00  0.00     0.074 A 
HETATM   17  F   UNL     1      44.700 -22.590   2.480  1.00  0.00    -0.206 F 
BRANCH  12  18
HETATM   18  O   UNL     1      43.859 -17.793   4.984  1.00  0.00    -0.354 OA
HETATM   19  C   UNL     1      44.472 -17.767   6.276  1.00  0.00     0.210 C 
ENDBRANCH  12  18
ENDBRANCH   8  11
ENDBRANCH   1   7
BRANCH   2  20
HETATM   20  S   UNL     1      43.371 -14.449   3.265  1.00  0.00    -0.070 SA
BRANCH  20  21
HETATM   21  C   UNL     1      42.071 -13.932   4.368  1.00  0.00     0.007 A 
HETATM   22  C   UNL     1      41.143 -14.849   4.872  1.00  0.00     0.019 A 
HETATM   23  C   UNL     1      40.141 -14.430   5.749  1.00  0.00     0.001 A 
HETATM   24  C   UNL     1      40.065 -13.093   6.133  1.00  0.00     0.000 A 
HETATM   25  C   UNL     1      40.991 -12.173   5.642  1.00  0.00     0.001 A 
HETATM   26  C   UNL     1      41.995 -12.593   4.766  1.00  0.00     0.019 A 
ENDBRANCH  20  21
ENDBRANCH   2  20
TORSDOF 5
ENDMDL
MODEL 5
REMARK VINA RESULT:      -7.6      2.089      3.070
REMARK  5 active torsions:
REMARK  status: ('A' for Active; 'I' for Inactive)
REMARK    1  A    between atoms: O_2  and  C_3 
REMARK    2  A    between atoms: C_4  and  N_5 
REMARK       I    between atoms: N_5  and  C_6 
REMARK    3  A    between atoms: C_6  and  C_7 
REMARK    4  A    between atoms: C_8  and  S_9 
REMARK    5  A    between atoms: S_9  and  C_10 
ROOT
HETATM    1  C   UNL     1      43.476 -16.032   6.092  1.00  0.00     0.068 A 
HETATM    2  C   UNL     1      42.375 -15.224   5.823  1.00  0.00     0.113 A 
HETATM    3  N   UNL     1      42.386 -13.890   6.092  1.00  0.00    -0.253 NA
HETATM    4  C   UNL     1      43.514 -13.364   6.620  1.00  0.00     0.118 A 
HETATM    5  C   UNL     1      44.651 -14.101   6.905  1.00  0.00     0.020 A 
HETATM    6  C   UNL     1      44.632 -15.464   6.635  1.00  0.00     0.021 A 
ENDROOT
BRANCH   1   7
HETATM    7  C   UNL     1      43.473 -17.478   5.831  1.00  0.00     0.259 C 
HETATM    8  N   UNL     1      43.960 -17.809   4.587  1.00  0.00    -0.320 N 
HETATM    9  H   UNL     1      44.280 -17.061   3.976  1.00  0.00     0.169 HD
HETATM   10  O   UNL     1      42.996 -18.220   6.677  1.00  0.00    -0.267 OA
BRANCH   8  11
HETATM   11  C   UNL     1      44.082 -19.097   4.025  1.00  0.00     0.071 A 
HETATM   12  C   UNL     1      43.568 -19.279   2.728  1.00  0.00     0.095 A 
HETATM   13  C   UNL     1      43.682 -20.506   2.069  1.00  0.00     0.042 A 
HETATM   14  C   UNL     1      44.283 -21.578   2.725  1.00  0.00     0.045 A 
HETATM   15  C   UNL     1      44.766 -21.405   4.018  1.00  0.00     0.118 A 
HETATM   16  C   UNL     1      44.675 -20.179   4.674  1.00  0.00     0.074 A 
HETATM   17  F   UNL     1      45.342 -22.443   4.641  1.00  0.00    -0.206 F 
BRANCH  12  18
HETATM   18  O   UNL     1      42.988 -18.203   2.099  1.00  0.00    -0.354 OA
HETATM   19  C   UNL     1      43.839 -17.708   1.062  1.00  0.00     0.210 C 
ENDBRANCH  12  18
ENDBRANCH   8  11
ENDBRANCH   1   7
BRANCH   2  20
HETATM   20  S   UNL     1      40.868 -15.844   5.099  1.00  0.00    -0.070 SA
BRANCH  20  21
HETATM   21  C   UNL     1      41.132 -15.430   3.386  1.00  0.00     0.007 A 
HETATM   22  C   UNL     1      42.156 -14.557   3.003  1.00  0.00     0.019 A 
HETATM   23  C   UNL     1      42.361 -14.257   1.655  1.00  0.00     0.001 A 
HETATM   24  C   UNL     1      41.547 -14.832   0.681  1.00  0.00     0.000 A 
HETATM   25  C   UNL     1      40.529 -15.709   1.054  1.00  0.00     0.001 A 
HETATM   26  C   UNL     1      40.326 -16.011   2.402  1.00  0.00     0.019 A 
ENDBRANCH  20  21
ENDBRANCH   2  20
TORSDOF 5
ENDMDL
MODEL 6
REMARK VINA RESULT:      -7.6      1.852      2.207
REMARK  5 active torsions:
REMARK  status: ('A' for Active; 'I' for Inactive)
REMARK    1  A    between atoms: O_2  and  C_3 
REMARK    2  A    between atoms: C_4  and  N_5 
REMARK       I    between atoms: N_5  and  C_6 
REMARK    3  A    between atoms: C_6  and  C_7 
REMARK    4  A    between atoms: C_8  and  S_9 
REMARK    5  A    between atoms: S_9  and  C_10 
ROOT
HETATM    1  C   UNL     1      43.466 -16.570   5.323  1.00  0.00     0.068 A 
HETATM    2  C   UNL     1      43.090 -15.501   4.517  1.00  0.00     0.113 A 
HETATM    3  N   UNL     1      43.314 -14.212   4.891  1.00  0.00    -0.253 NA
HETATM    4  C   UNL     1      43.932 -13.998   6.074  1.00  0.00     0.118 A 
HETATM    5  C   UNL     1      44.344 -15.011   6.925  1.00  0.00     0.020 A 
HETATM    6  C   UNL     1      44.107 -16.324   6.541  1.00  0.00     0.021 A 
ENDROOT
BRANCH   1   7
HETATM    7  C   UNL     1      43.211 -17.967   4.946  1.00  0.00     0.259 C 
HETATM    8  N   UNL     1      44.318 -18.607   4.437  1.00  0.00    -0.320 N 
HETATM    9  H   UNL     1      45.191 -18.089   4.374  1.00  0.00     0.169 HD
HETATM   10  O   UNL     1      42.071 -18.399   5.049  1.00  0.00    -0.267 OA
BRANCH   8  11
HETATM   11  C   UNL     1      44.408 -19.937   3.975  1.00  0.00     0.071 A 
HETATM   12  C   UNL     1      44.582 -20.940   4.947  1.00  0.00     0.095 A 
HETATM   13  C   UNL     1      44.636 -22.290   4.593  1.00  0.00     0.042 A 
HETATM   14  C   UNL     1      44.553 -22.646   3.249  1.00  0.00     0.045 A 
HETATM   15  C   UNL     1      44.408 -21.652   2.286  1.00  0.00     0.118 A 
HETATM   16  C   UNL     1      44.332 -20.304   2.633  1.00  0.00     0.074 A 
HETATM   17  F   UNL     1      44.329 -22.004   0.995  1.00  0.00    -0.206 F 
BRANCH  12  18
HETATM   18  O   UNL     1      44.652 -20.564   6.268  1.00  0.00    -0.354 OA
HETATM   19  C   UNL     1      43.704 -21.295   7.050  1.00  0.00     0.210 C 
ENDBRANCH  12  18
ENDBRANCH   8  11
ENDBRANCH   1   7
BRANCH   2  20
HETATM   20  S   UNL     1      42.300 -15.708   2.931  1.00  0.00    -0.070 SA
BRANCH  20  21
HETATM   21  C   UNL     1      41.482 -14.134   2.764  1.00  0.00     0.007 A 
HETATM   22  C   UNL     1      42.026 -13.117   1.974  1.00  0.00     0.019 A 
HETATM   23  C   UNL     1      41.363 -11.896   1.839  1.00  0.00     0.001 A 
HETATM   24  C   UNL     1      40.149 -11.686   2.489  1.00  0.00     0.000 A 
HETATM   25  C   UNL     1      39.595 -12.698   3.273  1.00  0.00     0.001 A 
HETATM   26  C   UNL     1      40.257 -13.921   3.405  1.00  0.00     0.019 A 
ENDBRANCH  20  21
ENDBRANCH   2  20
TORSDOF 5
ENDMDL
MODEL 7
REMARK VINA RESULT:      -7.5      1.713      2.314
REMARK  5 active torsions:
REMARK  status: ('A' for Active; 'I' for Inactive)
REMARK    1  A    between atoms: O_2  and  C_3 
REMARK    2  A    between atoms: C_4  and  N_5 
REMARK       I    between atoms: N_5  and  C_6 
REMARK    3  A    between atoms: C_6  and  C_7 
REMARK    4  A    between atoms: C_8  and  S_9 
REMARK    5  A    between atoms: S_9  and  C_10 
ROOT
HETATM    1  C   UNL     1      42.362 -15.606   4.433  1.00  0.00     0.068 A 
HETATM    2  C   UNL     1      42.148 -15.076   3.165  1.00  0.00     0.113 A 
HETATM    3  N   UNL     1      42.189 -13.735   2.937  1.00  0.00    -0.253 NA
HETATM    4  C   UNL     1      42.462 -12.926   3.985  1.00  0.00     0.118 A 
HETATM    5  C   UNL     1      42.697 -13.380   5.272  1.00  0.00     0.020 A 
HETATM    6  C   UNL     1      42.646 -14.750   5.501  1.00  0.00     0.021 A 
ENDROOT
BRANCH   1   7
HETATM    7  C   UNL     1      42.298 -17.049   4.703  1.00  0.00     0.259 C 
HETATM    8  N   UNL     1      43.535 -17.633   4.854  1.00  0.00    -0.320 N 
HETATM    9  H   UNL     1      44.361 -17.044   4.780  1.00  0.00     0.169 HD
HETATM   10  O   UNL     1      41.202 -17.593   4.702  1.00  0.00    -0.267 OA
BRANCH   8  11
HETATM   11  C   UNL     1      43.821 -18.990   5.109  1.00  0.00     0.071 A 
HETATM   12  C   UNL     1      44.320 -19.751   4.034  1.00  0.00     0.095 A 
HETATM   13  C   UNL     1      44.677 -21.091   4.199  1.00  0.00     0.042 A 
HETATM   14  C   UNL     1      44.499 -21.696   5.441  1.00  0.00     0.045 A 
HETATM   15  C   UNL     1      43.979 -20.951   6.496  1.00  0.00     0.118 A 
HETATM   16  C   UNL     1      43.641 -19.608   6.345  1.00  0.00     0.074 A 
HETATM   17  F   UNL     1      43.812 -21.543   7.687  1.00  0.00    -0.206 F 
BRANCH  12  18
HETATM   18  O   UNL     1      44.495 -19.128   2.820  1.00  0.00    -0.354 OA
HETATM   19  C   UNL     1      43.554 -19.620   1.863  1.00  0.00     0.210 C 
ENDBRANCH  12  18
ENDBRANCH   8  11
ENDBRANCH   1   7
BRANCH   2  20
HETATM   20  S   UNL     1      41.814 -16.084   1.732  1.00  0.00    -0.070 SA
BRANCH  20  21
HETATM   21  C   UNL     1      40.397 -15.238   1.059  1.00  0.00     0.007 A 
HETATM   22  C   UNL     1      39.209 -15.126   1.788  1.00  0.00     0.019 A 
HETATM   23  C   UNL     1      38.114 -14.445   1.254  1.00  0.00     0.001 A 
HETATM   24  C   UNL     1      38.202 -13.867  -0.011  1.00  0.00     0.000 A 
HETATM   25  C   UNL     1      39.385 -13.968  -0.742  1.00  0.00     0.001 A 
HETATM   26  C   UNL     1      40.482 -14.647  -0.205  1.00  0.00     0.019 A 
ENDBRANCH  20  21
ENDBRANCH   2  20
TORSDOF 5
ENDMDL
MODEL 8
REMARK VINA RESULT:      -7.4      2.936      6.931
REMARK  5 active torsions:
REMARK  status: ('A' for Active; 'I' for Inactive)
REMARK    1  A    between atoms: O_2  and  C_3 
REMARK    2  A    between atoms: C_4  and  N_5 
REMARK       I    between atoms: N_5  and  C_6 
REMARK    3  A    between atoms: C_6  and  C_7 
REMARK    4  A    between atoms: C_8  and  S_9 
REMARK    5  A    between atoms: S_9  and  C_10 
ROOT
HETATM    1  C   UNL     1      42.700 -15.008   3.147  1.00  0.00     0.068 A 
HETATM    2  C   UNL     1      42.120 -15.882   4.061  1.00  0.00     0.113 A 
HETATM    3  N   UNL     1      42.135 -15.629   5.398  1.00  0.00    -0.253 NA
HETATM    4  C   UNL     1      42.721 -14.484   5.816  1.00  0.00     0.118 A 
HETATM    5  C   UNL     1      43.308 -13.561   4.966  1.00  0.00     0.020 A 
HETATM    6  C   UNL     1      43.296 -13.829   3.602  1.00  0.00     0.021 A 
ENDROOT
BRANCH   1   7
HETATM    7  C   UNL     1      42.715 -15.276   1.702  1.00  0.00     0.259 C 
HETATM    8  N   UNL     1      41.872 -14.458   0.985  1.00  0.00    -0.320 N 
HETATM    9  H   UNL     1      41.336 -13.754   1.488  1.00  0.00     0.169 HD
HETATM   10  O   UNL     1      43.392 -16.208   1.291  1.00  0.00    -0.267 OA
BRANCH   8  11
HETATM   11  C   UNL     1      41.646 -14.463  -0.407  1.00  0.00     0.071 A 
HETATM   12  C   UNL     1      42.033 -13.313  -1.122  1.00  0.00     0.095 A 
HETATM   13  C   UNL     1      41.892 -13.241  -2.509  1.00  0.00     0.042 A 
HETATM   14  C   UNL     1      41.322 -14.314  -3.193  1.00  0.00     0.045 A 
HETATM   15  C   UNL     1      40.914 -15.439  -2.483  1.00  0.00     0.118 A 
HETATM   16  C   UNL     1      41.071 -15.527  -1.100  1.00  0.00     0.074 A 
HETATM   17  F   UNL     1      40.367 -16.465  -3.150  1.00  0.00    -0.206 F 
BRANCH  12  18
HETATM   18  O   UNL     1      42.600 -12.273  -0.425  1.00  0.00    -0.354 OA
HETATM   19  C   UNL     1      42.970 -11.215  -1.314  1.00  0.00     0.210 C 
ENDBRANCH  12  18
ENDBRANCH   8  11
ENDBRANCH   1   7
BRANCH   2  20
HETATM   20  S   UNL     1      41.303 -17.392   3.580  1.00  0.00    -0.070 SA
BRANCH  20  21
HETATM   21  C   UNL     1      42.676 -18.529   3.603  1.00  0.00     0.007 A 
HETATM   22  C   UNL     1      43.397 -18.768   4.777  1.00  0.00     0.019 A 
HETATM   23  C   UNL     1      44.458 -19.675   4.783  1.00  0.00     0.001 A 
HETATM   24  C   UNL     1      44.800 -20.353   3.615  1.00  0.00     0.000 A 
HETATM   25  C   UNL     1      44.082 -20.128   2.442  1.00  0.00     0.001 A 
HETATM   26  C   UNL     1      43.018 -19.222   2.437  1.00  0.00     0.019 A 
ENDBRANCH  20  21
ENDBRANCH   2  20
TORSDOF 5
ENDMDL
MODEL 9
REMARK VINA RESULT:      -7.4      2.731      7.079
REMARK  5 active torsions:
REMARK  status: ('A' for Active; 'I' for Inactive)
REMARK    1  A    between atoms: O_2  and  C_3 
REMARK    2  A    between atoms: C_4  and  N_5 
REMARK       I    between atoms: N_5  and  C_6 
REMARK    3  A    between atoms: C_6  and  C_7 
REMARK    4  A    between atoms: C_8  and  S_9 
REMARK    5  A    between atoms: S_9  and  C_10 
ROOT
HETATM    1  C   UNL     1      41.699 -16.784   3.594  1.00  0.00     0.068 A 
HETATM    2  C   UNL     1      43.005 -17.246   3.718  1.00  0.00     0.113 A 
HETATM    3  N   UNL     1      43.621 -17.329   4.929  1.00  0.00    -0.253 NA
HETATM    4  C   UNL     1      42.914 -16.959   6.021  1.00  0.00     0.118 A 
HETATM    5  C   UNL     1      41.608 -16.500   5.977  1.00  0.00     0.020 A 
HETATM    6  C   UNL     1      40.988 -16.411   4.738  1.00  0.00     0.021 A 
ENDROOT
BRANCH   1   7
HETATM    7  C   UNL     1      41.027 -16.665   2.293  1.00  0.00     0.259 C 
HETATM    8  N   UNL     1      41.421 -15.560   1.573  1.00  0.00    -0.320 N 
HETATM    9  H   UNL     1      42.123 -14.944   1.976  1.00  0.00     0.169 HD
HETATM   10  O   UNL     1      40.166 -17.484   2.006  1.00  0.00    -0.267 OA
BRANCH   8  11
HETATM   11  C   UNL     1      40.964 -15.153   0.302  1.00  0.00     0.071 A 
HETATM   12  C   UNL     1      40.134 -14.016   0.255  1.00  0.00     0.095 A 
HETATM   13  C   UNL     1      39.670 -13.509  -0.960  1.00  0.00     0.042 A 
HETATM   14  C   UNL     1      40.004 -14.162  -2.144  1.00  0.00     0.045 A 
HETATM   15  C   UNL     1      40.801 -15.302  -2.095  1.00  0.00     0.118 A 
HETATM   16  C   UNL     1      41.287 -15.802  -0.888  1.00  0.00     0.074 A 
HETATM   17  F   UNL     1      41.117 -15.924  -3.240  1.00  0.00    -0.206 F 
BRANCH  12  18
HETATM   18  O   UNL     1      39.827 -13.384   1.436  1.00  0.00    -0.354 OA
HETATM   19  C   UNL     1      40.359 -12.057   1.450  1.00  0.00     0.210 C 
ENDBRANCH  12  18
ENDBRANCH   8  11
ENDBRANCH   1   7
BRANCH   2  20
HETATM   20  S   UNL     1      43.985 -17.779   2.327  1.00  0.00    -0.070 SA
BRANCH  20  21
HETATM   21  C   UNL     1      44.124 -19.522   2.672  1.00  0.00     0.007 A 
HETATM   22  C   UNL     1      43.702 -20.479   1.742  1.00  0.00     0.019 A 
HETATM   23  C   UNL     1      43.834 -21.840   2.021  1.00  0.00     0.001 A 
HETATM   24  C   UNL     1      44.394 -22.254   3.228  1.00  0.00     0.000 A 
HETATM   25  C   UNL     1      44.824 -21.307   4.157  1.00  0.00     0.001 A 
HETATM   26  C   UNL     1      44.695 -19.944   3.876  1.00  0.00     0.019 A 
ENDBRANCH  20  21
ENDBRANCH   2  20
TORSDOF 5
ENDMDL
MODEL 10
REMARK VINA RESULT:      -7.2      2.897      6.757
REMARK  5 active torsions:
REMARK  status: ('A' for Active; 'I' for Inactive)
REMARK    1  A    between atoms: O_2  and  C_3 
REMARK    2  A    between atoms: C_4  and  N_5 
REMARK       I    between atoms: N_5  and  C_6 
REMARK    3  A    between atoms: C_6  and  C_7 
REMARK    4  A    between atoms: C_8  and  S_9 
REMARK    5  A    between atoms: S_9  and  C_10 
ROOT
HETATM    1  C   UNL     1      42.548 -18.330   2.309  1.00  0.00     0.068 A 
HETATM    2  C   UNL     1      42.552 -18.150   3.689  1.00  0.00     0.113 A 
HETATM    3  N   UNL     1      43.422 -18.819   4.493  1.00  0.00    -0.253 NA
HETATM    4  C   UNL     1      44.303 -19.660   3.906  1.00  0.00     0.118 A 
HETATM    5  C   UNL     1      44.366 -19.883   2.540  1.00  0.00     0.020 A 
HETATM    6  C   UNL     1      43.470 -19.202   1.725  1.00  0.00     0.021 A 
ENDROOT
BRANCH   1   7
HETATM    7  C   UNL     1      41.600 -17.634   1.428  1.00  0.00     0.259 C 
HETATM    8  N   UNL     1      42.061 -16.417   0.982  1.00  0.00    -0.320 N 
HETATM    9  H   UNL     1      42.986 -16.111   1.275  1.00  0.00     0.169 HD
HETATM   10  O   UNL     1      40.506 -18.144   1.234  1.00  0.00    -0.267 OA
BRANCH   8  11
HETATM   11  C   UNL     1      41.398 -15.502   0.138  1.00  0.00     0.071 A 
HETATM   12  C   UNL     1      40.819 -14.373   0.748  1.00  0.00     0.095 A 
HETATM   13  C   UNL     1      40.181 -13.387  -0.008  1.00  0.00     0.042 A 
HETATM   14  C   UNL     1      40.083 -13.545  -1.389  1.00  0.00     0.045 A 
HETATM   15  C   UNL     1      40.631 -14.675  -1.989  1.00  0.00     0.118 A 
HETATM   16  C   UNL     1      41.288 -15.652  -1.244  1.00  0.00     0.074 A 
HETATM   17  F   UNL     1      40.531 -14.817  -3.318  1.00  0.00    -0.206 F 
BRANCH  12  18
HETATM   18  O   UNL     1      40.937 -14.236   2.111  1.00  0.00    -0.354 OA
HETATM   19  C   UNL     1      39.647 -14.161   2.723  1.00  0.00     0.210 C 
ENDBRANCH  12  18
ENDBRANCH   8  11
ENDBRANCH   1   7
BRANCH   2  20
HETATM   20  S   UNL     1      41.442 -17.034   4.528  1.00  0.00    -0.070 SA
BRANCH  20  21
HETATM   21  C   UNL     1      42.609 -15.968   5.352  1.00  0.00     0.007 A 
HETATM   22  C   UNL     1      43.061 -16.254   6.644  1.00  0.00     0.019 A 
HETATM   23  C   UNL     1      43.989 -15.419   7.269  1.00  0.00     0.001 A 
HETATM   24  C   UNL     1      44.474 -14.296   6.602  1.00  0.00     0.000 A 
HETATM   25  C   UNL     1      44.034 -14.007   5.311  1.00  0.00     0.001 A 
HETATM   26  C   UNL     1      43.108 -14.845   4.685  1.00  0.00     0.019 A 
ENDBRANCH  20  21
ENDBRANCH   2  20
TORSDOF 5
ENDMDL
