MODEL 1
REMARK VINA RESULT:      -8.2      0.000      0.000
REMARK  5 active torsions:
REMARK  status: ('A' for Active; 'I' for Inactive)
REMARK    1  A    between atoms: C_7  and  C_8 
REMARK    2  A    between atoms: N_9  and  N_10 
REMARK       I    between atoms: N_10  and  C_11 
REMARK    3  A    between atoms: C_11  and  C_12 
REMARK    4  A    between atoms: C_12  and  N_13 
REMARK    5  A    between atoms: N_13  and  C_14 
ROOT
HETATM    1  N   UNL     1      39.561 -16.027   1.944  1.00  0.00    -0.246 N 
HETATM    2  C   UNL     1      39.159 -14.696   2.060  1.00  0.00     0.255 C 
HETATM    3  O   UNL     1      39.536 -13.905   2.921  1.00  0.00    -0.270 OA
HETATM    4  H   UNL     1      39.402 -16.499   1.059  1.00  0.00     0.192 HD
ENDROOT
BRANCH   1   5
HETATM    5  N   UNL     1      40.467 -16.672   2.755  1.00  0.00    -0.184 NA
HETATM    6  C   UNL     1      41.663 -16.884   2.304  1.00  0.00     0.153 C 
BRANCH   6   7
HETATM    7  C   UNL     1      42.650 -17.584   3.111  1.00  0.00     0.018 A 
HETATM    8  C   UNL     1      43.270 -17.140   4.271  1.00  0.00     0.018 A 
HETATM    9  C   UNL     1      43.132 -15.874   5.038  1.00  0.00     0.069 C 
HETATM   10  N   UNL     1      44.136 -18.125   4.683  1.00  0.00    -0.358 N 
HETATM   11  H   UNL     1      44.722 -18.076   5.504  1.00  0.00     0.166 HD
HETATM   12  C   UNL     1      44.099 -19.197   3.826  1.00  0.00     0.043 A 
HETATM   13  C   UNL     1      43.173 -18.892   2.830  1.00  0.00     0.004 A 
HETATM   14  C   UNL     1      44.810 -20.404   3.859  1.00  0.00     0.030 A 
HETATM   15  C   UNL     1      42.939 -19.849   1.818  1.00  0.00     0.014 A 
HETATM   16  C   UNL     1      43.639 -21.061   1.837  1.00  0.00     0.001 A 
HETATM   17  C   UNL     1      44.561 -21.331   2.843  1.00  0.00     0.002 A 
ENDBRANCH   6   7
ENDBRANCH   1   5
BRANCH   2  18
HETATM   18  C   UNL     1      38.141 -14.294   0.988  1.00  0.00     0.224 C 
BRANCH  18  19
HETATM   19  N   UNL     1      38.776 -13.538  -0.094  1.00  0.00    -0.380 N 
HETATM   20  H   UNL     1      39.575 -12.969   0.188  1.00  0.00     0.160 HD
BRANCH  19  21
HETATM   21  C   UNL     1      39.008 -14.179  -1.323  1.00  0.00     0.050 A 
HETATM   22  C   UNL     1      40.299 -14.638  -1.663  1.00  0.00     0.060 A 
HETATM   23 CL   UNL     1      41.597 -14.527  -0.520  1.00  0.00    -0.082 Cl
HETATM   24  C   UNL     1      40.567 -15.220  -2.906  1.00  0.00     0.026 A 
HETATM   25  C   UNL     1      39.551 -15.337  -3.850  1.00  0.00     0.002 A 
HETATM   26  C   UNL     1      38.276 -14.868  -3.551  1.00  0.00     0.002 A 
HETATM   27  C   UNL     1      38.011 -14.288  -2.305  1.00  0.00     0.031 A 
ENDBRANCH  19  21
ENDBRANCH  18  19
ENDBRANCH   2  18
TORSDOF 5
ENDMDL
MODEL 2
REMARK VINA RESULT:      -8.2      1.891      2.410
REMARK  5 active torsions:
REMARK  status: ('A' for Active; 'I' for Inactive)
REMARK    1  A    between atoms: C_7  and  C_8 
REMARK    2  A    between atoms: N_9  and  N_10 
REMARK       I    between atoms: N_10  and  C_11 
REMARK    3  A    between atoms: C_11  and  C_12 
REMARK    4  A    between atoms: C_12  and  N_13 
REMARK    5  A    between atoms: N_13  and  C_14 
ROOT
HETATM    1  N   UNL     1      40.999 -16.169   2.763  1.00  0.00    -0.246 N 
HETATM    2  C   UNL     1      40.732 -16.057   1.398  1.00  0.00     0.255 C 
HETATM    3  O   UNL     1      41.042 -16.877   0.536  1.00  0.00    -0.270 OA
HETATM    4  H   UNL     1      40.473 -15.582   3.403  1.00  0.00     0.192 HD
ENDROOT
BRANCH   1   5
HETATM    5  N   UNL     1      41.629 -17.226   3.380  1.00  0.00    -0.184 NA
HETATM    6  C   UNL     1      42.922 -17.290   3.336  1.00  0.00     0.153 C 
BRANCH   6   7
HETATM    7  C   UNL     1      43.634 -18.400   3.949  1.00  0.00     0.018 A 
HETATM    8  C   UNL     1      44.255 -18.432   5.191  1.00  0.00     0.018 A 
HETATM    9  C   UNL     1      44.384 -17.398   6.252  1.00  0.00     0.069 C 
HETATM   10  N   UNL     1      44.808 -19.680   5.348  1.00  0.00    -0.358 N 
HETATM   11  H   UNL     1      45.323 -19.988   6.161  1.00  0.00     0.166 HD
HETATM   12  C   UNL     1      44.567 -20.463   4.246  1.00  0.00     0.043 A 
HETATM   13  C   UNL     1      43.828 -19.692   3.351  1.00  0.00     0.004 A 
HETATM   14  C   UNL     1      44.944 -21.786   3.980  1.00  0.00     0.030 A 
HETATM   15  C   UNL     1      43.438 -20.278   2.127  1.00  0.00     0.014 A 
HETATM   16  C   UNL     1      43.804 -21.600   1.845  1.00  0.00     0.001 A 
HETATM   17  C   UNL     1      44.547 -22.340   2.759  1.00  0.00     0.002 A 
ENDBRANCH   6   7
ENDBRANCH   1   5
BRANCH   2  18
HETATM   18  C   UNL     1      40.009 -14.753   1.046  1.00  0.00     0.224 C 
BRANCH  18  19
HETATM   19  N   UNL     1      39.783 -14.641  -0.397  1.00  0.00    -0.380 N 
HETATM   20  H   UNL     1      38.824 -14.421  -0.668  1.00  0.00     0.160 HD
BRANCH  19  21
HETATM   21  C   UNL     1      40.714 -13.931  -1.175  1.00  0.00     0.050 A 
HETATM   22  C   UNL     1      41.076 -14.391  -2.460  1.00  0.00     0.060 A 
HETATM   23 CL   UNL     1      40.291 -15.772  -3.150  1.00  0.00    -0.082 Cl
HETATM   24  C   UNL     1      42.047 -13.738  -3.225  1.00  0.00     0.026 A 
HETATM   25  C   UNL     1      42.697 -12.617  -2.712  1.00  0.00     0.002 A 
HETATM   26  C   UNL     1      42.378 -12.161  -1.437  1.00  0.00     0.002 A 
HETATM   27  C   UNL     1      41.404 -12.815  -0.675  1.00  0.00     0.031 A 
ENDBRANCH  19  21
ENDBRANCH  18  19
ENDBRANCH   2  18
TORSDOF 5
ENDMDL
MODEL 3
REMARK VINA RESULT:      -8.1      5.339      8.846
REMARK  5 active torsions:
REMARK  status: ('A' for Active; 'I' for Inactive)
REMARK    1  A    between atoms: C_7  and  C_8 
REMARK    2  A    between atoms: N_9  and  N_10 
REMARK       I    between atoms: N_10  and  C_11 
REMARK    3  A    between atoms: C_11  and  C_12 
REMARK    4  A    between atoms: C_12  and  N_13 
REMARK    5  A    between atoms: N_13  and  C_14 
ROOT
HETATM    1  N   UNL     1      43.664 -14.320   6.858  1.00  0.00    -0.246 N 
HETATM    2  C   UNL     1      44.827 -13.651   7.240  1.00  0.00     0.255 C 
HETATM    3  O   UNL     1      45.883 -13.628   6.611  1.00  0.00    -0.270 OA
HETATM    4  H   UNL     1      42.791 -14.055   7.303  1.00  0.00     0.192 HD
ENDROOT
BRANCH   1   5
HETATM    5  N   UNL     1      43.492 -15.044   5.700  1.00  0.00    -0.184 NA
HETATM    6  C   UNL     1      43.032 -16.252   5.786  1.00  0.00     0.153 C 
BRANCH   6   7
HETATM    7  C   UNL     1      42.856 -17.068   4.595  1.00  0.00     0.018 A 
HETATM    8  C   UNL     1      41.979 -16.856   3.539  1.00  0.00     0.018 A 
HETATM    9  C   UNL     1      40.988 -15.777   3.286  1.00  0.00     0.069 C 
HETATM   10  N   UNL     1      42.149 -17.885   2.644  1.00  0.00    -0.358 N 
HETATM   11  H   UNL     1      41.641 -17.989   1.776  1.00  0.00     0.166 HD
HETATM   12  C   UNL     1      43.110 -18.761   3.084  1.00  0.00     0.043 A 
HETATM   13  C   UNL     1      43.578 -18.276   4.303  1.00  0.00     0.004 A 
HETATM   14  C   UNL     1      43.597 -19.936   2.496  1.00  0.00     0.030 A 
HETATM   15  C   UNL     1      44.592 -19.000   4.967  1.00  0.00     0.014 A 
HETATM   16  C   UNL     1      45.092 -20.176   4.393  1.00  0.00     0.001 A 
HETATM   17  C   UNL     1      44.598 -20.635   3.177  1.00  0.00     0.002 A 
ENDBRANCH   6   7
ENDBRANCH   1   5
BRANCH   2  18
HETATM   18  C   UNL     1      44.677 -12.935   8.586  1.00  0.00     0.224 C 
BRANCH  18  19
HETATM   19  N   UNL     1      43.596 -11.946   8.547  1.00  0.00    -0.380 N 
HETATM   20  H   UNL     1      42.729 -12.271   8.117  1.00  0.00     0.160 HD
BRANCH  19  21
HETATM   21  C   UNL     1      43.344 -11.172   9.693  1.00  0.00     0.050 A 
HETATM   22  C   UNL     1      42.215 -10.327   9.755  1.00  0.00     0.060 A 
HETATM   23 CL   UNL     1      41.054 -10.319   8.469  1.00  0.00    -0.082 Cl
HETATM   24  C   UNL     1      41.980  -9.499  10.857  1.00  0.00     0.026 A 
HETATM   25  C   UNL     1      42.882  -9.481  11.917  1.00  0.00     0.002 A 
HETATM   26  C   UNL     1      44.017 -10.284  11.868  1.00  0.00     0.002 A 
HETATM   27  C   UNL     1      44.249 -11.113  10.764  1.00  0.00     0.031 A 
ENDBRANCH  19  21
ENDBRANCH  18  19
ENDBRANCH   2  18
TORSDOF 5
ENDMDL
MODEL 4
REMARK VINA RESULT:      -8.1      2.629      2.984
REMARK  5 active torsions:
REMARK  status: ('A' for Active; 'I' for Inactive)
REMARK    1  A    between atoms: C_7  and  C_8 
REMARK    2  A    between atoms: N_9  and  N_10 
REMARK       I    between atoms: N_10  and  C_11 
REMARK    3  A    between atoms: C_11  and  C_12 
REMARK    4  A    between atoms: C_12  and  N_13 
REMARK    5  A    between atoms: N_13  and  C_14 
ROOT
HETATM    1  N   UNL     1      42.512 -15.066   2.219  1.00  0.00    -0.246 N 
HETATM    2  C   UNL     1      42.749 -13.736   2.569  1.00  0.00     0.255 C 
HETATM    3  O   UNL     1      43.639 -13.339   3.318  1.00  0.00    -0.270 OA
HETATM    4  H   UNL     1      41.939 -15.250   1.401  1.00  0.00     0.192 HD
ENDROOT
BRANCH   1   5
HETATM    5  N   UNL     1      43.249 -16.154   2.628  1.00  0.00    -0.184 NA
HETATM    6  C   UNL     1      42.797 -16.880   3.602  1.00  0.00     0.153 C 
BRANCH   6   7
HETATM    7  C   UNL     1      43.549 -18.024   4.089  1.00  0.00     0.018 A 
HETATM    8  C   UNL     1      44.249 -18.138   5.283  1.00  0.00     0.018 A 
HETATM    9  C   UNL     1      44.442 -17.181   6.404  1.00  0.00     0.069 C 
HETATM   10  N   UNL     1      44.815 -19.390   5.317  1.00  0.00    -0.358 N 
HETATM   11  H   UNL     1      45.381 -19.750   6.072  1.00  0.00     0.166 HD
HETATM   12  C   UNL     1      44.507 -20.096   4.180  1.00  0.00     0.043 A 
HETATM   13  C   UNL     1      43.709 -19.270   3.391  1.00  0.00     0.004 A 
HETATM   14  C   UNL     1      44.870 -21.394   3.798  1.00  0.00     0.030 A 
HETATM   15  C   UNL     1      43.244 -19.772   2.155  1.00  0.00     0.014 A 
HETATM   16  C   UNL     1      43.595 -21.067   1.758  1.00  0.00     0.001 A 
HETATM   17  C   UNL     1      44.398 -21.864   2.569  1.00  0.00     0.002 A 
ENDBRANCH   6   7
ENDBRANCH   1   5
BRANCH   2  18
HETATM   18  C   UNL     1      41.744 -12.772   1.932  1.00  0.00     0.224 C 
BRANCH  18  19
HETATM   19  N   UNL     1      42.383 -11.924   0.924  1.00  0.00    -0.380 N 
HETATM   20  H   UNL     1      43.334 -11.628   1.149  1.00  0.00     0.160 HD
BRANCH  19  21
HETATM   21  C   UNL     1      42.259 -12.271  -0.432  1.00  0.00     0.050 A 
HETATM   22  C   UNL     1      42.805 -11.445  -1.439  1.00  0.00     0.060 A 
HETATM   23 CL   UNL     1      43.742 -10.051  -1.016  1.00  0.00    -0.082 Cl
HETATM   24  C   UNL     1      42.638 -11.736  -2.796  1.00  0.00     0.026 A 
HETATM   25  C   UNL     1      41.899 -12.853  -3.181  1.00  0.00     0.002 A 
HETATM   26  C   UNL     1      41.327 -13.667  -2.208  1.00  0.00     0.002 A 
HETATM   27  C   UNL     1      41.499 -13.374  -0.851  1.00  0.00     0.031 A 
ENDBRANCH  19  21
ENDBRANCH  18  19
ENDBRANCH   2  18
TORSDOF 5
ENDMDL
MODEL 5
REMARK VINA RESULT:      -8.0      1.905      2.244
REMARK  5 active torsions:
REMARK  status: ('A' for Active; 'I' for Inactive)
REMARK    1  A    between atoms: C_7  and  C_8 
REMARK    2  A    between atoms: N_9  and  N_10 
REMARK       I    between atoms: N_10  and  C_11 
REMARK    3  A    between atoms: C_11  and  C_12 
REMARK    4  A    between atoms: C_12  and  N_13 
REMARK    5  A    between atoms: N_13  and  C_14 
ROOT
HETATM    1  N   UNL     1      42.575 -16.445   0.630  1.00  0.00    -0.246 N 
HETATM    2  C   UNL     1      41.633 -15.416   0.658  1.00  0.00     0.255 C 
HETATM    3  O   UNL     1      40.790 -15.238   1.534  1.00  0.00    -0.270 OA
HETATM    4  H   UNL     1      43.378 -16.342   0.018  1.00  0.00     0.192 HD
ENDROOT
BRANCH   1   5
HETATM    5  N   UNL     1      42.737 -17.418   1.590  1.00  0.00    -0.184 NA
HETATM    6  C   UNL     1      43.778 -17.363   2.360  1.00  0.00     0.153 C 
BRANCH   6   7
HETATM    7  C   UNL     1      44.009 -18.381   3.372  1.00  0.00     0.018 A 
HETATM    8  C   UNL     1      44.099 -18.210   4.748  1.00  0.00     0.018 A 
HETATM    9  C   UNL     1      43.985 -16.995   5.597  1.00  0.00     0.069 C 
HETATM   10  N   UNL     1      44.337 -19.443   5.306  1.00  0.00    -0.358 N 
HETATM   11  H   UNL     1      44.446 -19.621   6.295  1.00  0.00     0.166 HD
HETATM   12  C   UNL     1      44.405 -20.413   4.336  1.00  0.00     0.043 A 
HETATM   13  C   UNL     1      44.199 -19.781   3.112  1.00  0.00     0.004 A 
HETATM   14  C   UNL     1      44.630 -21.791   4.453  1.00  0.00     0.030 A 
HETATM   15  C   UNL     1      44.211 -20.571   1.941  1.00  0.00     0.014 A 
HETATM   16  C   UNL     1      44.433 -21.950   2.039  1.00  0.00     0.001 A 
HETATM   17  C   UNL     1      44.641 -22.548   3.277  1.00  0.00     0.002 A 
ENDBRANCH   6   7
ENDBRANCH   1   5
BRANCH   2  18
HETATM   18  C   UNL     1      41.729 -14.499  -0.565  1.00  0.00     0.224 C 
BRANCH  18  19
HETATM   19  N   UNL     1      40.429 -13.908  -0.893  1.00  0.00    -0.380 N 
HETATM   20  H   UNL     1      40.400 -12.888  -0.870  1.00  0.00     0.160 HD
BRANCH  19  21
HETATM   21  C   UNL     1      39.709 -14.419  -1.986  1.00  0.00     0.050 A 
HETATM   22  C   UNL     1      38.369 -14.035  -2.207  1.00  0.00     0.060 A 
HETATM   23 CL   UNL     1      37.625 -12.835  -1.204  1.00  0.00    -0.082 Cl
HETATM   24  C   UNL     1      37.613 -14.580  -3.250  1.00  0.00     0.026 A 
HETATM   25  C   UNL     1      38.175 -15.541  -4.086  1.00  0.00     0.002 A 
HETATM   26  C   UNL     1      39.485 -15.958  -3.872  1.00  0.00     0.002 A 
HETATM   27  C   UNL     1      40.240 -15.409  -2.829  1.00  0.00     0.031 A 
ENDBRANCH  19  21
ENDBRANCH  18  19
ENDBRANCH   2  18
TORSDOF 5
ENDMDL
MODEL 6
REMARK VINA RESULT:      -7.6      2.102      2.899
REMARK  5 active torsions:
REMARK  status: ('A' for Active; 'I' for Inactive)
REMARK    1  A    between atoms: C_7  and  C_8 
REMARK    2  A    between atoms: N_9  and  N_10 
REMARK       I    between atoms: N_10  and  C_11 
REMARK    3  A    between atoms: C_11  and  C_12 
REMARK    4  A    between atoms: C_12  and  N_13 
REMARK    5  A    between atoms: N_13  and  C_14 
ROOT
HETATM    1  N   UNL     1      41.673 -15.578   3.896  1.00  0.00    -0.246 N 
HETATM    2  C   UNL     1      40.836 -14.776   4.671  1.00  0.00     0.255 C 
HETATM    3  O   UNL     1      40.420 -15.048   5.795  1.00  0.00    -0.270 OA
HETATM    4  H   UNL     1      42.163 -15.147   3.117  1.00  0.00     0.192 HD
ENDROOT
BRANCH   1   5
HETATM    5  N   UNL     1      42.197 -16.796   4.266  1.00  0.00    -0.184 NA
HETATM    6  C   UNL     1      43.406 -17.088   3.904  1.00  0.00     0.153 C 
BRANCH   6   7
HETATM    7  C   UNL     1      43.997 -18.371   4.247  1.00  0.00     0.018 A 
HETATM    8  C   UNL     1      44.706 -18.703   5.394  1.00  0.00     0.018 A 
HETATM    9  C   UNL     1      45.070 -17.900   6.592  1.00  0.00     0.069 C 
HETATM   10  N   UNL     1      45.084 -20.020   5.285  1.00  0.00    -0.358 N 
HETATM   11  H   UNL     1      45.613 -20.531   5.977  1.00  0.00     0.166 HD
HETATM   12  C   UNL     1      44.642 -20.557   4.101  1.00  0.00     0.043 A 
HETATM   13  C   UNL     1      43.952 -19.551   3.428  1.00  0.00     0.004 A 
HETATM   14  C   UNL     1      44.800 -21.849   3.582  1.00  0.00     0.030 A 
HETATM   15  C   UNL     1      43.383 -19.855   2.172  1.00  0.00     0.014 A 
HETATM   16  C   UNL     1      43.528 -21.141   1.639  1.00  0.00     0.001 A 
HETATM   17  C   UNL     1      44.229 -22.121   2.335  1.00  0.00     0.002 A 
ENDBRANCH   6   7
ENDBRANCH   1   5
BRANCH   2  18
HETATM   18  C   UNL     1      40.441 -13.478   3.960  1.00  0.00     0.224 C 
BRANCH  18  19
HETATM   19  N   UNL     1      39.477 -13.729   2.887  1.00  0.00    -0.380 N 
HETATM   20  H   UNL     1      38.545 -13.344   3.044  1.00  0.00     0.160 HD
BRANCH  19  21
HETATM   21  C   UNL     1      39.886 -13.558   1.553  1.00  0.00     0.050 A 
HETATM   22  C   UNL     1      39.001 -13.832   0.488  1.00  0.00     0.060 A 
HETATM   23 CL   UNL     1      37.356 -14.270   0.807  1.00  0.00    -0.082 Cl
HETATM   24  C   UNL     1      39.407 -13.731  -0.846  1.00  0.00     0.026 A 
HETATM   25  C   UNL     1      40.718 -13.373  -1.148  1.00  0.00     0.002 A 
HETATM   26  C   UNL     1      41.618 -13.125  -0.116  1.00  0.00     0.002 A 
HETATM   27  C   UNL     1      41.208 -13.224   1.218  1.00  0.00     0.031 A 
ENDBRANCH  19  21
ENDBRANCH  18  19
ENDBRANCH   2  18
TORSDOF 5
ENDMDL
MODEL 7
REMARK VINA RESULT:      -7.6      2.747      8.097
REMARK  5 active torsions:
REMARK  status: ('A' for Active; 'I' for Inactive)
REMARK    1  A    between atoms: C_7  and  C_8 
REMARK    2  A    between atoms: N_9  and  N_10 
REMARK       I    between atoms: N_10  and  C_11 
REMARK    3  A    between atoms: C_11  and  C_12 
REMARK    4  A    between atoms: C_12  and  N_13 
REMARK    5  A    between atoms: N_13  and  C_14 
ROOT
HETATM    1  N   UNL     1      40.936 -16.163   1.248  1.00  0.00    -0.246 N 
HETATM    2  C   UNL     1      41.073 -15.830   2.596  1.00  0.00     0.255 C 
HETATM    3  O   UNL     1      41.041 -14.693   3.061  1.00  0.00    -0.270 OA
HETATM    4  H   UNL     1      40.710 -17.124   1.013  1.00  0.00     0.192 HD
ENDROOT
BRANCH   1   5
HETATM    5  N   UNL     1      40.717 -15.280   0.215  1.00  0.00    -0.184 NA
HETATM    6  C   UNL     1      41.296 -15.499  -0.923  1.00  0.00     0.153 C 
BRANCH   6   7
HETATM    7  C   UNL     1      41.118 -14.582  -2.038  1.00  0.00     0.018 A 
HETATM    8  C   UNL     1      40.373 -14.781  -3.193  1.00  0.00     0.018 A 
HETATM    9  C   UNL     1      39.546 -15.932  -3.644  1.00  0.00     0.069 C 
HETATM   10  N   UNL     1      40.501 -13.655  -3.970  1.00  0.00    -0.358 N 
HETATM   11  H   UNL     1      40.064 -13.519  -4.871  1.00  0.00     0.166 HD
HETATM   12  C   UNL     1      41.308 -12.728  -3.357  1.00  0.00     0.043 A 
HETATM   13  C   UNL     1      41.708 -13.276  -2.140  1.00  0.00     0.004 A 
HETATM   14  C   UNL     1      41.708 -11.456  -3.786  1.00  0.00     0.030 A 
HETATM   15  C   UNL     1      42.547 -12.508  -1.304  1.00  0.00     0.014 A 
HETATM   16  C   UNL     1      42.955 -11.233  -1.716  1.00  0.00     0.001 A 
HETATM   17  C   UNL     1      42.542 -10.718  -2.940  1.00  0.00     0.002 A 
ENDBRANCH   6   7
ENDBRANCH   1   5
BRANCH   2  18
HETATM   18  C   UNL     1      41.299 -17.057   3.484  1.00  0.00     0.224 C 
BRANCH  18  19
HETATM   19  N   UNL     1      42.727 -17.301   3.702  1.00  0.00    -0.380 N 
HETATM   20  H   UNL     1      43.093 -16.958   4.592  1.00  0.00     0.160 HD
BRANCH  19  21
HETATM   21  C   UNL     1      43.256 -18.563   3.380  1.00  0.00     0.050 A 
HETATM   22  C   UNL     1      44.252 -19.153   4.189  1.00  0.00     0.060 A 
HETATM   23 CL   UNL     1      44.756 -18.386   5.658  1.00  0.00    -0.082 Cl
HETATM   24  C   UNL     1      44.839 -20.376   3.852  1.00  0.00     0.026 A 
HETATM   25  C   UNL     1      44.457 -21.032   2.684  1.00  0.00     0.002 A 
HETATM   26  C   UNL     1      43.497 -20.458   1.857  1.00  0.00     0.002 A 
HETATM   27  C   UNL     1      42.910 -19.234   2.197  1.00  0.00     0.031 A 
ENDBRANCH  19  21
ENDBRANCH  18  19
ENDBRANCH   2  18
TORSDOF 5
ENDMDL
MODEL 8
REMARK VINA RESULT:      -7.5      2.482      3.354
REMARK  5 active torsions:
REMARK  status: ('A' for Active; 'I' for Inactive)
REMARK    1  A    between atoms: C_7  and  C_8 
REMARK    2  A    between atoms: N_9  and  N_10 
REMARK       I    between atoms: N_10  and  C_11 
REMARK    3  A    between atoms: C_11  and  C_12 
REMARK    4  A    between atoms: C_12  and  N_13 
REMARK    5  A    between atoms: N_13  and  C_14 
ROOT
HETATM    1  N   UNL     1      42.594 -15.039   4.125  1.00  0.00    -0.246 N 
HETATM    2  C   UNL     1      43.147 -13.787   3.854  1.00  0.00     0.255 C 
HETATM    3  O   UNL     1      44.334 -13.560   3.631  1.00  0.00    -0.270 OA
HETATM    4  H   UNL     1      41.589 -15.150   4.026  1.00  0.00     0.192 HD
ENDROOT
BRANCH   1   5
HETATM    5  N   UNL     1      43.276 -16.234   4.162  1.00  0.00    -0.184 NA
HETATM    6  C   UNL     1      42.797 -17.201   4.879  1.00  0.00     0.153 C 
BRANCH   6   7
HETATM    7  C   UNL     1      43.493 -18.474   4.973  1.00  0.00     0.018 A 
HETATM    8  C   UNL     1      44.112 -19.026   6.087  1.00  0.00     0.018 A 
HETATM    9  C   UNL     1      44.253 -18.528   7.481  1.00  0.00     0.069 C 
HETATM   10  N   UNL     1      44.649 -20.233   5.709  1.00  0.00    -0.358 N 
HETATM   11  H   UNL     1      45.159 -20.857   6.319  1.00  0.00     0.166 HD
HETATM   12  C   UNL     1      44.399 -20.485   4.383  1.00  0.00     0.043 A 
HETATM   13  C   UNL     1      43.671 -19.403   3.892  1.00  0.00     0.004 A 
HETATM   14  C   UNL     1      44.759 -21.582   3.590  1.00  0.00     0.030 A 
HETATM   15  C   UNL     1      43.276 -19.423   2.537  1.00  0.00     0.014 A 
HETATM   16  C   UNL     1      43.625 -20.512   1.729  1.00  0.00     0.001 A 
HETATM   17  C   UNL     1      44.357 -21.574   2.250  1.00  0.00     0.002 A 
ENDBRANCH   6   7
ENDBRANCH   1   5
BRANCH   2  18
HETATM   18  C   UNL     1      42.104 -12.665   3.883  1.00  0.00     0.224 C 
BRANCH  18  19
HETATM   19  N   UNL     1      41.845 -12.142   2.540  1.00  0.00    -0.380 N 
HETATM   20  H   UNL     1      42.678 -11.899   2.002  1.00  0.00     0.160 HD
BRANCH  19  21
HETATM   21  C   UNL     1      40.884 -12.781   1.738  1.00  0.00     0.050 A 
HETATM   22  C   UNL     1      40.969 -12.724   0.329  1.00  0.00     0.060 A 
HETATM   23 CL   UNL     1      42.327 -11.967  -0.436  1.00  0.00    -0.082 Cl
HETATM   24  C   UNL     1      39.989 -13.295  -0.488  1.00  0.00     0.026 A 
HETATM   25  C   UNL     1      38.886 -13.922   0.086  1.00  0.00     0.002 A 
HETATM   26  C   UNL     1      38.764 -13.967   1.471  1.00  0.00     0.002 A 
HETATM   27  C   UNL     1      39.747 -13.396   2.286  1.00  0.00     0.031 A 
ENDBRANCH  19  21
ENDBRANCH  18  19
ENDBRANCH   2  18
TORSDOF 5
ENDMDL
MODEL 9
REMARK VINA RESULT:      -7.5      2.549      3.840
REMARK  5 active torsions:
REMARK  status: ('A' for Active; 'I' for Inactive)
REMARK    1  A    between atoms: C_7  and  C_8 
REMARK    2  A    between atoms: N_9  and  N_10 
REMARK       I    between atoms: N_10  and  C_11 
REMARK    3  A    between atoms: C_11  and  C_12 
REMARK    4  A    between atoms: C_12  and  N_13 
REMARK    5  A    between atoms: N_13  and  C_14 
ROOT
HETATM    1  N   UNL     1      40.991 -16.215   2.460  1.00  0.00    -0.246 N 
HETATM    2  C   UNL     1      40.931 -15.974   1.087  1.00  0.00     0.255 C 
HETATM    3  O   UNL     1      41.444 -16.669   0.213  1.00  0.00    -0.270 OA
HETATM    4  H   UNL     1      40.321 -15.742   3.058  1.00  0.00     0.192 HD
ENDROOT
BRANCH   1   5
HETATM    5  N   UNL     1      41.609 -17.284   3.067  1.00  0.00    -0.184 NA
HETATM    6  C   UNL     1      42.889 -17.232   3.264  1.00  0.00     0.153 C 
BRANCH   6   7
HETATM    7  C   UNL     1      43.593 -18.347   3.878  1.00  0.00     0.018 A 
HETATM    8  C   UNL     1      44.198 -18.387   5.127  1.00  0.00     0.018 A 
HETATM    9  C   UNL     1      44.311 -17.363   6.199  1.00  0.00     0.069 C 
HETATM   10  N   UNL     1      44.750 -19.636   5.282  1.00  0.00    -0.358 N 
HETATM   11  H   UNL     1      45.254 -19.950   6.099  1.00  0.00     0.166 HD
HETATM   12  C   UNL     1      44.525 -20.411   4.171  1.00  0.00     0.043 A 
HETATM   13  C   UNL     1      43.797 -19.633   3.272  1.00  0.00     0.004 A 
HETATM   14  C   UNL     1      44.906 -21.731   3.899  1.00  0.00     0.030 A 
HETATM   15  C   UNL     1      43.424 -20.210   2.038  1.00  0.00     0.014 A 
HETATM   16  C   UNL     1      43.795 -21.529   1.750  1.00  0.00     0.001 A 
HETATM   17  C   UNL     1      44.527 -22.275   2.668  1.00  0.00     0.002 A 
ENDBRANCH   6   7
ENDBRANCH   1   5
BRANCH   2  18
HETATM   18  C   UNL     1      40.158 -14.696   0.748  1.00  0.00     0.224 C 
BRANCH  18  19
HETATM   19  N   UNL     1      39.062 -14.469   1.693  1.00  0.00    -0.380 N 
HETATM   20  H   UNL     1      38.915 -15.217   2.371  1.00  0.00     0.160 HD
BRANCH  19  21
HETATM   21  C   UNL     1      38.931 -13.202   2.287  1.00  0.00     0.050 A 
HETATM   22  C   UNL     1      38.037 -12.247   1.753  1.00  0.00     0.060 A 
HETATM   23 CL   UNL     1      36.999 -12.661   0.430  1.00  0.00    -0.082 Cl
HETATM   24  C   UNL     1      37.938 -10.958   2.287  1.00  0.00     0.026 A 
HETATM   25  C   UNL     1      38.747 -10.586   3.357  1.00  0.00     0.002 A 
HETATM   26  C   UNL     1      39.656 -11.500   3.883  1.00  0.00     0.002 A 
HETATM   27  C   UNL     1      39.751 -12.789   3.348  1.00  0.00     0.031 A 
ENDBRANCH  19  21
ENDBRANCH  18  19
ENDBRANCH   2  18
TORSDOF 5
ENDMDL
MODEL 10
REMARK VINA RESULT:      -7.4      6.766     10.339
REMARK  5 active torsions:
REMARK  status: ('A' for Active; 'I' for Inactive)
REMARK    1  A    between atoms: C_7  and  C_8 
REMARK    2  A    between atoms: N_9  and  N_10 
REMARK       I    between atoms: N_10  and  C_11 
REMARK    3  A    between atoms: C_11  and  C_12 
REMARK    4  A    between atoms: C_12  and  N_13 
REMARK    5  A    between atoms: N_13  and  C_14 
ROOT
HETATM    1  N   UNL     1      44.802 -12.908   8.484  1.00  0.00    -0.246 N 
HETATM    2  C   UNL     1      44.039 -11.808   8.875  1.00  0.00     0.255 C 
HETATM    3  O   UNL     1      43.178 -11.253   8.196  1.00  0.00    -0.270 OA
HETATM    4  H   UNL     1      45.278 -13.441   9.205  1.00  0.00     0.192 HD
ENDROOT
BRANCH   1   5
HETATM    5  N   UNL     1      44.702 -13.576   7.284  1.00  0.00    -0.184 NA
HETATM    6  C   UNL     1      43.798 -14.495   7.158  1.00  0.00     0.153 C 
BRANCH   6   7
HETATM    7  C   UNL     1      43.668 -15.247   5.920  1.00  0.00     0.018 A 
HETATM    8  C   UNL     1      43.212 -14.791   4.690  1.00  0.00     0.018 A 
HETATM    9  C   UNL     1      42.739 -13.451   4.252  1.00  0.00     0.069 C 
HETATM   10  N   UNL     1      43.250 -15.849   3.814  1.00  0.00    -0.358 N 
HETATM   11  H   UNL     1      42.976 -15.808   2.842  1.00  0.00     0.166 HD
HETATM   12  C   UNL     1      43.717 -16.981   4.435  1.00  0.00     0.043 A 
HETATM   13  C   UNL     1      43.993 -16.637   5.757  1.00  0.00     0.004 A 
HETATM   14  C   UNL     1      43.914 -18.272   3.928  1.00  0.00     0.030 A 
HETATM   15  C   UNL     1      44.501 -17.636   6.616  1.00  0.00     0.014 A 
HETATM   16  C   UNL     1      44.707 -18.931   6.126  1.00  0.00     0.001 A 
HETATM   17  C   UNL     1      44.415 -19.242   4.802  1.00  0.00     0.002 A 
ENDBRANCH   6   7
ENDBRANCH   1   5
BRANCH   2  18
HETATM   18  C   UNL     1      44.400 -11.312  10.279  1.00  0.00     0.224 C 
BRANCH  18  19
HETATM   19  N   UNL     1      43.589 -10.154  10.661  1.00  0.00    -0.380 N 
HETATM   20  H   UNL     1      42.944  -9.822   9.942  1.00  0.00     0.160 HD
BRANCH  19  21
HETATM   21  C   UNL     1      42.996 -10.133  11.935  1.00  0.00     0.050 A 
HETATM   22  C   UNL     1      41.659 -10.552  12.113  1.00  0.00     0.060 A 
HETATM   23 CL   UNL     1      40.765 -11.214  10.785  1.00  0.00    -0.082 Cl
HETATM   24  C   UNL     1      41.028 -10.479  13.358  1.00  0.00     0.026 A 
HETATM   25  C   UNL     1      41.713  -9.962  14.454  1.00  0.00     0.002 A 
HETATM   26  C   UNL     1      43.022  -9.515  14.299  1.00  0.00     0.002 A 
HETATM   27  C   UNL     1      43.652  -9.592  13.052  1.00  0.00     0.031 A 
ENDBRANCH  19  21
ENDBRANCH  18  19
ENDBRANCH   2  18
TORSDOF 5
ENDMDL
