MODEL 1
REMARK VINA RESULT:      -7.8      0.000      0.000
REMARK  4 active torsions:
REMARK  status: ('A' for Active; 'I' for Inactive)
REMARK    1  A    between atoms: C_2  and  O_3 
REMARK    2  A    between atoms: O_3  and  C_4 
REMARK    3  A    between atoms: C_11  and  C_12 
REMARK    4  A    between atoms: C_16  and  N_17 
ROOT
HETATM    1  C   UNL     1      40.766 -12.864  -0.342  1.00  0.00     0.108 C 
HETATM    2  C   UNL     1      41.549 -11.607   0.042  1.00  0.00     0.067 C 
HETATM    3  C   UNL     1      40.904 -10.680   1.059  1.00  0.00     0.020 C 
HETATM    4  N   UNL     1      40.368  -9.911   1.903  1.00  0.00    -0.096 N 
HETATM    5  C   UNL     1      42.681 -11.202  -0.599  1.00  0.00     0.139 C 
HETATM    6  O   UNL     1      43.215 -11.923  -1.685  1.00  0.00    -0.279 OA
HETATM    7  C   UNL     1      42.461 -12.909  -2.155  1.00  0.00     0.175 A 
HETATM    8  C   UNL     1      41.303 -13.415  -1.621  1.00  0.00     0.034 A 
HETATM    9  N   UNL     1      42.702 -13.597  -3.300  1.00  0.00    -0.256 N 
HETATM   10  H   UNL     1      43.468 -13.485  -3.954  1.00  0.00     0.191 HD
HETATM   11  N   UNL     1      41.753 -14.520  -3.559  1.00  0.00    -0.177 NA
HETATM   12  C   UNL     1      40.885 -14.404  -2.541  1.00  0.00     0.062 A 
HETATM   13  C   UNL     1      39.676 -15.262  -2.486  1.00  0.00     0.073 C 
ENDROOT
BRANCH   1  14
HETATM   14  C   UNL     1      40.915 -13.990   0.664  1.00  0.00    -0.003 A 
HETATM   15  C   UNL     1      39.979 -14.239   1.663  1.00  0.00     0.134 A 
HETATM   16  N   UNL     1      40.042 -15.262   2.545  1.00  0.00    -0.235 NA
HETATM   17 CL   UNL     1      38.576 -13.272   1.900  1.00  0.00    -0.062 Cl
HETATM   18  C   UNL     1      41.075 -16.114   2.460  1.00  0.00     0.069 A 
HETATM   19  C   UNL     1      42.095 -15.958   1.507  1.00  0.00    -0.004 A 
HETATM   20  C   UNL     1      41.155 -17.194   3.328  1.00  0.00     0.035 A 
HETATM   21  C   UNL     1      43.152 -16.882   1.442  1.00  0.00     0.050 A 
HETATM   22  C   UNL     1      42.007 -14.876   0.622  1.00  0.00     0.025 A 
HETATM   23  C   UNL     1      43.206 -17.972   2.311  1.00  0.00     0.069 A 
HETATM   24  C   UNL     1      42.204 -18.122   3.263  1.00  0.00     0.039 A 
BRANCH  23  25
HETATM   25  O   UNL     1      44.276 -18.799   2.123  1.00  0.00    -0.351 OA
BRANCH  25  26
HETATM   26  C   UNL     1      44.304 -20.009   2.879  1.00  0.00     0.171 C 
HETATM   27  C   UNL     1      43.886 -21.142   1.960  1.00  0.00     0.034 C 
ENDBRANCH  25  26
ENDBRANCH  23  25
ENDBRANCH   1  14
BRANCH   5  28
HETATM   28  N   UNL     1      43.399 -10.067  -0.309  1.00  0.00    -0.282 NA
HETATM   29  H   UNL     1      44.247 -10.201   0.239  1.00  0.00     0.126 HD
HETATM   30  H   UNL     1      43.536  -9.473  -1.123  1.00  0.00     0.126 HD
ENDBRANCH   5  28
TORSDOF 4
ENDMDL
MODEL 2
REMARK VINA RESULT:      -7.7      4.041      7.810
REMARK  4 active torsions:
REMARK  status: ('A' for Active; 'I' for Inactive)
REMARK    1  A    between atoms: C_2  and  O_3 
REMARK    2  A    between atoms: O_3  and  C_4 
REMARK    3  A    between atoms: C_11  and  C_12 
REMARK    4  A    between atoms: C_16  and  N_17 
ROOT
HETATM    1  C   UNL     1      44.202 -17.414   5.402  1.00  0.00     0.108 C 
HETATM    2  C   UNL     1      44.049 -16.893   6.832  1.00  0.00     0.067 C 
HETATM    3  C   UNL     1      44.445 -15.447   7.082  1.00  0.00     0.020 C 
HETATM    4  N   UNL     1      44.773 -14.247   7.289  1.00  0.00    -0.096 N 
HETATM    5  C   UNL     1      43.755 -17.692   7.895  1.00  0.00     0.139 C 
HETATM    6  O   UNL     1      43.573 -19.081   7.750  1.00  0.00    -0.279 OA
HETATM    7  C   UNL     1      43.879 -19.586   6.561  1.00  0.00     0.175 A 
HETATM    8  C   UNL     1      44.197 -18.907   5.412  1.00  0.00     0.034 A 
HETATM    9  N   UNL     1      43.952 -20.910   6.271  1.00  0.00    -0.256 N 
HETATM   10  H   UNL     1      43.786 -21.700   6.884  1.00  0.00     0.191 HD
HETATM   11  N   UNL     1      44.322 -21.141   4.994  1.00  0.00    -0.177 NA
HETATM   12  C   UNL     1      44.488 -19.917   4.466  1.00  0.00     0.062 A 
HETATM   13  C   UNL     1      44.916 -19.763   3.054  1.00  0.00     0.073 C 
ENDROOT
BRANCH   1  14
HETATM   14  C   UNL     1      43.048 -17.023   4.499  1.00  0.00    -0.003 A 
HETATM   15  C   UNL     1      41.732 -16.951   4.944  1.00  0.00     0.134 A 
HETATM   16  N   UNL     1      40.680 -16.555   4.192  1.00  0.00    -0.235 NA
HETATM   17 CL   UNL     1      41.260 -17.344   6.552  1.00  0.00    -0.062 Cl
HETATM   18  C   UNL     1      40.907 -16.195   2.920  1.00  0.00     0.069 A 
HETATM   19  C   UNL     1      42.190 -16.242   2.347  1.00  0.00    -0.004 A 
HETATM   20  C   UNL     1      39.857 -15.752   2.128  1.00  0.00     0.035 A 
HETATM   21  C   UNL     1      42.387 -15.841   1.015  1.00  0.00     0.050 A 
HETATM   22  C   UNL     1      43.252 -16.675   3.151  1.00  0.00     0.025 A 
HETATM   23  C   UNL     1      41.322 -15.382   0.240  1.00  0.00     0.069 A 
HETATM   24  C   UNL     1      40.050 -15.345   0.800  1.00  0.00     0.039 A 
BRANCH  23  25
HETATM   25  O   UNL     1      41.660 -15.007  -1.028  1.00  0.00    -0.351 OA
BRANCH  25  26
HETATM   26  C   UNL     1      40.591 -14.722  -1.930  1.00  0.00     0.171 C 
HETATM   27  C   UNL     1      40.591 -15.790  -3.007  1.00  0.00     0.034 C 
ENDBRANCH  25  26
ENDBRANCH  23  25
ENDBRANCH   1  14
BRANCH   5  28
HETATM   28  N   UNL     1      43.637 -17.274   9.199  1.00  0.00    -0.282 NA
HETATM   29  H   UNL     1      44.093 -17.855   9.900  1.00  0.00     0.126 HD
HETATM   30  H   UNL     1      43.832 -16.282   9.311  1.00  0.00     0.126 HD
ENDBRANCH   5  28
TORSDOF 4
ENDMDL
MODEL 3
REMARK VINA RESULT:      -7.5      1.873      2.649
REMARK  4 active torsions:
REMARK  status: ('A' for Active; 'I' for Inactive)
REMARK    1  A    between atoms: C_2  and  O_3 
REMARK    2  A    between atoms: O_3  and  C_4 
REMARK    3  A    between atoms: C_11  and  C_12 
REMARK    4  A    between atoms: C_16  and  N_17 
ROOT
HETATM    1  C   UNL     1      40.935 -12.626  -0.386  1.00  0.00     0.108 C 
HETATM    2  C   UNL     1      41.881 -12.322  -1.550  1.00  0.00     0.067 C 
HETATM    3  C   UNL     1      42.942 -11.261  -1.313  1.00  0.00     0.020 C 
HETATM    4  N   UNL     1      43.823 -10.380  -1.116  1.00  0.00    -0.096 N 
HETATM    5  C   UNL     1      41.706 -12.815  -2.807  1.00  0.00     0.139 C 
HETATM    6  O   UNL     1      40.619 -13.650  -3.131  1.00  0.00    -0.279 OA
HETATM    7  C   UNL     1      39.687 -13.780  -2.194  1.00  0.00     0.175 A 
HETATM    8  C   UNL     1      39.725 -13.335  -0.898  1.00  0.00     0.034 A 
HETATM    9  N   UNL     1      38.483 -14.381  -2.371  1.00  0.00    -0.256 N 
HETATM   10  H   UNL     1      38.112 -14.818  -3.207  1.00  0.00     0.191 HD
HETATM   11  N   UNL     1      37.715 -14.338  -1.262  1.00  0.00    -0.177 NA
HETATM   12  C   UNL     1      38.466 -13.686  -0.359  1.00  0.00     0.062 A 
HETATM   13  C   UNL     1      37.941 -13.427   1.004  1.00  0.00     0.073 C 
ENDROOT
BRANCH   1  14
HETATM   14  C   UNL     1      41.537 -13.567   0.641  1.00  0.00    -0.003 A 
HETATM   15  C   UNL     1      41.702 -13.221   1.978  1.00  0.00     0.134 A 
HETATM   16  N   UNL     1      42.181 -14.044   2.938  1.00  0.00    -0.235 NA
HETATM   17 CL   UNL     1      41.289 -11.673   2.607  1.00  0.00    -0.062 Cl
HETATM   18  C   UNL     1      42.522 -15.294   2.592  1.00  0.00     0.069 A 
HETATM   19  C   UNL     1      42.419 -15.759   1.270  1.00  0.00    -0.004 A 
HETATM   20  C   UNL     1      42.986 -16.177   3.557  1.00  0.00     0.035 A 
HETATM   21  C   UNL     1      42.772 -17.081   0.953  1.00  0.00     0.050 A 
HETATM   22  C   UNL     1      41.937 -14.872   0.299  1.00  0.00     0.025 A 
HETATM   23  C   UNL     1      43.221 -17.959   1.940  1.00  0.00     0.069 A 
HETATM   24  C   UNL     1      43.333 -17.499   3.248  1.00  0.00     0.039 A 
BRANCH  23  25
HETATM   25  O   UNL     1      43.509 -19.217   1.496  1.00  0.00    -0.351 OA
BRANCH  25  26
HETATM   26  C   UNL     1      43.846 -20.194   2.480  1.00  0.00     0.171 C 
HETATM   27  C   UNL     1      43.987 -21.533   1.780  1.00  0.00     0.034 C 
ENDBRANCH  25  26
ENDBRANCH  23  25
ENDBRANCH   1  14
BRANCH   5  28
HETATM   28  N   UNL     1      42.511 -12.547  -3.889  1.00  0.00    -0.282 NA
HETATM   29  H   UNL     1      42.153 -11.865  -4.555  1.00  0.00     0.126 HD
HETATM   30  H   UNL     1      43.479 -12.381  -3.624  1.00  0.00     0.126 HD
ENDBRANCH   5  28
TORSDOF 4
ENDMDL
MODEL 4
REMARK VINA RESULT:      -7.2      2.371      3.225
REMARK  4 active torsions:
REMARK  status: ('A' for Active; 'I' for Inactive)
REMARK    1  A    between atoms: C_2  and  O_3 
REMARK    2  A    between atoms: O_3  and  C_4 
REMARK    3  A    between atoms: C_11  and  C_12 
REMARK    4  A    between atoms: C_16  and  N_17 
ROOT
HETATM    1  C   UNL     1      40.979 -12.063  -0.026  1.00  0.00     0.108 C 
HETATM    2  C   UNL     1      42.062 -12.181  -1.100  1.00  0.00     0.067 C 
HETATM    3  C   UNL     1      43.100 -11.072  -1.153  1.00  0.00     0.020 C 
HETATM    4  N   UNL     1      43.961 -10.152  -1.197  1.00  0.00    -0.096 N 
HETATM    5  C   UNL     1      42.035 -13.111  -2.095  1.00  0.00     0.139 C 
HETATM    6  O   UNL     1      40.985 -14.043  -2.210  1.00  0.00    -0.279 OA
HETATM    7  C   UNL     1      39.945 -13.848  -1.407  1.00  0.00     0.175 A 
HETATM    8  C   UNL     1      39.832 -12.952  -0.375  1.00  0.00     0.034 A 
HETATM    9  N   UNL     1      38.764 -14.511  -1.487  1.00  0.00    -0.256 N 
HETATM   10  H   UNL     1      38.492 -15.240  -2.138  1.00  0.00     0.191 HD
HETATM   11  N   UNL     1      37.869 -14.086  -0.572  1.00  0.00    -0.177 NA
HETATM   12  C   UNL     1      38.512 -13.121   0.104  1.00  0.00     0.062 A 
HETATM   13  C   UNL     1      37.829 -12.393   1.202  1.00  0.00     0.073 C 
ENDROOT
BRANCH   1  14
HETATM   14  C   UNL     1      41.441 -12.535   1.340  1.00  0.00    -0.003 A 
HETATM   15  C   UNL     1      41.302 -11.767   2.491  1.00  0.00     0.134 A 
HETATM   16  N   UNL     1      41.647 -12.168   3.736  1.00  0.00    -0.235 NA
HETATM   17 CL   UNL     1      40.639 -10.180   2.488  1.00  0.00    -0.062 Cl
HETATM   18  C   UNL     1      42.157 -13.399   3.890  1.00  0.00     0.069 A 
HETATM   19  C   UNL     1      42.364 -14.264   2.802  1.00  0.00    -0.004 A 
HETATM   20  C   UNL     1      42.492 -13.856   5.157  1.00  0.00     0.035 A 
HETATM   21  C   UNL     1      42.886 -15.552   3.009  1.00  0.00     0.050 A 
HETATM   22  C   UNL     1      42.012 -13.808   1.525  1.00  0.00     0.025 A 
HETATM   23  C   UNL     1      43.200 -16.000   4.292  1.00  0.00     0.069 A 
HETATM   24  C   UNL     1      43.007 -15.142   5.369  1.00  0.00     0.039 A 
BRANCH  23  25
HETATM   25  O   UNL     1      43.680 -17.277   4.349  1.00  0.00    -0.351 OA
BRANCH  25  26
HETATM   26  C   UNL     1      42.965 -18.273   3.620  1.00  0.00     0.171 C 
HETATM   27  C   UNL     1      43.978 -19.142   2.899  1.00  0.00     0.034 C 
ENDBRANCH  25  26
ENDBRANCH  23  25
ENDBRANCH   1  14
BRANCH   5  28
HETATM   28  N   UNL     1      42.968 -13.236  -3.096  1.00  0.00    -0.282 NA
HETATM   29  H   UNL     1      43.499 -14.104  -3.109  1.00  0.00     0.126 HD
HETATM   30  H   UNL     1      42.600 -12.976  -4.008  1.00  0.00     0.126 HD
ENDBRANCH   5  28
TORSDOF 4
ENDMDL
MODEL 5
REMARK VINA RESULT:      -7.2      2.391      3.595
REMARK  4 active torsions:
REMARK  status: ('A' for Active; 'I' for Inactive)
REMARK    1  A    between atoms: C_2  and  O_3 
REMARK    2  A    between atoms: O_3  and  C_4 
REMARK    3  A    between atoms: C_11  and  C_12 
REMARK    4  A    between atoms: C_16  and  N_17 
ROOT
HETATM    1  C   UNL     1      40.355 -13.191  -0.058  1.00  0.00     0.108 C 
HETATM    2  C   UNL     1      39.276 -12.767   0.940  1.00  0.00     0.067 C 
HETATM    3  C   UNL     1      37.930 -13.467   0.835  1.00  0.00     0.020 C 
HETATM    4  N   UNL     1      36.815 -14.048   0.748  1.00  0.00    -0.096 N 
HETATM    5  C   UNL     1      39.403 -11.699   1.775  1.00  0.00     0.139 C 
HETATM    6  O   UNL     1      40.556 -10.890   1.774  1.00  0.00    -0.279 OA
HETATM    7  C   UNL     1      41.426 -11.121   0.797  1.00  0.00     0.175 A 
HETATM    8  C   UNL     1      41.420 -12.147  -0.113  1.00  0.00     0.034 A 
HETATM    9  N   UNL     1      42.498 -10.341   0.508  1.00  0.00    -0.256 N 
HETATM   10  H   UNL     1      42.806  -9.494   0.972  1.00  0.00     0.191 HD
HETATM   11  N   UNL     1      43.191 -10.788  -0.560  1.00  0.00    -0.177 NA
HETATM   12  C   UNL     1      42.528 -11.888  -0.954  1.00  0.00     0.062 A 
HETATM   13  C   UNL     1      42.992 -12.660  -2.132  1.00  0.00     0.073 C 
ENDROOT
BRANCH   1  14
HETATM   14  C   UNL     1      41.073 -14.465   0.347  1.00  0.00    -0.003 A 
HETATM   15  C   UNL     1      41.328 -15.503  -0.543  1.00  0.00     0.134 A 
HETATM   16  N   UNL     1      42.012 -16.630  -0.243  1.00  0.00    -0.235 NA
HETATM   17 CL   UNL     1      40.815 -15.482  -2.185  1.00  0.00    -0.062 Cl
HETATM   18  C   UNL     1      42.493 -16.770   1.002  1.00  0.00     0.069 A 
HETATM   19  C   UNL     1      42.287 -15.800   1.996  1.00  0.00    -0.004 A 
HETATM   20  C   UNL     1      43.228 -17.899   1.337  1.00  0.00     0.035 A 
HETATM   21  C   UNL     1      42.822 -15.978   3.283  1.00  0.00     0.050 A 
HETATM   22  C   UNL     1      41.558 -14.654   1.654  1.00  0.00     0.025 A 
HETATM   23  C   UNL     1      43.573 -17.111   3.597  1.00  0.00     0.069 A 
HETATM   24  C   UNL     1      43.769 -18.079   2.617  1.00  0.00     0.039 A 
BRANCH  23  25
HETATM   25  O   UNL     1      44.048 -17.145   4.876  1.00  0.00    -0.351 OA
BRANCH  25  26
HETATM   26  C   UNL     1      44.447 -18.415   5.389  1.00  0.00     0.171 C 
HETATM   27  C   UNL     1      45.179 -18.181   6.698  1.00  0.00     0.034 C 
ENDBRANCH  25  26
ENDBRANCH  23  25
ENDBRANCH   1  14
BRANCH   5  28
HETATM   28  N   UNL     1      38.450 -11.264   2.665  1.00  0.00    -0.282 NA
HETATM   29  H   UNL     1      37.782 -10.582   2.310  1.00  0.00     0.126 HD
HETATM   30  H   UNL     1      38.012 -12.028   3.173  1.00  0.00     0.126 HD
ENDBRANCH   5  28
TORSDOF 4
ENDMDL
MODEL 6
REMARK VINA RESULT:      -6.6      2.105      2.622
REMARK  4 active torsions:
REMARK  status: ('A' for Active; 'I' for Inactive)
REMARK    1  A    between atoms: C_2  and  O_3 
REMARK    2  A    between atoms: O_3  and  C_4 
REMARK    3  A    between atoms: C_11  and  C_12 
REMARK    4  A    between atoms: C_16  and  N_17 
ROOT
HETATM    1  C   UNL     1      39.984 -11.753   1.384  1.00  0.00     0.108 C 
HETATM    2  C   UNL     1      41.160 -10.790   1.211  1.00  0.00     0.067 C 
HETATM    3  C   UNL     1      41.143  -9.527   2.056  1.00  0.00     0.020 C 
HETATM    4  N   UNL     1      41.129  -8.479   2.757  1.00  0.00    -0.096 N 
HETATM    5  C   UNL     1      42.100 -10.921   0.235  1.00  0.00     0.139 C 
HETATM    6  O   UNL     1      42.051 -11.969  -0.705  1.00  0.00    -0.279 OA
HETATM    7  C   UNL     1      40.948 -12.708  -0.694  1.00  0.00     0.175 A 
HETATM    8  C   UNL     1      39.923 -12.681   0.217  1.00  0.00     0.034 A 
HETATM    9  N   UNL     1      40.623 -13.637  -1.628  1.00  0.00    -0.256 N 
HETATM   10  H   UNL     1      41.147 -13.917  -2.450  1.00  0.00     0.191 HD
HETATM   11  N   UNL     1      39.426 -14.213  -1.392  1.00  0.00    -0.177 NA
HETATM   12  C   UNL     1      38.985 -13.621  -0.270  1.00  0.00     0.062 A 
HETATM   13  C   UNL     1      37.667 -13.990   0.303  1.00  0.00     0.073 C 
ENDROOT
BRANCH   1  14
HETATM   14  C   UNL     1      40.125 -12.654   2.596  1.00  0.00    -0.003 A 
HETATM   15  C   UNL     1      39.475 -12.408   3.801  1.00  0.00     0.134 A 
HETATM   16  N   UNL     1      39.526 -13.211   4.888  1.00  0.00    -0.235 NA
HETATM   17 CL   UNL     1      38.479 -11.030   4.068  1.00  0.00    -0.062 Cl
HETATM   18  C   UNL     1      40.251 -14.338   4.813  1.00  0.00     0.069 A 
HETATM   19  C   UNL     1      40.969 -14.689   3.657  1.00  0.00    -0.004 A 
HETATM   20  C   UNL     1      40.300 -15.202   5.897  1.00  0.00     0.035 A 
HETATM   21  C   UNL     1      41.702 -15.887   3.614  1.00  0.00     0.050 A 
HETATM   22  C   UNL     1      40.907 -13.824   2.557  1.00  0.00     0.025 A 
HETATM   23  C   UNL     1      41.726 -16.752   4.709  1.00  0.00     0.069 A 
HETATM   24  C   UNL     1      41.025 -16.401   5.858  1.00  0.00     0.039 A 
BRANCH  23  25
HETATM   25  O   UNL     1      42.461 -17.887   4.522  1.00  0.00    -0.351 OA
BRANCH  25  26
HETATM   26  C   UNL     1      42.562 -18.386   3.189  1.00  0.00     0.171 C 
HETATM   27  C   UNL     1      44.008 -18.778   2.946  1.00  0.00     0.034 C 
ENDBRANCH  25  26
ENDBRANCH  23  25
ENDBRANCH   1  14
BRANCH   5  28
HETATM   28  N   UNL     1      43.155 -10.066   0.023  1.00  0.00    -0.282 NA
HETATM   29  H   UNL     1      42.935  -9.189  -0.445  1.00  0.00     0.126 HD
HETATM   30  H   UNL     1      43.733  -9.945   0.851  1.00  0.00     0.126 HD
ENDBRANCH   5  28
TORSDOF 4
ENDMDL
MODEL 7
REMARK VINA RESULT:      -6.5      2.982      7.163
REMARK  4 active torsions:
REMARK  status: ('A' for Active; 'I' for Inactive)
REMARK    1  A    between atoms: C_2  and  O_3 
REMARK    2  A    between atoms: O_3  and  C_4 
REMARK    3  A    between atoms: C_11  and  C_12 
REMARK    4  A    between atoms: C_16  and  N_17 
ROOT
HETATM    1  C   UNL     1      41.363 -14.069   1.886  1.00  0.00     0.108 C 
HETATM    2  C   UNL     1      42.611 -14.310   2.738  1.00  0.00     0.067 C 
HETATM    3  C   UNL     1      43.384 -15.592   2.476  1.00  0.00     0.020 C 
HETATM    4  N   UNL     1      44.025 -16.656   2.259  1.00  0.00    -0.096 N 
HETATM    5  C   UNL     1      42.948 -13.541   3.810  1.00  0.00     0.139 C 
HETATM    6  O   UNL     1      42.154 -12.452   4.220  1.00  0.00    -0.279 OA
HETATM    7  C   UNL     1      40.978 -12.332   3.617  1.00  0.00     0.175 A 
HETATM    8  C   UNL     1      40.506 -13.036   2.539  1.00  0.00     0.034 A 
HETATM    9  N   UNL     1      39.994 -11.474   3.990  1.00  0.00    -0.256 N 
HETATM   10  H   UNL     1      39.996 -10.805   4.753  1.00  0.00     0.191 HD
HETATM   11  N   UNL     1      38.889 -11.589   3.226  1.00  0.00    -0.177 NA
HETATM   12  C   UNL     1      39.190 -12.555   2.343  1.00  0.00     0.062 A 
HETATM   13  C   UNL     1      38.195 -12.979   1.327  1.00  0.00     0.073 C 
ENDROOT
BRANCH   1  14
HETATM   14  C   UNL     1      41.680 -13.506   0.513  1.00  0.00    -0.003 A 
HETATM   15  C   UNL     1      41.605 -14.266  -0.650  1.00  0.00     0.134 A 
HETATM   16  N   UNL     1      41.823 -13.795  -1.898  1.00  0.00    -0.235 NA
HETATM   17 CL   UNL     1      41.196 -15.938  -0.657  1.00  0.00    -0.062 Cl
HETATM   18  C   UNL     1      42.129 -12.497  -2.044  1.00  0.00     0.069 A 
HETATM   19  C   UNL     1      42.252 -11.630  -0.945  1.00  0.00    -0.004 A 
HETATM   20  C   UNL     1      42.327 -11.971  -3.313  1.00  0.00     0.035 A 
HETATM   21  C   UNL     1      42.559 -10.273  -1.143  1.00  0.00     0.050 A 
HETATM   22  C   UNL     1      42.038 -12.157   0.334  1.00  0.00     0.025 A 
HETATM   23  C   UNL     1      42.737  -9.758  -2.428  1.00  0.00     0.069 A 
HETATM   24  C   UNL     1      42.627 -10.617  -3.516  1.00  0.00     0.039 A 
BRANCH  23  25
HETATM   25  O   UNL     1      43.010  -8.422  -2.474  1.00  0.00    -0.351 OA
BRANCH  25  26
HETATM   26  C   UNL     1      43.072  -7.727  -1.229  1.00  0.00     0.171 C 
HETATM   27  C   UNL     1      44.505  -7.276  -1.016  1.00  0.00     0.034 C 
ENDBRANCH  25  26
ENDBRANCH  23  25
ENDBRANCH   1  14
BRANCH   5  28
HETATM   28  N   UNL     1      44.041 -13.737   4.621  1.00  0.00    -0.282 NA
HETATM   29  H   UNL     1      44.152 -13.080   5.390  1.00  0.00     0.126 HD
HETATM   30  H   UNL     1      44.149 -14.708   4.903  1.00  0.00     0.126 HD
ENDBRANCH   5  28
TORSDOF 4
ENDMDL
MODEL 8
REMARK VINA RESULT:      -6.3      3.257      3.937
REMARK  4 active torsions:
REMARK  status: ('A' for Active; 'I' for Inactive)
REMARK    1  A    between atoms: C_2  and  O_3 
REMARK    2  A    between atoms: O_3  and  C_4 
REMARK    3  A    between atoms: C_11  and  C_12 
REMARK    4  A    between atoms: C_16  and  N_17 
ROOT
HETATM    1  C   UNL     1      40.130 -12.359   1.242  1.00  0.00     0.108 C 
HETATM    2  C   UNL     1      39.997 -10.900   1.683  1.00  0.00     0.067 C 
HETATM    3  C   UNL     1      38.734 -10.525   2.441  1.00  0.00     0.020 C 
HETATM    4  N   UNL     1      37.687 -10.214   3.071  1.00  0.00    -0.096 N 
HETATM    5  C   UNL     1      40.847  -9.914   1.282  1.00  0.00     0.139 C 
HETATM    6  O   UNL     1      41.925 -10.172   0.413  1.00  0.00    -0.279 OA
HETATM    7  C   UNL     1      41.956 -11.384  -0.129  1.00  0.00     0.175 A 
HETATM    8  C   UNL     1      41.165 -12.464   0.171  1.00  0.00     0.034 A 
HETATM    9  N   UNL     1      42.793 -11.771  -1.124  1.00  0.00    -0.256 N 
HETATM   10  H   UNL     1      43.509 -11.228  -1.595  1.00  0.00     0.191 HD
HETATM   11  N   UNL     1      42.583 -13.046  -1.511  1.00  0.00    -0.177 NA
HETATM   12  C   UNL     1      41.577 -13.473  -0.731  1.00  0.00     0.062 A 
HETATM   13  C   UNL     1      41.047 -14.851  -0.878  1.00  0.00     0.073 C 
ENDROOT
BRANCH   1  14
HETATM   14  C   UNL     1      40.617 -13.274   2.349  1.00  0.00    -0.003 A 
HETATM   15  C   UNL     1      40.031 -14.506   2.623  1.00  0.00     0.134 A 
HETATM   16  N   UNL     1      40.465 -15.378   3.561  1.00  0.00    -0.235 NA
HETATM   17 CL   UNL     1      38.662 -15.107   1.772  1.00  0.00    -0.062 Cl
HETATM   18  C   UNL     1      41.544 -15.048   4.287  1.00  0.00     0.069 A 
HETATM   19  C   UNL     1      42.212 -13.824   4.118  1.00  0.00    -0.004 A 
HETATM   20  C   UNL     1      42.036 -15.933   5.236  1.00  0.00     0.035 A 
HETATM   21  C   UNL     1      43.349 -13.524   4.888  1.00  0.00     0.050 A 
HETATM   22  C   UNL     1      41.724 -12.938   3.150  1.00  0.00     0.025 A 
HETATM   23  C   UNL     1      43.839 -14.434   5.826  1.00  0.00     0.069 A 
HETATM   24  C   UNL     1      43.173 -15.641   6.003  1.00  0.00     0.039 A 
BRANCH  23  25
HETATM   25  O   UNL     1      44.959 -14.021   6.488  1.00  0.00    -0.351 OA
BRANCH  25  26
HETATM   26  C   UNL     1      44.783 -13.504   7.806  1.00  0.00     0.171 C 
HETATM   27  C   UNL     1      45.970 -12.613   8.121  1.00  0.00     0.034 C 
ENDBRANCH  25  26
ENDBRANCH  23  25
ENDBRANCH   1  14
BRANCH   5  28
HETATM   28  N   UNL     1      40.749  -8.587   1.628  1.00  0.00    -0.282 NA
HETATM   29  H   UNL     1      39.839  -8.154   1.490  1.00  0.00     0.126 HD
HETATM   30  H   UNL     1      41.154  -8.391   2.541  1.00  0.00     0.126 HD
ENDBRANCH   5  28
TORSDOF 4
ENDMDL
MODEL 9
REMARK VINA RESULT:      -6.2      3.199      4.974
REMARK  4 active torsions:
REMARK  status: ('A' for Active; 'I' for Inactive)
REMARK    1  A    between atoms: C_2  and  O_3 
REMARK    2  A    between atoms: O_3  and  C_4 
REMARK    3  A    between atoms: C_11  and  C_12 
REMARK    4  A    between atoms: C_16  and  N_17 
ROOT
HETATM    1  C   UNL     1      39.812 -12.938  -2.157  1.00  0.00     0.108 C 
HETATM    2  C   UNL     1      38.304 -12.796  -2.372  1.00  0.00     0.067 C 
HETATM    3  C   UNL     1      37.634 -13.843  -3.247  1.00  0.00     0.020 C 
HETATM    4  N   UNL     1      37.078 -14.711  -3.973  1.00  0.00    -0.096 N 
HETATM    5  C   UNL     1      37.588 -11.708  -1.975  1.00  0.00     0.139 C 
HETATM    6  O   UNL     1      38.198 -10.614  -1.332  1.00  0.00    -0.279 OA
HETATM    7  C   UNL     1      39.526 -10.627  -1.297  1.00  0.00     0.175 A 
HETATM    8  C   UNL     1      40.370 -11.643  -1.666  1.00  0.00     0.034 A 
HETATM    9  N   UNL     1      40.306  -9.591  -0.895  1.00  0.00    -0.256 N 
HETATM   10  H   UNL     1      40.019  -8.678  -0.562  1.00  0.00     0.191 HD
HETATM   11  N   UNL     1      41.623  -9.864  -0.998  1.00  0.00    -0.177 NA
HETATM   12  C   UNL     1      41.669 -11.116  -1.483  1.00  0.00     0.062 A 
HETATM   13  C   UNL     1      42.975 -11.768  -1.749  1.00  0.00     0.073 C 
ENDROOT
BRANCH   1  14
HETATM   14  C   UNL     1      40.168 -13.951  -1.085  1.00  0.00    -0.003 A 
HETATM   15  C   UNL     1      40.857 -15.129  -1.358  1.00  0.00     0.134 A 
HETATM   16  N   UNL     1      41.244 -16.033  -0.429  1.00  0.00    -0.235 NA
HETATM   17 CL   UNL     1      41.335 -15.593  -2.944  1.00  0.00    -0.062 Cl
HETATM   18  C   UNL     1      40.956 -15.786   0.858  1.00  0.00     0.069 A 
HETATM   19  C   UNL     1      40.249 -14.640   1.259  1.00  0.00    -0.004 A 
HETATM   20  C   UNL     1      41.367 -16.675   1.841  1.00  0.00     0.035 A 
HETATM   21  C   UNL     1      39.982 -14.412   2.620  1.00  0.00     0.050 A 
HETATM   22  C   UNL     1      39.848 -13.735   0.268  1.00  0.00     0.025 A 
HETATM   23  C   UNL     1      40.418 -15.308   3.596  1.00  0.00     0.069 A 
HETATM   24  C   UNL     1      41.108 -16.449   3.200  1.00  0.00     0.039 A 
BRANCH  23  25
HETATM   25  O   UNL     1      40.107 -14.952   4.877  1.00  0.00    -0.351 OA
BRANCH  25  26
HETATM   26  C   UNL     1      40.735 -13.782   5.398  1.00  0.00     0.171 C 
HETATM   27  C   UNL     1      39.656 -12.903   6.002  1.00  0.00     0.034 C 
ENDBRANCH  25  26
ENDBRANCH  23  25
ENDBRANCH   1  14
BRANCH   5  28
HETATM   28  N   UNL     1      36.240 -11.524  -2.172  1.00  0.00    -0.282 NA
HETATM   29  H   UNL     1      35.624 -12.181  -1.700  1.00  0.00     0.126 HD
HETATM   30  H   UNL     1      35.957 -10.554  -2.057  1.00  0.00     0.126 HD
ENDBRANCH   5  28
TORSDOF 4
ENDMDL
MODEL 10
REMARK VINA RESULT:      -6.2      3.018      6.518
REMARK  4 active torsions:
REMARK  status: ('A' for Active; 'I' for Inactive)
REMARK    1  A    between atoms: C_2  and  O_3 
REMARK    2  A    between atoms: O_3  and  C_4 
REMARK    3  A    between atoms: C_11  and  C_12 
REMARK    4  A    between atoms: C_16  and  N_17 
ROOT
HETATM    1  C   UNL     1      40.864 -14.299   3.343  1.00  0.00     0.108 C 
HETATM    2  C   UNL     1      42.062 -14.772   4.170  1.00  0.00     0.067 C 
HETATM    3  C   UNL     1      42.113 -16.250   4.519  1.00  0.00     0.020 C 
HETATM    4  N   UNL     1      42.156 -17.477   4.808  1.00  0.00    -0.096 N 
HETATM    5  C   UNL     1      42.961 -13.924   4.742  1.00  0.00     0.139 C 
HETATM    6  O   UNL     1      42.846 -12.526   4.616  1.00  0.00    -0.279 OA
HETATM    7  C   UNL     1      41.723 -12.083   4.063  1.00  0.00     0.175 A 
HETATM    8  C   UNL     1      40.733 -12.816   3.459  1.00  0.00     0.034 A 
HETATM    9  N   UNL     1      41.336 -10.783   4.019  1.00  0.00    -0.256 N 
HETATM   10  H   UNL     1      41.821  -9.968   4.376  1.00  0.00     0.191 HD
HETATM   11  N   UNL     1      40.132 -10.621   3.433  1.00  0.00    -0.177 NA
HETATM   12  C   UNL     1      39.751 -11.865   3.099  1.00  0.00     0.062 A 
HETATM   13  C   UNL     1      38.444 -12.095   2.434  1.00  0.00     0.073 C 
ENDROOT
BRANCH   1  14
HETATM   14  C   UNL     1      41.024 -14.564   1.858  1.00  0.00    -0.003 A 
HETATM   15  C   UNL     1      40.579 -15.733   1.248  1.00  0.00     0.134 A 
HETATM   16  N   UNL     1      40.649 -15.989  -0.078  1.00  0.00    -0.235 NA
HETATM   17 CL   UNL     1      39.846 -17.026   2.114  1.00  0.00    -0.062 Cl
HETATM   18  C   UNL     1      41.179 -15.053  -0.880  1.00  0.00     0.069 A 
HETATM   19  C   UNL     1      41.680 -13.839  -0.383  1.00  0.00    -0.004 A 
HETATM   20  C   UNL     1      41.237 -15.268  -2.250  1.00  0.00     0.035 A 
HETATM   21  C   UNL     1      42.212 -12.878  -1.260  1.00  0.00     0.050 A 
HETATM   22  C   UNL     1      41.608 -13.615   0.998  1.00  0.00     0.025 A 
HETATM   23  C   UNL     1      42.246 -13.105  -2.636  1.00  0.00     0.069 A 
HETATM   24  C   UNL     1      41.761 -14.311  -3.130  1.00  0.00     0.039 A 
BRANCH  23  25
HETATM   25  O   UNL     1      42.771 -12.081  -3.369  1.00  0.00    -0.351 OA
BRANCH  25  26
HETATM   26  C   UNL     1      41.881 -11.380  -4.238  1.00  0.00     0.171 C 
HETATM   27  C   UNL     1      42.470 -10.006  -4.499  1.00  0.00     0.034 C 
ENDBRANCH  25  26
ENDBRANCH  23  25
ENDBRANCH   1  14
BRANCH   5  28
HETATM   28  N   UNL     1      44.032 -14.302   5.516  1.00  0.00    -0.282 NA
HETATM   29  H   UNL     1      43.885 -14.289   6.523  1.00  0.00     0.126 HD
HETATM   30  H   UNL     1      44.471 -15.158   5.185  1.00  0.00     0.126 HD
ENDBRANCH   5  28
TORSDOF 4
ENDMDL
