MODEL 1
REMARK VINA RESULT:      -9.2      0.000      0.000
REMARK  5 active torsions:
REMARK  status: ('A' for Active; 'I' for Inactive)
REMARK    1  A    between atoms: C_2  and  N_3 
REMARK       I    between atoms: N_3  and  C_4 
REMARK       I    between atoms: C_4  and  N_5 
REMARK    2  A    between atoms: N_5  and  C_6 
REMARK    3  A    between atoms: C_9  and  C_10 
REMARK    4  A    between atoms: C_10  and  C_11 
REMARK       I    between atoms: C_11  and  N_12 
REMARK    5  A    between atoms: N_12  and  C_13 
ROOT
HETATM    1  C   UNL     1      42.426 -13.842   5.425  1.00  0.00     0.174 A 
HETATM    2  S   UNL     1      40.788 -13.968   5.875  1.00  0.00    -0.062 SA
HETATM    3  C   UNL     1      40.444 -14.671   4.346  1.00  0.00     0.081 A 
HETATM    4  C   UNL     1      41.607 -14.783   3.604  1.00  0.00     0.052 A 
HETATM    5  N   UNL     1      42.743 -14.303   4.243  1.00  0.00    -0.228 NA
ENDROOT
BRANCH   1   6
HETATM    6  N   UNL     1      43.240 -13.295   6.375  1.00  0.00    -0.287 N 
HETATM    7  C   UNL     1      44.203 -14.026   7.000  1.00  0.00     0.326 C 
HETATM    8  N   UNL     1      44.890 -13.401   8.006  1.00  0.00    -0.309 N 
HETATM    9  O   UNL     1      44.565 -15.157   6.680  1.00  0.00    -0.247 OA
HETATM   10  H   UNL     1      45.747 -13.897   8.225  1.00  0.00     0.170 HD
HETATM   11  H   UNL     1      43.287 -12.290   6.422  1.00  0.00     0.172 HD
BRANCH   8  12
HETATM   12  C   UNL     1      44.557 -12.324   8.844  1.00  0.00     0.036 A 
HETATM   13  C   UNL     1      43.390 -11.562   8.713  1.00  0.00     0.032 A 
HETATM   14  C   UNL     1      43.116 -10.533   9.621  1.00  0.00     0.044 A 
HETATM   15  C   UNL     1      44.000 -10.277  10.662  1.00  0.00     0.116 A 
HETATM   16  C   UNL     1      45.151 -11.036  10.820  1.00  0.00     0.044 A 
HETATM   17  F   UNL     1      43.729  -9.296  11.532  1.00  0.00    -0.206 F 
HETATM   18  C   UNL     1      45.424 -12.066   9.917  1.00  0.00     0.032 A 
ENDBRANCH   8  12
ENDBRANCH   1   6
BRANCH   4  19
HETATM   19  C   UNL     1      41.758 -15.399   2.252  1.00  0.00     0.163 C 
BRANCH  19  20
HETATM   20  C   UNL     1      42.179 -16.862   2.267  1.00  0.00     0.227 C 
HETATM   21  N   UNL     1      43.291 -17.137   3.041  1.00  0.00    -0.327 N 
HETATM   22  H   UNL     1      43.830 -16.322   3.352  1.00  0.00     0.169 HD
HETATM   23  O   UNL     1      41.492 -17.699   1.681  1.00  0.00    -0.273 OA
BRANCH  21  24
HETATM   24  C   UNL     1      43.817 -18.400   3.380  1.00  0.00     0.036 A 
HETATM   25  C   UNL     1      43.941 -19.463   2.481  1.00  0.00     0.056 A 
HETATM   26  C   UNL     1      44.446 -20.693   2.914  1.00  0.00     0.074 A 
HETATM   27 CL   UNL     1      44.572 -21.999   1.797  1.00  0.00    -0.081 Cl
HETATM   28  C   UNL     1      44.834 -20.862   4.240  1.00  0.00     0.138 A 
HETATM   29  F   UNL     1      45.320 -22.036   4.672  1.00  0.00    -0.204 F 
HETATM   30  C   UNL     1      44.718 -19.815   5.144  1.00  0.00     0.046 A 
HETATM   31  C   UNL     1      44.206 -18.589   4.715  1.00  0.00     0.032 A 
ENDBRANCH  21  24
ENDBRANCH  19  20
ENDBRANCH   4  19
TORSDOF 5
ENDMDL
MODEL 2
REMARK VINA RESULT:      -9.1      5.271      8.639
REMARK  5 active torsions:
REMARK  status: ('A' for Active; 'I' for Inactive)
REMARK    1  A    between atoms: C_2  and  N_3 
REMARK       I    between atoms: N_3  and  C_4 
REMARK       I    between atoms: C_4  and  N_5 
REMARK    2  A    between atoms: N_5  and  C_6 
REMARK    3  A    between atoms: C_9  and  C_10 
REMARK    4  A    between atoms: C_10  and  C_11 
REMARK       I    between atoms: C_11  and  N_12 
REMARK    5  A    between atoms: N_12  and  C_13 
ROOT
HETATM    1  C   UNL     1      40.305 -14.756   1.536  1.00  0.00     0.174 A 
HETATM    2  S   UNL     1      39.429 -13.488   2.262  1.00  0.00    -0.062 SA
HETATM    3  C   UNL     1      39.966 -14.026   3.802  1.00  0.00     0.081 A 
HETATM    4  C   UNL     1      40.796 -15.125   3.656  1.00  0.00     0.052 A 
HETATM    5  N   UNL     1      40.984 -15.531   2.341  1.00  0.00    -0.228 NA
ENDROOT
BRANCH   1   6
HETATM    6  N   UNL     1      40.223 -14.803   0.174  1.00  0.00    -0.287 N 
HETATM    7  C   UNL     1      41.099 -14.128  -0.620  1.00  0.00     0.326 C 
HETATM    8  N   UNL     1      40.858 -14.166  -1.967  1.00  0.00    -0.309 N 
HETATM    9  O   UNL     1      42.127 -13.570  -0.240  1.00  0.00    -0.247 OA
HETATM   10  H   UNL     1      41.679 -13.886  -2.492  1.00  0.00     0.170 HD
HETATM   11  H   UNL     1      39.670 -15.540  -0.232  1.00  0.00     0.172 HD
BRANCH   8  12
HETATM   12  C   UNL     1      39.683 -14.377  -2.707  1.00  0.00     0.036 A 
HETATM   13  C   UNL     1      39.455 -15.500  -3.510  1.00  0.00     0.032 A 
HETATM   14  C   UNL     1      38.235 -15.652  -4.178  1.00  0.00     0.044 A 
HETATM   15  C   UNL     1      37.244 -14.689  -4.033  1.00  0.00     0.116 A 
HETATM   16  C   UNL     1      37.444 -13.579  -3.225  1.00  0.00     0.044 A 
HETATM   17  F   UNL     1      36.076 -14.842  -4.669  1.00  0.00    -0.206 F 
HETATM   18  C   UNL     1      38.660 -13.428  -2.553  1.00  0.00     0.032 A 
ENDBRANCH   8  12
ENDBRANCH   1   6
BRANCH   4  19
HETATM   19  C   UNL     1      41.525 -15.853   4.738  1.00  0.00     0.163 C 
BRANCH  19  20
HETATM   20  C   UNL     1      41.718 -17.340   4.480  1.00  0.00     0.227 C 
HETATM   21  N   UNL     1      42.811 -17.655   3.693  1.00  0.00    -0.327 N 
HETATM   22  H   UNL     1      43.250 -16.867   3.205  1.00  0.00     0.169 HD
HETATM   23  O   UNL     1      40.973 -18.154   5.024  1.00  0.00    -0.273 OA
BRANCH  21  24
HETATM   24  C   UNL     1      43.339 -18.933   3.417  1.00  0.00     0.036 A 
HETATM   25  C   UNL     1      44.016 -19.718   4.355  1.00  0.00     0.056 A 
HETATM   26  C   UNL     1      44.534 -20.962   3.984  1.00  0.00     0.074 A 
HETATM   27 CL   UNL     1      45.385 -21.908   5.148  1.00  0.00    -0.081 Cl
HETATM   28  C   UNL     1      44.373 -21.428   2.683  1.00  0.00     0.138 A 
HETATM   29  F   UNL     1      44.865 -22.619   2.310  1.00  0.00    -0.204 F 
HETATM   30  C   UNL     1      43.702 -20.659   1.741  1.00  0.00     0.046 A 
HETATM   31  C   UNL     1      43.192 -19.412   2.108  1.00  0.00     0.032 A 
ENDBRANCH  21  24
ENDBRANCH  19  20
ENDBRANCH   4  19
TORSDOF 5
ENDMDL
MODEL 3
REMARK VINA RESULT:      -9.0      3.881     10.213
REMARK  5 active torsions:
REMARK  status: ('A' for Active; 'I' for Inactive)
REMARK    1  A    between atoms: C_2  and  N_3 
REMARK       I    between atoms: N_3  and  C_4 
REMARK       I    between atoms: C_4  and  N_5 
REMARK    2  A    between atoms: N_5  and  C_6 
REMARK    3  A    between atoms: C_9  and  C_10 
REMARK    4  A    between atoms: C_10  and  C_11 
REMARK       I    between atoms: C_11  and  N_12 
REMARK    5  A    between atoms: N_12  and  C_13 
ROOT
HETATM    1  C   UNL     1      43.458 -14.926   6.052  1.00  0.00     0.174 A 
HETATM    2  S   UNL     1      42.541 -13.594   5.513  1.00  0.00    -0.062 SA
HETATM    3  C   UNL     1      43.349 -12.602   6.659  1.00  0.00     0.081 A 
HETATM    4  C   UNL     1      44.280 -13.349   7.360  1.00  0.00     0.052 A 
HETATM    5  N   UNL     1      44.333 -14.688   6.994  1.00  0.00    -0.228 NA
ENDROOT
BRANCH   1   6
HETATM    6  N   UNL     1      43.194 -16.100   5.409  1.00  0.00    -0.287 N 
HETATM    7  C   UNL     1      42.228 -16.954   5.845  1.00  0.00     0.326 C 
HETATM    8  N   UNL     1      42.121 -18.148   5.183  1.00  0.00    -0.309 N 
HETATM    9  O   UNL     1      41.393 -16.708   6.714  1.00  0.00    -0.247 OA
HETATM   10  H   UNL     1      41.231 -18.594   5.375  1.00  0.00     0.170 HD
HETATM   11  H   UNL     1      43.546 -16.204   4.471  1.00  0.00     0.172 HD
BRANCH   8  12
HETATM   12  C   UNL     1      43.046 -18.893   4.432  1.00  0.00     0.036 A 
HETATM   13  C   UNL     1      44.071 -19.662   4.995  1.00  0.00     0.032 A 
HETATM   14  C   UNL     1      44.922 -20.410   4.173  1.00  0.00     0.044 A 
HETATM   15  C   UNL     1      44.738 -20.399   2.796  1.00  0.00     0.116 A 
HETATM   16  C   UNL     1      43.714 -19.659   2.222  1.00  0.00     0.044 A 
HETATM   17  F   UNL     1      45.550 -21.122   2.015  1.00  0.00    -0.206 F 
HETATM   18  C   UNL     1      42.861 -18.915   3.042  1.00  0.00     0.032 A 
ENDBRANCH   8  12
ENDBRANCH   1   6
BRANCH   4  19
HETATM   19  C   UNL     1      45.237 -12.855   8.395  1.00  0.00     0.163 C 
BRANCH  19  20
HETATM   20  C   UNL     1      44.719 -11.693   9.231  1.00  0.00     0.227 C 
HETATM   21  N   UNL     1      43.649 -12.000  10.051  1.00  0.00    -0.327 N 
HETATM   22  H   UNL     1      43.190 -12.898   9.867  1.00  0.00     0.169 HD
HETATM   23  O   UNL     1      45.303 -10.611   9.196  1.00  0.00    -0.273 OA
BRANCH  21  24
HETATM   24  C   UNL     1      43.063 -11.193  11.047  1.00  0.00     0.036 A 
HETATM   25  C   UNL     1      41.691 -10.942  11.144  1.00  0.00     0.056 A 
HETATM   26  C   UNL     1      41.201 -10.102  12.148  1.00  0.00     0.074 A 
HETATM   27 CL   UNL     1      39.509  -9.787  12.240  1.00  0.00    -0.081 Cl
HETATM   28  C   UNL     1      42.075  -9.517  13.060  1.00  0.00     0.138 A 
HETATM   29  F   UNL     1      41.621  -8.708  14.029  1.00  0.00    -0.204 F 
HETATM   30  C   UNL     1      43.440  -9.757  12.976  1.00  0.00     0.046 A 
HETATM   31  C   UNL     1      43.932 -10.589  11.968  1.00  0.00     0.032 A 
ENDBRANCH  21  24
ENDBRANCH  19  20
ENDBRANCH   4  19
TORSDOF 5
ENDMDL
MODEL 4
REMARK VINA RESULT:      -8.9      5.373      8.465
REMARK  5 active torsions:
REMARK  status: ('A' for Active; 'I' for Inactive)
REMARK    1  A    between atoms: C_2  and  N_3 
REMARK       I    between atoms: N_3  and  C_4 
REMARK       I    between atoms: C_4  and  N_5 
REMARK    2  A    between atoms: N_5  and  C_6 
REMARK    3  A    between atoms: C_9  and  C_10 
REMARK    4  A    between atoms: C_10  and  C_11 
REMARK       I    between atoms: C_11  and  N_12 
REMARK    5  A    between atoms: N_12  and  C_13 
ROOT
HETATM    1  C   UNL     1      42.173 -16.643   5.050  1.00  0.00     0.174 A 
HETATM    2  S   UNL     1      40.962 -16.601   6.247  1.00  0.00    -0.062 SA
HETATM    3  C   UNL     1      40.626 -14.971   5.820  1.00  0.00     0.081 A 
HETATM    4  C   UNL     1      41.446 -14.577   4.777  1.00  0.00     0.052 A 
HETATM    5  N   UNL     1      42.330 -15.555   4.341  1.00  0.00    -0.228 NA
ENDROOT
BRANCH   1   6
HETATM    6  N   UNL     1      42.831 -17.834   4.942  1.00  0.00    -0.287 N 
HETATM    7  C   UNL     1      44.038 -18.042   5.536  1.00  0.00     0.326 C 
HETATM    8  N   UNL     1      44.651 -19.238   5.275  1.00  0.00    -0.309 N 
HETATM    9  O   UNL     1      44.575 -17.291   6.349  1.00  0.00    -0.247 OA
HETATM   10  H   UNL     1      45.384 -19.427   5.950  1.00  0.00     0.170 HD
HETATM   11  H   UNL     1      42.298 -18.632   4.635  1.00  0.00     0.172 HD
BRANCH   8  12
HETATM   12  C   UNL     1      44.540 -20.137   4.202  1.00  0.00     0.036 A 
HETATM   13  C   UNL     1      44.709 -21.521   4.320  1.00  0.00     0.032 A 
HETATM   14  C   UNL     1      44.536 -22.349   3.206  1.00  0.00     0.044 A 
HETATM   15  C   UNL     1      44.184 -21.795   1.981  1.00  0.00     0.116 A 
HETATM   16  C   UNL     1      43.992 -20.427   1.850  1.00  0.00     0.044 A 
HETATM   17  F   UNL     1      44.013 -22.592   0.920  1.00  0.00    -0.206 F 
HETATM   18  C   UNL     1      44.160 -19.599   2.963  1.00  0.00     0.032 A 
ENDBRANCH   8  12
ENDBRANCH   1   6
BRANCH   4  19
HETATM   19  C   UNL     1      41.430 -13.264   4.065  1.00  0.00     0.163 C 
BRANCH  19  20
HETATM   20  C   UNL     1      41.656 -13.356   2.562  1.00  0.00     0.227 C 
HETATM   21  N   UNL     1      40.788 -14.202   1.896  1.00  0.00    -0.327 N 
HETATM   22  H   UNL     1      40.229 -14.824   2.490  1.00  0.00     0.169 HD
HETATM   23  O   UNL     1      42.509 -12.646   2.031  1.00  0.00    -0.273 OA
BRANCH  21  24
HETATM   24  C   UNL     1      40.642 -14.370   0.504  1.00  0.00     0.036 A 
HETATM   25  C   UNL     1      39.918 -13.501  -0.316  1.00  0.00     0.056 A 
HETATM   26  C   UNL     1      39.800 -13.764  -1.684  1.00  0.00     0.074 A 
HETATM   27 CL   UNL     1      38.885 -12.693  -2.678  1.00  0.00    -0.081 Cl
HETATM   28  C   UNL     1      40.409 -14.887  -2.236  1.00  0.00     0.138 A 
HETATM   29  F   UNL     1      40.305 -15.154  -3.547  1.00  0.00    -0.204 F 
HETATM   30  C   UNL     1      41.132 -15.758  -1.434  1.00  0.00     0.046 A 
HETATM   31  C   UNL     1      41.243 -15.502  -0.065  1.00  0.00     0.032 A 
ENDBRANCH  21  24
ENDBRANCH  19  20
ENDBRANCH   4  19
TORSDOF 5
ENDMDL
MODEL 5
REMARK VINA RESULT:      -8.9      5.579      8.547
REMARK  5 active torsions:
REMARK  status: ('A' for Active; 'I' for Inactive)
REMARK    1  A    between atoms: C_2  and  N_3 
REMARK       I    between atoms: N_3  and  C_4 
REMARK       I    between atoms: C_4  and  N_5 
REMARK    2  A    between atoms: N_5  and  C_6 
REMARK    3  A    between atoms: C_9  and  C_10 
REMARK    4  A    between atoms: C_10  and  C_11 
REMARK       I    between atoms: C_11  and  N_12 
REMARK    5  A    between atoms: N_12  and  C_13 
ROOT
HETATM    1  C   UNL     1      41.771 -15.228   3.423  1.00  0.00     0.174 A 
HETATM    2  S   UNL     1      40.482 -14.737   4.424  1.00  0.00    -0.062 SA
HETATM    3  C   UNL     1      40.358 -13.285   3.515  1.00  0.00     0.081 A 
HETATM    4  C   UNL     1      41.294 -13.283   2.496  1.00  0.00     0.052 A 
HETATM    5  N   UNL     1      42.099 -14.414   2.454  1.00  0.00    -0.228 NA
ENDROOT
BRANCH   1   6
HETATM    6  N   UNL     1      42.303 -16.447   3.731  1.00  0.00    -0.287 N 
HETATM    7  C   UNL     1      43.301 -16.583   4.647  1.00  0.00     0.326 C 
HETATM    8  N   UNL     1      43.826 -17.838   4.799  1.00  0.00    -0.309 N 
HETATM    9  O   UNL     1      43.703 -15.701   5.404  1.00  0.00    -0.247 OA
HETATM   10  H   UNL     1      44.349 -17.912   5.664  1.00  0.00     0.170 HD
HETATM   11  H   UNL     1      41.778 -17.263   3.462  1.00  0.00     0.172 HD
BRANCH   8  12
HETATM   12  C   UNL     1      43.882 -18.945   3.936  1.00  0.00     0.036 A 
HETATM   13  C   UNL     1      43.314 -18.970   2.657  1.00  0.00     0.032 A 
HETATM   14  C   UNL     1      43.457 -20.101   1.846  1.00  0.00     0.044 A 
HETATM   15  C   UNL     1      44.174 -21.197   2.309  1.00  0.00     0.116 A 
HETATM   16  C   UNL     1      44.762 -21.182   3.565  1.00  0.00     0.044 A 
HETATM   17  F   UNL     1      44.314 -22.274   1.526  1.00  0.00    -0.206 F 
HETATM   18  C   UNL     1      44.625 -20.052   4.375  1.00  0.00     0.032 A 
ENDBRANCH   8  12
ENDBRANCH   1   6
BRANCH   4  19
HETATM   19  C   UNL     1      41.474 -12.241   1.441  1.00  0.00     0.163 C 
BRANCH  19  20
HETATM   20  C   UNL     1      41.378 -12.763   0.014  1.00  0.00     0.227 C 
HETATM   21  N   UNL     1      40.474 -13.793  -0.167  1.00  0.00    -0.327 N 
HETATM   22  H   UNL     1      40.119 -14.230   0.690  1.00  0.00     0.169 HD
HETATM   23  O   UNL     1      42.023 -12.214  -0.879  1.00  0.00    -0.273 OA
BRANCH  21  24
HETATM   24  C   UNL     1      40.047 -14.366  -1.383  1.00  0.00     0.036 A 
HETATM   25  C   UNL     1      38.844 -14.046  -2.018  1.00  0.00     0.056 A 
HETATM   26  C   UNL     1      38.487 -14.688  -3.207  1.00  0.00     0.074 A 
HETATM   27 CL   UNL     1      36.990 -14.297  -3.967  1.00  0.00    -0.081 Cl
HETATM   28  C   UNL     1      39.330 -15.644  -3.767  1.00  0.00     0.138 A 
HETATM   29  F   UNL     1      39.002 -16.270  -4.907  1.00  0.00    -0.204 F 
HETATM   30  C   UNL     1      40.529 -15.971  -3.147  1.00  0.00     0.046 A 
HETATM   31  C   UNL     1      40.883 -15.337  -1.955  1.00  0.00     0.032 A 
ENDBRANCH  21  24
ENDBRANCH  19  20
ENDBRANCH   4  19
TORSDOF 5
ENDMDL
MODEL 6
REMARK VINA RESULT:      -8.9      4.600      7.547
REMARK  5 active torsions:
REMARK  status: ('A' for Active; 'I' for Inactive)
REMARK    1  A    between atoms: C_2  and  N_3 
REMARK       I    between atoms: N_3  and  C_4 
REMARK       I    between atoms: C_4  and  N_5 
REMARK    2  A    between atoms: N_5  and  C_6 
REMARK    3  A    between atoms: C_9  and  C_10 
REMARK    4  A    between atoms: C_10  and  C_11 
REMARK       I    between atoms: C_11  and  N_12 
REMARK    5  A    between atoms: N_12  and  C_13 
ROOT
HETATM    1  C   UNL     1      40.949 -13.921   3.001  1.00  0.00     0.174 A 
HETATM    2  S   UNL     1      40.590 -12.634   4.058  1.00  0.00    -0.062 SA
HETATM    3  C   UNL     1      41.464 -13.437   5.300  1.00  0.00     0.081 A 
HETATM    4  C   UNL     1      41.990 -14.623   4.817  1.00  0.00     0.052 A 
HETATM    5  N   UNL     1      41.687 -14.885   3.487  1.00  0.00    -0.228 NA
ENDROOT
BRANCH   1   6
HETATM    6  N   UNL     1      40.446 -13.784   1.740  1.00  0.00    -0.287 N 
HETATM    7  C   UNL     1      39.508 -14.639   1.246  1.00  0.00     0.326 C 
HETATM    8  N   UNL     1      39.153 -14.466  -0.064  1.00  0.00    -0.309 N 
HETATM    9  O   UNL     1      38.896 -15.483   1.897  1.00  0.00    -0.247 OA
HETATM   10  H   UNL     1      38.280 -14.940  -0.271  1.00  0.00     0.170 HD
HETATM   11  H   UNL     1      40.589 -12.901   1.278  1.00  0.00     0.172 HD
BRANCH   8  12
HETATM   12  C   UNL     1      39.829 -13.894  -1.155  1.00  0.00     0.036 A 
HETATM   13  C   UNL     1      39.641 -12.576  -1.588  1.00  0.00     0.032 A 
HETATM   14  C   UNL     1      40.390 -12.073  -2.657  1.00  0.00     0.044 A 
HETATM   15  C   UNL     1      41.332 -12.882  -3.282  1.00  0.00     0.116 A 
HETATM   16  C   UNL     1      41.546 -14.184  -2.853  1.00  0.00     0.044 A 
HETATM   17  F   UNL     1      42.051 -12.393  -4.299  1.00  0.00    -0.206 F 
HETATM   18  C   UNL     1      40.802 -14.686  -1.782  1.00  0.00     0.032 A 
ENDBRANCH   8  12
ENDBRANCH   1   6
BRANCH   4  19
HETATM   19  C   UNL     1      42.867 -15.584   5.551  1.00  0.00     0.163 C 
BRANCH  19  20
HETATM   20  C   UNL     1      42.725 -17.034   5.109  1.00  0.00     0.227 C 
HETATM   21  N   UNL     1      43.723 -17.482   4.263  1.00  0.00    -0.327 N 
HETATM   22  H   UNL     1      44.328 -16.757   3.863  1.00  0.00     0.169 HD
HETATM   23  O   UNL     1      41.816 -17.724   5.569  1.00  0.00    -0.273 OA
BRANCH  21  24
HETATM   24  C   UNL     1      43.954 -18.801   3.820  1.00  0.00     0.036 A 
HETATM   25  C   UNL     1      44.452 -19.822   4.635  1.00  0.00     0.056 A 
HETATM   26  C   UNL     1      44.680 -21.094   4.102  1.00  0.00     0.074 A 
HETATM   27 CL   UNL     1      45.315 -22.337   5.115  1.00  0.00    -0.081 Cl
HETATM   28  C   UNL     1      44.406 -21.352   2.762  1.00  0.00     0.138 A 
HETATM   29  F   UNL     1      44.620 -22.567   2.235  1.00  0.00    -0.204 F 
HETATM   30  C   UNL     1      43.910 -20.347   1.942  1.00  0.00     0.046 A 
HETATM   31  C   UNL     1      43.690 -19.074   2.470  1.00  0.00     0.032 A 
ENDBRANCH  21  24
ENDBRANCH  19  20
ENDBRANCH   4  19
TORSDOF 5
ENDMDL
MODEL 7
REMARK VINA RESULT:      -8.9      3.102      3.909
REMARK  5 active torsions:
REMARK  status: ('A' for Active; 'I' for Inactive)
REMARK    1  A    between atoms: C_2  and  N_3 
REMARK       I    between atoms: N_3  and  C_4 
REMARK       I    between atoms: C_4  and  N_5 
REMARK    2  A    between atoms: N_5  and  C_6 
REMARK    3  A    between atoms: C_9  and  C_10 
REMARK    4  A    between atoms: C_10  and  C_11 
REMARK       I    between atoms: C_11  and  N_12 
REMARK    5  A    between atoms: N_12  and  C_13 
ROOT
HETATM    1  C   UNL     1      41.354 -11.014   7.030  1.00  0.00     0.174 A 
HETATM    2  S   UNL     1      41.192  -9.476   6.313  1.00  0.00    -0.062 SA
HETATM    3  C   UNL     1      41.369 -10.202   4.767  1.00  0.00     0.081 A 
HETATM    4  C   UNL     1      41.517 -11.571   4.901  1.00  0.00     0.052 A 
HETATM    5  N   UNL     1      41.502 -12.024   6.214  1.00  0.00    -0.228 NA
ENDROOT
BRANCH   1   6
HETATM    6  N   UNL     1      41.278 -11.021   8.393  1.00  0.00    -0.287 N 
HETATM    7  C   UNL     1      40.085 -10.960   9.044  1.00  0.00     0.326 C 
HETATM    8  N   UNL     1      40.136 -10.871  10.409  1.00  0.00    -0.309 N 
HETATM    9  O   UNL     1      38.977 -11.068   8.521  1.00  0.00    -0.247 OA
HETATM   10  H   UNL     1      39.241 -11.104  10.824  1.00  0.00     0.170 HD
HETATM   11  H   UNL     1      42.093 -11.327   8.901  1.00  0.00     0.172 HD
BRANCH   8  12
HETATM   12  C   UNL     1      41.128 -10.396  11.285  1.00  0.00     0.036 A 
HETATM   13  C   UNL     1      41.538  -9.060  11.351  1.00  0.00     0.032 A 
HETATM   14  C   UNL     1      42.502  -8.666  12.285  1.00  0.00     0.044 A 
HETATM   15  C   UNL     1      43.043  -9.603  13.157  1.00  0.00     0.116 A 
HETATM   16  C   UNL     1      42.633 -10.928  13.120  1.00  0.00     0.044 A 
HETATM   17  F   UNL     1      43.960  -9.219  14.054  1.00  0.00    -0.206 F 
HETATM   18  C   UNL     1      41.667 -11.322  12.190  1.00  0.00     0.032 A 
ENDBRANCH   8  12
ENDBRANCH   1   6
BRANCH   4  19
HETATM   19  C   UNL     1      41.632 -12.577   3.802  1.00  0.00     0.163 C 
BRANCH  19  20
HETATM   20  C   UNL     1      42.729 -13.613   4.005  1.00  0.00     0.227 C 
HETATM   21  N   UNL     1      42.326 -14.764   4.656  1.00  0.00    -0.327 N 
HETATM   22  H   UNL     1      41.407 -14.721   5.109  1.00  0.00     0.169 HD
HETATM   23  O   UNL     1      43.847 -13.416   3.530  1.00  0.00    -0.273 OA
BRANCH  21  24
HETATM   24  C   UNL     1      43.059 -15.954   4.843  1.00  0.00     0.036 A 
HETATM   25  C   UNL     1      43.199 -16.947   3.869  1.00  0.00     0.056 A 
HETATM   26  C   UNL     1      43.920 -18.110   4.154  1.00  0.00     0.074 A 
HETATM   27 CL   UNL     1      44.065 -19.334   2.948  1.00  0.00    -0.081 Cl
HETATM   28  C   UNL     1      44.506 -18.283   5.404  1.00  0.00     0.138 A 
HETATM   29  F   UNL     1      45.200 -19.394   5.694  1.00  0.00    -0.204 F 
HETATM   30  C   UNL     1      44.376 -17.305   6.381  1.00  0.00     0.046 A 
HETATM   31  C   UNL     1      43.649 -16.146   6.101  1.00  0.00     0.032 A 
ENDBRANCH  21  24
ENDBRANCH  19  20
ENDBRANCH   4  19
TORSDOF 5
ENDMDL
MODEL 8
REMARK VINA RESULT:      -8.9      1.952      2.356
REMARK  5 active torsions:
REMARK  status: ('A' for Active; 'I' for Inactive)
REMARK    1  A    between atoms: C_2  and  N_3 
REMARK       I    between atoms: N_3  and  C_4 
REMARK       I    between atoms: C_4  and  N_5 
REMARK    2  A    between atoms: N_5  and  C_6 
REMARK    3  A    between atoms: C_9  and  C_10 
REMARK    4  A    between atoms: C_10  and  C_11 
REMARK       I    between atoms: C_11  and  N_12 
REMARK    5  A    between atoms: N_12  and  C_13 
ROOT
HETATM    1  C   UNL     1      41.142 -12.818   5.744  1.00  0.00     0.174 A 
HETATM    2  S   UNL     1      39.534 -13.011   5.216  1.00  0.00    -0.062 SA
HETATM    3  C   UNL     1      40.099 -13.981   3.915  1.00  0.00     0.081 A 
HETATM    4  C   UNL     1      41.475 -14.110   3.984  1.00  0.00     0.052 A 
HETATM    5  N   UNL     1      42.062 -13.436   5.048  1.00  0.00    -0.228 NA
ENDROOT
BRANCH   1   6
HETATM    6  N   UNL     1      41.290 -12.056   6.866  1.00  0.00    -0.287 N 
HETATM    7  C   UNL     1      41.578 -10.728   6.797  1.00  0.00     0.326 C 
HETATM    8  N   UNL     1      41.804 -10.087   7.986  1.00  0.00    -0.309 N 
HETATM    9  O   UNL     1      41.564 -10.044   5.775  1.00  0.00    -0.247 OA
HETATM   10  H   UNL     1      41.737  -9.081   7.877  1.00  0.00     0.170 HD
HETATM   11  H   UNL     1      40.934 -12.431   7.731  1.00  0.00     0.172 HD
BRANCH   8  12
HETATM   12  C   UNL     1      42.232 -10.555   9.240  1.00  0.00     0.036 A 
HETATM   13  C   UNL     1      43.547 -10.941   9.523  1.00  0.00     0.032 A 
HETATM   14  C   UNL     1      43.897 -11.352  10.814  1.00  0.00     0.044 A 
HETATM   15  C   UNL     1      42.937 -11.366  11.819  1.00  0.00     0.116 A 
HETATM   16  C   UNL     1      41.633 -10.966  11.561  1.00  0.00     0.044 A 
HETATM   17  F   UNL     1      43.278 -11.753  13.054  1.00  0.00    -0.206 F 
HETATM   18  C   UNL     1      41.283 -10.551  10.273  1.00  0.00     0.032 A 
ENDBRANCH   8  12
ENDBRANCH   1   6
BRANCH   4  19
HETATM   19  C   UNL     1      42.350 -14.922   3.087  1.00  0.00     0.163 C 
BRANCH  19  20
HETATM   20  C   UNL     1      42.403 -16.405   3.428  1.00  0.00     0.227 C 
HETATM   21  N   UNL     1      43.570 -17.045   3.053  1.00  0.00    -0.327 N 
HETATM   22  H   UNL     1      44.181 -16.522   2.417  1.00  0.00     0.169 HD
HETATM   23  O   UNL     1      41.480 -16.917   4.061  1.00  0.00    -0.273 OA
BRANCH  21  24
HETATM   24  C   UNL     1      43.978 -18.356   3.373  1.00  0.00     0.036 A 
HETATM   25  C   UNL     1      44.007 -19.411   2.456  1.00  0.00     0.056 A 
HETATM   26  C   UNL     1      44.397 -20.688   2.869  1.00  0.00     0.074 A 
HETATM   27 CL   UNL     1      44.407 -21.982   1.730  1.00  0.00    -0.081 Cl
HETATM   28  C   UNL     1      44.764 -20.914   4.192  1.00  0.00     0.138 A 
HETATM   29  F   UNL     1      45.140 -22.134   4.605  1.00  0.00    -0.204 F 
HETATM   30  C   UNL     1      44.741 -19.876   5.113  1.00  0.00     0.046 A 
HETATM   31  C   UNL     1      44.344 -18.601   4.704  1.00  0.00     0.032 A 
ENDBRANCH  21  24
ENDBRANCH  19  20
ENDBRANCH   4  19
TORSDOF 5
ENDMDL
MODEL 9
REMARK VINA RESULT:      -8.8      4.627      7.927
REMARK  5 active torsions:
REMARK  status: ('A' for Active; 'I' for Inactive)
REMARK    1  A    between atoms: C_2  and  N_3 
REMARK       I    between atoms: N_3  and  C_4 
REMARK       I    between atoms: C_4  and  N_5 
REMARK    2  A    between atoms: N_5  and  C_6 
REMARK    3  A    between atoms: C_9  and  C_10 
REMARK    4  A    between atoms: C_10  and  C_11 
REMARK       I    between atoms: C_11  and  N_12 
REMARK    5  A    between atoms: N_12  and  C_13 
ROOT
HETATM    1  C   UNL     1      41.588 -14.883   2.423  1.00  0.00     0.174 A 
HETATM    2  S   UNL     1      40.136 -14.756   3.306  1.00  0.00    -0.062 SA
HETATM    3  C   UNL     1      41.004 -15.115   4.744  1.00  0.00     0.081 A 
HETATM    4  C   UNL     1      42.347 -15.285   4.457  1.00  0.00     0.052 A 
HETATM    5  N   UNL     1      42.668 -15.143   3.113  1.00  0.00    -0.228 NA
ENDROOT
BRANCH   1   6
HETATM    6  N   UNL     1      41.464 -14.664   1.082  1.00  0.00    -0.287 N 
HETATM    7  C   UNL     1      41.812 -13.476   0.515  1.00  0.00     0.326 C 
HETATM    8  N   UNL     1      41.549 -13.335  -0.821  1.00  0.00    -0.309 N 
HETATM    9  O   UNL     1      42.419 -12.565   1.076  1.00  0.00    -0.247 OA
HETATM   10  H   UNL     1      42.073 -12.562  -1.216  1.00  0.00     0.170 HD
HETATM   11  H   UNL     1      41.353 -15.470   0.489  1.00  0.00     0.172 HD
BRANCH   8  12
HETATM   12  C   UNL     1      40.615 -13.957  -1.667  1.00  0.00     0.036 A 
HETATM   13  C   UNL     1      39.256 -13.627  -1.707  1.00  0.00     0.032 A 
HETATM   14  C   UNL     1      38.403 -14.267  -2.614  1.00  0.00     0.044 A 
HETATM   15  C   UNL     1      38.912 -15.224  -3.483  1.00  0.00     0.116 A 
HETATM   16  C   UNL     1      40.261 -15.548  -3.472  1.00  0.00     0.044 A 
HETATM   17  F   UNL     1      38.094 -15.828  -4.354  1.00  0.00    -0.206 F 
HETATM   18  C   UNL     1      41.115 -14.907  -2.570  1.00  0.00     0.032 A 
ENDBRANCH   8  12
ENDBRANCH   1   6
BRANCH   4  19
HETATM   19  C   UNL     1      43.451 -15.542   5.430  1.00  0.00     0.163 C 
BRANCH  19  20
HETATM   20  C   UNL     1      43.839 -17.007   5.574  1.00  0.00     0.227 C 
HETATM   21  N   UNL     1      43.548 -17.795   4.476  1.00  0.00    -0.327 N 
HETATM   22  H   UNL     1      42.930 -17.372   3.775  1.00  0.00     0.169 HD
HETATM   23  O   UNL     1      44.435 -17.382   6.583  1.00  0.00    -0.273 OA
BRANCH  21  24
HETATM   24  C   UNL     1      43.928 -19.133   4.246  1.00  0.00     0.036 A 
HETATM   25  C   UNL     1      43.896 -19.750   2.992  1.00  0.00     0.056 A 
HETATM   26  C   UNL     1      44.262 -21.093   2.862  1.00  0.00     0.074 A 
HETATM   27 CL   UNL     1      44.196 -21.845   1.312  1.00  0.00    -0.081 Cl
HETATM   28  C   UNL     1      44.665 -21.820   3.979  1.00  0.00     0.138 A 
HETATM   29  F   UNL     1      45.019 -23.109   3.872  1.00  0.00    -0.204 F 
HETATM   30  C   UNL     1      44.703 -21.219   5.230  1.00  0.00     0.046 A 
HETATM   31  C   UNL     1      44.329 -19.880   5.363  1.00  0.00     0.032 A 
ENDBRANCH  21  24
ENDBRANCH  19  20
ENDBRANCH   4  19
TORSDOF 5
ENDMDL
MODEL 10
REMARK VINA RESULT:      -8.5      4.071      9.743
REMARK  5 active torsions:
REMARK  status: ('A' for Active; 'I' for Inactive)
REMARK    1  A    between atoms: C_2  and  N_3 
REMARK       I    between atoms: N_3  and  C_4 
REMARK       I    between atoms: C_4  and  N_5 
REMARK    2  A    between atoms: N_5  and  C_6 
REMARK    3  A    between atoms: C_9  and  C_10 
REMARK    4  A    between atoms: C_10  and  C_11 
REMARK       I    between atoms: C_11  and  N_12 
REMARK    5  A    between atoms: N_12  and  C_13 
ROOT
HETATM    1  C   UNL     1      42.263 -14.579   5.118  1.00  0.00     0.174 A 
HETATM    2  S   UNL     1      42.933 -13.596   3.898  1.00  0.00    -0.062 SA
HETATM    3  C   UNL     1      42.054 -12.259   4.523  1.00  0.00     0.081 A 
HETATM    4  C   UNL     1      41.327 -12.648   5.634  1.00  0.00     0.052 A 
HETATM    5  N   UNL     1      41.462 -13.989   5.967  1.00  0.00    -0.228 NA
ENDROOT
BRANCH   1   6
HETATM    6  N   UNL     1      42.669 -15.882   5.091  1.00  0.00    -0.287 N 
HETATM    7  C   UNL     1      43.676 -16.335   5.887  1.00  0.00     0.326 C 
HETATM    8  N   UNL     1      44.066 -17.634   5.701  1.00  0.00    -0.309 N 
HETATM    9  O   UNL     1      44.197 -15.710   6.810  1.00  0.00    -0.247 OA
HETATM   10  H   UNL     1      44.606 -17.969   6.491  1.00  0.00     0.170 HD
HETATM   11  H   UNL     1      42.049 -16.551   4.665  1.00  0.00     0.172 HD
BRANCH   8  12
HETATM   12  C   UNL     1      43.973 -18.495   4.595  1.00  0.00     0.036 A 
HETATM   13  C   UNL     1      43.292 -18.180   3.414  1.00  0.00     0.032 A 
HETATM   14  C   UNL     1      43.287 -19.081   2.343  1.00  0.00     0.044 A 
HETATM   15  C   UNL     1      43.971 -20.286   2.451  1.00  0.00     0.116 A 
HETATM   16  C   UNL     1      44.669 -20.605   3.606  1.00  0.00     0.044 A 
HETATM   17  F   UNL     1      43.970 -21.141   1.420  1.00  0.00    -0.206 F 
HETATM   18  C   UNL     1      44.678 -19.705   4.675  1.00  0.00     0.032 A 
ENDBRANCH   8  12
ENDBRANCH   1   6
BRANCH   4  19
HETATM   19  C   UNL     1      40.485 -11.778   6.509  1.00  0.00     0.163 C 
BRANCH  19  20
HETATM   20  C   UNL     1      41.268 -10.952   7.521  1.00  0.00     0.227 C 
HETATM   21  N   UNL     1      41.026 -11.275   8.844  1.00  0.00    -0.327 N 
HETATM   22  H   UNL     1      40.214 -11.877   9.014  1.00  0.00     0.169 HD
HETATM   23  O   UNL     1      42.096 -10.132   7.126  1.00  0.00    -0.273 OA
BRANCH  21  24
HETATM   24  C   UNL     1      41.708 -10.808   9.986  1.00  0.00     0.036 A 
HETATM   25  C   UNL     1      41.149  -9.943  10.931  1.00  0.00     0.056 A 
HETATM   26  C   UNL     1      41.910  -9.507  12.019  1.00  0.00     0.074 A 
HETATM   27 CL   UNL     1      41.212  -8.423  13.164  1.00  0.00    -0.081 Cl
HETATM   28  C   UNL     1      43.226  -9.936  12.169  1.00  0.00     0.138 A 
HETATM   29  F   UNL     1      43.971  -9.526  13.207  1.00  0.00    -0.204 F 
HETATM   30  C   UNL     1      43.794 -10.796  11.239  1.00  0.00     0.046 A 
HETATM   31  C   UNL     1      43.037 -11.226  10.147  1.00  0.00     0.032 A 
ENDBRANCH  21  24
ENDBRANCH  19  20
ENDBRANCH   4  19
TORSDOF 5
ENDMDL
