MODEL 1
REMARK VINA RESULT:      -8.8      0.000      0.000
REMARK  4 active torsions:
REMARK  status: ('A' for Active; 'I' for Inactive)
REMARK    1  A    between atoms: C_2  and  C_3 
REMARK    2  A    between atoms: C_4  and  N_5 
REMARK       I    between atoms: N_5  and  C_6 
REMARK    3  A    between atoms: C_6  and  C_7 
REMARK    4  A    between atoms: C_19  and  C_20 
ROOT
HETATM    1  N   UNL     1      43.345 -17.552   4.250  1.00  0.00    -0.321 N 
HETATM    2  C   UNL     1      42.059 -17.249   4.678  1.00  0.00     0.277 C 
HETATM    3  O   UNL     1      41.158 -18.041   4.904  1.00  0.00    -0.266 OA
HETATM    4  H   UNL     1      44.008 -16.830   4.503  1.00  0.00     0.169 HD
ENDROOT
BRANCH   2   5
HETATM    5  C   UNL     1      41.871 -15.751   4.951  1.00  0.00     0.156 A 
HETATM    6  N   UNL     1      42.528 -15.288   5.980  1.00  0.00    -0.166 NA
HETATM    7  N   UNL     1      42.375 -13.977   6.308  1.00  0.00    -0.242 N 
HETATM    8  C   UNL     1      41.552 -13.077   5.676  1.00  0.00     0.272 A 
HETATM    9  H   UNL     1      42.875 -13.644   7.127  1.00  0.00     0.192 HD
HETATM   10  O   UNL     1      41.432 -11.919   6.060  1.00  0.00    -0.266 OA
HETATM   11  C   UNL     1      40.828 -13.579   4.496  1.00  0.00     0.046 A 
HETATM   12  C   UNL     1      40.995 -14.908   4.102  1.00  0.00     0.016 A 
HETATM   13  C   UNL     1      39.998 -12.713   3.771  1.00  0.00     0.018 A 
HETATM   14  C   UNL     1      40.345 -15.358   2.948  1.00  0.00     0.015 A 
HETATM   15  C   UNL     1      39.516 -14.495   2.223  1.00  0.00     0.001 A 
HETATM   16  C   UNL     1      39.338 -13.176   2.635  1.00  0.00     0.001 A 
ENDBRANCH   2   5
BRANCH   1  17
HETATM   17  C   UNL     1      43.787 -18.883   4.117  1.00  0.00     0.049 A 
HETATM   18  C   UNL     1      44.296 -19.532   5.278  1.00  0.00    -0.031 A 
HETATM   19  C   UNL     1      44.788 -20.842   5.183  1.00  0.00     0.011 A 
HETATM   20  C   UNL     1      44.762 -21.515   3.974  1.00  0.00     0.025 A 
HETATM   21  C   UNL     1      44.214 -20.901   2.848  1.00  0.00     0.042 A 
HETATM   22  C   UNL     1      43.691 -19.578   2.883  1.00  0.00    -0.009 A 
HETATM   23 CL   UNL     1      44.234 -21.854   1.394  1.00  0.00    -0.084 Cl
BRANCH  18  24
HETATM   24  C   UNL     1      44.210 -18.941   6.674  1.00  0.00     0.036 C 
HETATM   25  C   UNL     1      45.345 -17.958   6.932  1.00  0.00     0.010 C 
ENDBRANCH  18  24
BRANCH  22  26
HETATM   26  C   UNL     1      43.168 -19.036   1.558  1.00  0.00     0.038 C 
HETATM   27  C   UNL     1      43.667 -17.750   0.922  1.00  0.00     0.010 C 
ENDBRANCH  22  26
ENDBRANCH   1  17
TORSDOF 4
ENDMDL
MODEL 2
REMARK VINA RESULT:      -8.7      1.066      2.750
REMARK  4 active torsions:
REMARK  status: ('A' for Active; 'I' for Inactive)
REMARK    1  A    between atoms: C_2  and  C_3 
REMARK    2  A    between atoms: C_4  and  N_5 
REMARK       I    between atoms: N_5  and  C_6 
REMARK    3  A    between atoms: C_6  and  C_7 
REMARK    4  A    between atoms: C_19  and  C_20 
ROOT
HETATM    1  N   UNL     1      43.320 -17.077   3.896  1.00  0.00    -0.321 N 
HETATM    2  C   UNL     1      42.095 -16.805   4.491  1.00  0.00     0.277 C 
HETATM    3  O   UNL     1      41.197 -17.602   4.715  1.00  0.00    -0.266 OA
HETATM    4  H   UNL     1      44.028 -16.405   4.162  1.00  0.00     0.169 HD
ENDROOT
BRANCH   2   5
HETATM    5  C   UNL     1      41.984 -15.349   4.962  1.00  0.00     0.156 A 
HETATM    6  N   UNL     1      42.738 -15.036   5.981  1.00  0.00    -0.166 NA
HETATM    7  N   UNL     1      42.660 -13.773   6.480  1.00  0.00    -0.242 N 
HETATM    8  C   UNL     1      41.822 -12.780   6.035  1.00  0.00     0.272 A 
HETATM    9  H   UNL     1      43.236 -13.560   7.289  1.00  0.00     0.192 HD
HETATM   10  O   UNL     1      41.776 -11.677   6.568  1.00  0.00    -0.266 OA
HETATM   11  C   UNL     1      40.988 -13.110   4.867  1.00  0.00     0.046 A 
HETATM   12  C   UNL     1      41.074 -14.383   4.300  1.00  0.00     0.016 A 
HETATM   13  C   UNL     1      40.135 -12.138   4.328  1.00  0.00     0.018 A 
HETATM   14  C   UNL     1      40.317 -14.668   3.158  1.00  0.00     0.015 A 
HETATM   15  C   UNL     1      39.465 -13.699   2.617  1.00  0.00     0.001 A 
HETATM   16  C   UNL     1      39.369 -12.438   3.203  1.00  0.00     0.001 A 
ENDBRANCH   2   5
BRANCH   1  17
HETATM   17  C   UNL     1      43.702 -18.390   3.557  1.00  0.00     0.049 A 
HETATM   18  C   UNL     1      43.601 -18.779   2.190  1.00  0.00    -0.031 A 
HETATM   19  C   UNL     1      43.927 -20.090   1.813  1.00  0.00     0.011 A 
HETATM   20  C   UNL     1      44.369 -21.001   2.757  1.00  0.00     0.025 A 
HETATM   21  C   UNL     1      44.521 -20.607   4.086  1.00  0.00     0.042 A 
HETATM   22  C   UNL     1      44.215 -19.289   4.528  1.00  0.00    -0.009 A 
HETATM   23 CL   UNL     1      45.090 -21.842   5.170  1.00  0.00    -0.084 Cl
BRANCH  18  24
HETATM   24  C   UNL     1      43.291 -17.809   1.064  1.00  0.00     0.036 C 
HETATM   25  C   UNL     1      41.798 -17.517   0.976  1.00  0.00     0.010 C 
ENDBRANCH  18  24
BRANCH  22  26
HETATM   26  C   UNL     1      44.394 -19.031   6.020  1.00  0.00     0.038 C 
HETATM   27  C   UNL     1      45.307 -17.955   6.580  1.00  0.00     0.010 C 
ENDBRANCH  22  26
ENDBRANCH   1  17
TORSDOF 4
ENDMDL
MODEL 3
REMARK VINA RESULT:      -8.5      2.876      6.575
REMARK  4 active torsions:
REMARK  status: ('A' for Active; 'I' for Inactive)
REMARK    1  A    between atoms: C_2  and  C_3 
REMARK    2  A    between atoms: C_4  and  N_5 
REMARK       I    between atoms: N_5  and  C_6 
REMARK    3  A    between atoms: C_6  and  C_7 
REMARK    4  A    between atoms: C_19  and  C_20 
ROOT
HETATM    1  N   UNL     1      43.684 -16.885   4.484  1.00  0.00    -0.321 N 
HETATM    2  C   UNL     1      42.776 -17.889   4.791  1.00  0.00     0.277 C 
HETATM    3  O   UNL     1      41.565 -17.773   4.898  1.00  0.00    -0.266 OA
HETATM    4  H   UNL     1      44.530 -17.254   4.069  1.00  0.00     0.169 HD
ENDROOT
BRANCH   2   5
HETATM    5  C   UNL     1      43.441 -19.267   4.903  1.00  0.00     0.156 A 
HETATM    6  N   UNL     1      43.773 -19.627   6.114  1.00  0.00    -0.166 NA
HETATM    7  N   UNL     1      44.406 -20.818   6.284  1.00  0.00    -0.242 N 
HETATM    8  C   UNL     1      44.777 -21.685   5.285  1.00  0.00     0.272 A 
HETATM    9  H   UNL     1      44.677 -21.066   7.231  1.00  0.00     0.192 HD
HETATM   10  O   UNL     1      45.388 -22.723   5.515  1.00  0.00    -0.266 OA
HETATM   11  C   UNL     1      44.382 -21.306   3.918  1.00  0.00     0.046 A 
HETATM   12  C   UNL     1      43.691 -20.111   3.710  1.00  0.00     0.016 A 
HETATM   13  C   UNL     1      44.688 -22.156   2.847  1.00  0.00     0.018 A 
HETATM   14  C   UNL     1      43.275 -19.787   2.414  1.00  0.00     0.015 A 
HETATM   15  C   UNL     1      43.579 -20.635   1.343  1.00  0.00     0.001 A 
HETATM   16  C   UNL     1      44.288 -21.815   1.557  1.00  0.00     0.001 A 
ENDBRANCH   2   5
BRANCH   1  17
HETATM   17  C   UNL     1      43.264 -15.581   4.158  1.00  0.00     0.049 A 
HETATM   18  C   UNL     1      43.249 -14.609   5.199  1.00  0.00    -0.031 A 
HETATM   19  C   UNL     1      42.794 -13.309   4.931  1.00  0.00     0.011 A 
HETATM   20  C   UNL     1      42.382 -12.959   3.657  1.00  0.00     0.025 A 
HETATM   21  C   UNL     1      42.447 -13.894   2.624  1.00  0.00     0.042 A 
HETATM   22  C   UNL     1      42.907 -15.225   2.831  1.00  0.00    -0.009 A 
HETATM   23 CL   UNL     1      41.908 -13.328   1.070  1.00  0.00    -0.084 Cl
BRANCH  18  24
HETATM   24  C   UNL     1      43.838 -14.848   6.578  1.00  0.00     0.036 C 
HETATM   25  C   UNL     1      45.062 -13.973   6.819  1.00  0.00     0.010 C 
ENDBRANCH  18  24
BRANCH  22  26
HETATM   26  C   UNL     1      42.876 -16.135   1.609  1.00  0.00     0.038 C 
HETATM   27  C   UNL     1      41.635 -16.883   1.152  1.00  0.00     0.010 C 
ENDBRANCH  22  26
ENDBRANCH   1  17
TORSDOF 4
ENDMDL
MODEL 4
REMARK VINA RESULT:      -8.3      2.916      6.919
REMARK  4 active torsions:
REMARK  status: ('A' for Active; 'I' for Inactive)
REMARK    1  A    between atoms: C_2  and  C_3 
REMARK    2  A    between atoms: C_4  and  N_5 
REMARK       I    between atoms: N_5  and  C_6 
REMARK    3  A    between atoms: C_6  and  C_7 
REMARK    4  A    between atoms: C_19  and  C_20 
ROOT
HETATM    1  N   UNL     1      41.186 -16.415   3.815  1.00  0.00    -0.321 N 
HETATM    2  C   UNL     1      42.498 -16.283   4.252  1.00  0.00     0.277 C 
HETATM    3  O   UNL     1      43.281 -15.394   3.956  1.00  0.00    -0.266 OA
HETATM    4  H   UNL     1      40.625 -16.957   4.461  1.00  0.00     0.169 HD
ENDROOT
BRANCH   2   5
HETATM    5  C   UNL     1      42.885 -17.358   5.276  1.00  0.00     0.156 A 
HETATM    6  N   UNL     1      42.614 -17.063   6.519  1.00  0.00    -0.166 NA
HETATM    7  N   UNL     1      42.968 -17.951   7.486  1.00  0.00    -0.242 N 
HETATM    8  C   UNL     1      43.632 -19.137   7.289  1.00  0.00     0.272 A 
HETATM    9  H   UNL     1      42.771 -17.690   8.448  1.00  0.00     0.192 HD
HETATM   10  O   UNL     1      43.960 -19.865   8.220  1.00  0.00    -0.266 OA
HETATM   11  C   UNL     1      43.917 -19.495   5.890  1.00  0.00     0.046 A 
HETATM   12  C   UNL     1      43.528 -18.629   4.867  1.00  0.00     0.016 A 
HETATM   13  C   UNL     1      44.557 -20.708   5.601  1.00  0.00     0.018 A 
HETATM   14  C   UNL     1      43.756 -19.005   3.538  1.00  0.00     0.015 A 
HETATM   15  C   UNL     1      44.394 -20.216   3.247  1.00  0.00     0.001 A 
HETATM   16  C   UNL     1      44.799 -21.064   4.276  1.00  0.00     0.001 A 
ENDBRANCH   2   5
BRANCH   1  17
HETATM   17  C   UNL     1      40.569 -15.433   3.016  1.00  0.00     0.049 A 
HETATM   18  C   UNL     1      40.557 -15.637   1.606  1.00  0.00    -0.031 A 
HETATM   19  C   UNL     1      39.995 -14.664   0.767  1.00  0.00     0.011 A 
HETATM   20  C   UNL     1      39.431 -13.518   1.302  1.00  0.00     0.025 A 
HETATM   21  C   UNL     1      39.394 -13.342   2.684  1.00  0.00     0.042 A 
HETATM   22  C   UNL     1      39.939 -14.297   3.588  1.00  0.00    -0.009 A 
HETATM   23 CL   UNL     1      38.653 -11.865   3.229  1.00  0.00    -0.084 Cl
BRANCH  18  24
HETATM   24  C   UNL     1      40.995 -16.930   0.942  1.00  0.00     0.036 C 
HETATM   25  C   UNL     1      42.484 -16.913   0.620  1.00  0.00     0.010 C 
ENDBRANCH  18  24
BRANCH  22  26
HETATM   26  C   UNL     1      39.856 -13.935   5.066  1.00  0.00     0.038 C 
HETATM   27  C   UNL     1      40.943 -13.173   5.805  1.00  0.00     0.010 C 
ENDBRANCH  22  26
ENDBRANCH   1  17
TORSDOF 4
ENDMDL
MODEL 5
REMARK VINA RESULT:      -8.3      2.480      6.427
REMARK  4 active torsions:
REMARK  status: ('A' for Active; 'I' for Inactive)
REMARK    1  A    between atoms: C_2  and  C_3 
REMARK    2  A    between atoms: C_4  and  N_5 
REMARK       I    between atoms: N_5  and  C_6 
REMARK    3  A    between atoms: C_6  and  C_7 
REMARK    4  A    between atoms: C_19  and  C_20 
ROOT
HETATM    1  N   UNL     1      41.252 -16.596   3.845  1.00  0.00    -0.321 N 
HETATM    2  C   UNL     1      42.561 -16.494   4.298  1.00  0.00     0.277 C 
HETATM    3  O   UNL     1      43.365 -15.617   4.021  1.00  0.00    -0.266 OA
HETATM    4  H   UNL     1      40.673 -17.134   4.478  1.00  0.00     0.169 HD
ENDROOT
BRANCH   2   5
HETATM    5  C   UNL     1      42.916 -17.587   5.315  1.00  0.00     0.156 A 
HETATM    6  N   UNL     1      42.613 -17.311   6.555  1.00  0.00    -0.166 NA
HETATM    7  N   UNL     1      42.937 -18.216   7.516  1.00  0.00    -0.242 N 
HETATM    8  C   UNL     1      43.601 -19.402   7.318  1.00  0.00     0.272 A 
HETATM    9  H   UNL     1      42.716 -17.970   8.477  1.00  0.00     0.192 HD
HETATM   10  O   UNL     1      43.899 -20.147   8.244  1.00  0.00    -0.266 OA
HETATM   11  C   UNL     1      43.921 -19.740   5.920  1.00  0.00     0.046 A 
HETATM   12  C   UNL     1      43.563 -18.855   4.902  1.00  0.00     0.016 A 
HETATM   13  C   UNL     1      44.562 -20.951   5.629  1.00  0.00     0.018 A 
HETATM   14  C   UNL     1      43.825 -19.211   3.574  1.00  0.00     0.015 A 
HETATM   15  C   UNL     1      44.464 -20.420   3.280  1.00  0.00     0.001 A 
HETATM   16  C   UNL     1      44.837 -21.287   4.305  1.00  0.00     0.001 A 
ENDBRANCH   2   5
BRANCH   1  17
HETATM   17  C   UNL     1      40.664 -15.594   3.049  1.00  0.00     0.049 A 
HETATM   18  C   UNL     1      40.021 -14.511   3.715  1.00  0.00    -0.031 A 
HETATM   19  C   UNL     1      39.382 -13.513   2.964  1.00  0.00     0.011 A 
HETATM   20  C   UNL     1      39.393 -13.562   1.580  1.00  0.00     0.025 A 
HETATM   21  C   UNL     1      40.068 -14.592   0.927  1.00  0.00     0.042 A 
HETATM   22  C   UNL     1      40.742 -15.628   1.633  1.00  0.00    -0.009 A 
HETATM   23 CL   UNL     1      40.012 -14.536  -0.811  1.00  0.00    -0.084 Cl
BRANCH  18  24
HETATM   24  C   UNL     1      40.103 -14.281   5.213  1.00  0.00     0.036 C 
HETATM   25  C   UNL     1      41.151 -13.230   5.558  1.00  0.00     0.010 C 
ENDBRANCH  18  24
BRANCH  22  26
HETATM   26  C   UNL     1      41.394 -16.703   0.770  1.00  0.00     0.038 C 
HETATM   27  C   UNL     1      42.892 -16.954   0.736  1.00  0.00     0.010 C 
ENDBRANCH  22  26
ENDBRANCH   1  17
TORSDOF 4
ENDMDL
MODEL 6
REMARK VINA RESULT:      -8.3      3.023      4.468
REMARK  4 active torsions:
REMARK  status: ('A' for Active; 'I' for Inactive)
REMARK    1  A    between atoms: C_2  and  C_3 
REMARK    2  A    between atoms: C_4  and  N_5 
REMARK       I    between atoms: N_5  and  C_6 
REMARK    3  A    between atoms: C_6  and  C_7 
REMARK    4  A    between atoms: C_19  and  C_20 
ROOT
HETATM    1  N   UNL     1      42.103 -17.406   3.172  1.00  0.00    -0.321 N 
HETATM    2  C   UNL     1      42.571 -16.227   2.607  1.00  0.00     0.277 C 
HETATM    3  O   UNL     1      43.622 -15.660   2.863  1.00  0.00    -0.266 OA
HETATM    4  H   UNL     1      41.451 -17.884   2.563  1.00  0.00     0.169 HD
ENDROOT
BRANCH   2   5
HETATM    5  C   UNL     1      41.650 -15.703   1.497  1.00  0.00     0.156 A 
HETATM    6  N   UNL     1      41.812 -16.268   0.331  1.00  0.00    -0.166 NA
HETATM    7  N   UNL     1      41.059 -15.825  -0.712  1.00  0.00    -0.242 N 
HETATM    8  C   UNL     1      40.153 -14.794  -0.673  1.00  0.00     0.272 A 
HETATM    9  H   UNL     1      41.219 -16.261  -1.616  1.00  0.00     0.192 HD
HETATM   10  O   UNL     1      39.544 -14.421  -1.669  1.00  0.00    -0.266 OA
HETATM   11  C   UNL     1      39.939 -14.169   0.644  1.00  0.00     0.046 A 
HETATM   12  C   UNL     1      40.662 -14.628   1.746  1.00  0.00     0.016 A 
HETATM   13  C   UNL     1      39.001 -13.136   0.777  1.00  0.00     0.018 A 
HETATM   14  C   UNL     1      40.412 -14.062   3.002  1.00  0.00     0.015 A 
HETATM   15  C   UNL     1      39.475 -13.031   3.137  1.00  0.00     0.001 A 
HETATM   16  C   UNL     1      38.774 -12.565   2.027  1.00  0.00     0.001 A 
ENDBRANCH   2   5
BRANCH   1  17
HETATM   17  C   UNL     1      42.881 -18.152   4.079  1.00  0.00     0.049 A 
HETATM   18  C   UNL     1      43.639 -19.241   3.562  1.00  0.00    -0.031 A 
HETATM   19  C   UNL     1      44.393 -20.040   4.435  1.00  0.00     0.011 A 
HETATM   20  C   UNL     1      44.422 -19.763   5.790  1.00  0.00     0.025 A 
HETATM   21  C   UNL     1      43.723 -18.665   6.290  1.00  0.00     0.042 A 
HETATM   22  C   UNL     1      42.948 -17.812   5.455  1.00  0.00    -0.009 A 
HETATM   23 CL   UNL     1      43.846 -18.421   8.008  1.00  0.00    -0.084 Cl
BRANCH  18  24
HETATM   24  C   UNL     1      43.806 -19.518   2.079  1.00  0.00     0.036 C 
HETATM   25  C   UNL     1      43.636 -21.000   1.767  1.00  0.00     0.010 C 
ENDBRANCH  18  24
BRANCH  22  26
HETATM   26  C   UNL     1      42.211 -16.681   6.163  1.00  0.00     0.038 C 
HETATM   27  C   UNL     1      40.698 -16.611   6.279  1.00  0.00     0.010 C 
ENDBRANCH  22  26
ENDBRANCH   1  17
TORSDOF 4
ENDMDL
MODEL 7
REMARK VINA RESULT:      -8.2      2.276      2.804
REMARK  4 active torsions:
REMARK  status: ('A' for Active; 'I' for Inactive)
REMARK    1  A    between atoms: C_2  and  C_3 
REMARK    2  A    between atoms: C_4  and  N_5 
REMARK       I    between atoms: N_5  and  C_6 
REMARK    3  A    between atoms: C_6  and  C_7 
REMARK    4  A    between atoms: C_19  and  C_20 
ROOT
HETATM    1  N   UNL     1      41.918 -16.653   4.059  1.00  0.00    -0.321 N 
HETATM    2  C   UNL     1      42.398 -15.438   3.589  1.00  0.00     0.277 C 
HETATM    3  O   UNL     1      43.569 -15.109   3.473  1.00  0.00    -0.266 OA
HETATM    4  H   UNL     1      40.990 -16.855   3.708  1.00  0.00     0.169 HD
ENDROOT
BRANCH   2   5
HETATM    5  C   UNL     1      41.275 -14.512   3.105  1.00  0.00     0.156 A 
HETATM    6  N   UNL     1      40.707 -13.796   4.037  1.00  0.00    -0.166 NA
HETATM    7  N   UNL     1      39.674 -12.983   3.688  1.00  0.00    -0.242 N 
HETATM    8  C   UNL     1      39.128 -12.864   2.433  1.00  0.00     0.272 A 
HETATM    9  H   UNL     1      39.230 -12.453   4.433  1.00  0.00     0.192 HD
HETATM   10  O   UNL     1      38.163 -12.142   2.206  1.00  0.00    -0.266 OA
HETATM   11  C   UNL     1      39.778 -13.645   1.367  1.00  0.00     0.046 A 
HETATM   12  C   UNL     1      40.870 -14.456   1.680  1.00  0.00     0.016 A 
HETATM   13  C   UNL     1      39.307 -13.549   0.051  1.00  0.00     0.018 A 
HETATM   14  C   UNL     1      41.514 -15.151   0.649  1.00  0.00     0.015 A 
HETATM   15  C   UNL     1      41.045 -15.056  -0.666  1.00  0.00     0.001 A 
HETATM   16  C   UNL     1      39.940 -14.261  -0.965  1.00  0.00     0.001 A 
ENDBRANCH   2   5
BRANCH   1  17
HETATM   17  C   UNL     1      42.784 -17.717   4.381  1.00  0.00     0.049 A 
HETATM   18  C   UNL     1      43.139 -17.892   5.750  1.00  0.00    -0.031 A 
HETATM   19  C   UNL     1      44.034 -18.909   6.111  1.00  0.00     0.011 A 
HETATM   20  C   UNL     1      44.556 -19.758   5.151  1.00  0.00     0.025 A 
HETATM   21  C   UNL     1      44.168 -19.622   3.818  1.00  0.00     0.042 A 
HETATM   22  C   UNL     1      43.257 -18.616   3.390  1.00  0.00    -0.009 A 
HETATM   23 CL   UNL     1      44.890 -20.754   2.711  1.00  0.00    -0.084 Cl
BRANCH  18  24
HETATM   24  C   UNL     1      42.490 -17.126   6.889  1.00  0.00     0.036 C 
HETATM   25  C   UNL     1      43.272 -17.291   8.186  1.00  0.00     0.010 C 
ENDBRANCH  18  24
BRANCH  22  26
HETATM   26  C   UNL     1      42.969 -18.575   1.894  1.00  0.00     0.038 C 
HETATM   27  C   UNL     1      43.789 -17.765   0.905  1.00  0.00     0.010 C 
ENDBRANCH  22  26
ENDBRANCH   1  17
TORSDOF 4
ENDMDL
MODEL 8
REMARK VINA RESULT:      -8.2      3.051      7.248
REMARK  4 active torsions:
REMARK  status: ('A' for Active; 'I' for Inactive)
REMARK    1  A    between atoms: C_2  and  C_3 
REMARK    2  A    between atoms: C_4  and  N_5 
REMARK       I    between atoms: N_5  and  C_6 
REMARK    3  A    between atoms: C_6  and  C_7 
REMARK    4  A    between atoms: C_19  and  C_20 
ROOT
HETATM    1  N   UNL     1      42.031 -17.116   4.333  1.00  0.00    -0.321 N 
HETATM    2  C   UNL     1      43.252 -17.493   3.790  1.00  0.00     0.277 C 
HETATM    3  O   UNL     1      43.967 -16.824   3.061  1.00  0.00    -0.266 OA
HETATM    4  H   UNL     1      41.819 -17.627   5.181  1.00  0.00     0.169 HD
ENDROOT
BRANCH   2   5
HETATM    5  C   UNL     1      43.711 -18.872   4.284  1.00  0.00     0.156 A 
HETATM    6  N   UNL     1      43.935 -18.954   5.568  1.00  0.00    -0.166 NA
HETATM    7  N   UNL     1      44.385 -20.135   6.070  1.00  0.00    -0.242 N 
HETATM    8  C   UNL     1      44.673 -21.265   5.344  1.00  0.00     0.272 A 
HETATM    9  H   UNL     1      44.577 -20.170   7.068  1.00  0.00     0.192 HD
HETATM   10  O   UNL     1      45.121 -22.280   5.865  1.00  0.00    -0.266 OA
HETATM   11  C   UNL     1      44.396 -21.194   3.899  1.00  0.00     0.046 A 
HETATM   12  C   UNL     1      43.891 -20.012   3.355  1.00  0.00     0.016 A 
HETATM   13  C   UNL     1      44.625 -22.317   3.094  1.00  0.00     0.018 A 
HETATM   14  C   UNL     1      43.582 -19.974   1.990  1.00  0.00     0.015 A 
HETATM   15  C   UNL     1      43.809 -21.095   1.184  1.00  0.00     0.001 A 
HETATM   16  C   UNL     1      44.335 -22.263   1.732  1.00  0.00     0.001 A 
ENDBRANCH   2   5
BRANCH   1  17
HETATM   17  C   UNL     1      41.513 -15.817   4.158  1.00  0.00     0.049 A 
HETATM   18  C   UNL     1      40.685 -15.580   3.024  1.00  0.00    -0.031 A 
HETATM   19  C   UNL     1      40.184 -14.293   2.785  1.00  0.00     0.011 A 
HETATM   20  C   UNL     1      40.470 -13.256   3.656  1.00  0.00     0.025 A 
HETATM   21  C   UNL     1      41.236 -13.498   4.796  1.00  0.00     0.042 A 
HETATM   22  C   UNL     1      41.765 -14.784   5.098  1.00  0.00    -0.009 A 
HETATM   23 CL   UNL     1      41.518 -12.115   5.813  1.00  0.00    -0.084 Cl
BRANCH  18  24
HETATM   24  C   UNL     1      40.178 -16.683   2.111  1.00  0.00     0.036 C 
HETATM   25  C   UNL     1      41.063 -16.835   0.880  1.00  0.00     0.010 C 
ENDBRANCH  18  24
BRANCH  22  26
HETATM   26  C   UNL     1      42.616 -14.872   6.359  1.00  0.00     0.038 C 
HETATM   27  C   UNL     1      44.135 -14.848   6.348  1.00  0.00     0.010 C 
ENDBRANCH  22  26
ENDBRANCH   1  17
TORSDOF 4
ENDMDL
MODEL 9
REMARK VINA RESULT:      -8.1      2.991      4.127
REMARK  4 active torsions:
REMARK  status: ('A' for Active; 'I' for Inactive)
REMARK    1  A    between atoms: C_2  and  C_3 
REMARK    2  A    between atoms: C_4  and  N_5 
REMARK       I    between atoms: N_5  and  C_6 
REMARK    3  A    between atoms: C_6  and  C_7 
REMARK    4  A    between atoms: C_19  and  C_20 
ROOT
HETATM    1  N   UNL     1      43.568 -16.701   3.416  1.00  0.00    -0.321 N 
HETATM    2  C   UNL     1      42.265 -16.314   3.130  1.00  0.00     0.277 C 
HETATM    3  O   UNL     1      41.240 -16.866   3.500  1.00  0.00    -0.266 OA
HETATM    4  H   UNL     1      44.214 -15.924   3.359  1.00  0.00     0.169 HD
ENDROOT
BRANCH   2   5
HETATM    5  C   UNL     1      42.205 -15.002   2.337  1.00  0.00     0.156 A 
HETATM    6  N   UNL     1      42.515 -13.930   3.016  1.00  0.00    -0.166 NA
HETATM    7  N   UNL     1      42.443 -12.725   2.389  1.00  0.00    -0.242 N 
HETATM    8  C   UNL     1      42.029 -12.510   1.097  1.00  0.00     0.272 A 
HETATM    9  H   UNL     1      42.664 -11.902   2.942  1.00  0.00     0.192 HD
HETATM   10  O   UNL     1      41.946 -11.386   0.616  1.00  0.00    -0.266 OA
HETATM   11  C   UNL     1      41.704 -13.714   0.312  1.00  0.00     0.046 A 
HETATM   12  C   UNL     1      41.811 -14.971   0.909  1.00  0.00     0.016 A 
HETATM   13  C   UNL     1      41.312 -13.583  -1.027  1.00  0.00     0.018 A 
HETATM   14  C   UNL     1      41.551 -16.110   0.138  1.00  0.00     0.015 A 
HETATM   15  C   UNL     1      41.160 -15.982  -1.200  1.00  0.00     0.001 A 
HETATM   16  C   UNL     1      41.035 -14.722  -1.780  1.00  0.00     0.001 A 
ENDBRANCH   2   5
BRANCH   1  17
HETATM   17  C   UNL     1      43.848 -17.774   4.285  1.00  0.00     0.049 A 
HETATM   18  C   UNL     1      44.039 -19.062   3.709  1.00  0.00    -0.031 A 
HETATM   19  C   UNL     1      44.275 -20.167   4.539  1.00  0.00     0.011 A 
HETATM   20  C   UNL     1      44.345 -20.011   5.913  1.00  0.00     0.025 A 
HETATM   21  C   UNL     1      44.211 -18.741   6.475  1.00  0.00     0.042 A 
HETATM   22  C   UNL     1      43.980 -17.580   5.685  1.00  0.00    -0.009 A 
HETATM   23 CL   UNL     1      44.326 -18.678   8.210  1.00  0.00    -0.084 Cl
BRANCH  18  24
HETATM   24  C   UNL     1      44.149 -19.303   2.214  1.00  0.00     0.036 C 
HETATM   25  C   UNL     1      43.554 -20.650   1.824  1.00  0.00     0.010 C 
ENDBRANCH  18  24
BRANCH  22  26
HETATM   26  C   UNL     1      43.815 -16.276   6.456  1.00  0.00     0.038 C 
HETATM   27  C   UNL     1      42.482 -15.567   6.628  1.00  0.00     0.010 C 
ENDBRANCH  22  26
ENDBRANCH   1  17
TORSDOF 4
ENDMDL
MODEL 10
REMARK VINA RESULT:      -8.1      2.250      2.828
REMARK  4 active torsions:
REMARK  status: ('A' for Active; 'I' for Inactive)
REMARK    1  A    between atoms: C_2  and  C_3 
REMARK    2  A    between atoms: C_4  and  N_5 
REMARK       I    between atoms: N_5  and  C_6 
REMARK    3  A    between atoms: C_6  and  C_7 
REMARK    4  A    between atoms: C_19  and  C_20 
ROOT
HETATM    1  N   UNL     1      41.861 -16.918   4.152  1.00  0.00    -0.321 N 
HETATM    2  C   UNL     1      42.292 -15.661   3.747  1.00  0.00     0.277 C 
HETATM    3  O   UNL     1      43.448 -15.279   3.655  1.00  0.00    -0.266 OA
HETATM    4  H   UNL     1      40.943 -17.139   3.787  1.00  0.00     0.169 HD
ENDROOT
BRANCH   2   5
HETATM    5  C   UNL     1      41.131 -14.759   3.308  1.00  0.00     0.156 A 
HETATM    6  N   UNL     1      40.697 -14.966   2.094  1.00  0.00    -0.166 NA
HETATM    7  N   UNL     1      39.698 -14.174   1.621  1.00  0.00    -0.242 N 
HETATM    8  C   UNL     1      39.111 -13.128   2.290  1.00  0.00     0.272 A 
HETATM    9  H   UNL     1      39.392 -14.336   0.666  1.00  0.00     0.192 HD
HETATM   10  O   UNL     1      38.245 -12.428   1.778  1.00  0.00    -0.266 OA
HETATM   11  C   UNL     1      39.571 -12.903   3.671  1.00  0.00     0.046 A 
HETATM   12  C   UNL     1      40.564 -13.725   4.206  1.00  0.00     0.016 A 
HETATM   13  C   UNL     1      38.995 -11.880   4.436  1.00  0.00     0.018 A 
HETATM   14  C   UNL     1      40.956 -13.536   5.536  1.00  0.00     0.015 A 
HETATM   15  C   UNL     1      40.381 -12.515   6.302  1.00  0.00     0.001 A 
HETATM   16  C   UNL     1      39.406 -11.685   5.752  1.00  0.00     0.001 A 
ENDBRANCH   2   5
BRANCH   1  17
HETATM   17  C   UNL     1      42.770 -17.960   4.422  1.00  0.00     0.049 A 
HETATM   18  C   UNL     1      43.165 -18.162   5.776  1.00  0.00    -0.031 A 
HETATM   19  C   UNL     1      44.102 -19.158   6.086  1.00  0.00     0.011 A 
HETATM   20  C   UNL     1      44.628 -19.961   5.089  1.00  0.00     0.025 A 
HETATM   21  C   UNL     1      44.202 -19.801   3.771  1.00  0.00     0.042 A 
HETATM   22  C   UNL     1      43.248 -18.815   3.394  1.00  0.00    -0.009 A 
HETATM   23 CL   UNL     1      44.933 -20.876   2.615  1.00  0.00    -0.084 Cl
BRANCH  18  24
HETATM   24  C   UNL     1      42.520 -17.450   6.952  1.00  0.00     0.036 C 
HETATM   25  C   UNL     1      43.431 -16.365   7.512  1.00  0.00     0.010 C 
ENDBRANCH  18  24
BRANCH  22  26
HETATM   26  C   UNL     1      42.921 -18.741   1.907  1.00  0.00     0.038 C 
HETATM   27  C   UNL     1      43.582 -17.763   0.952  1.00  0.00     0.010 C 
ENDBRANCH  22  26
ENDBRANCH   1  17
TORSDOF 4
ENDMDL
