MODEL 1
REMARK VINA RESULT:      -7.2      0.000      0.000
REMARK  6 active torsions:
REMARK  status: ('A' for Active; 'I' for Inactive)
REMARK    1  A    between atoms: C_2  and  C_3 
REMARK    2  A    between atoms: C_5  and  N_6 
REMARK       I    between atoms: N_6  and  C_7 
REMARK       I    between atoms: C_7  and  N_8 
REMARK    3  A    between atoms: N_8  and  C_9 
REMARK    4  A    between atoms: C_9  and  C_10 
REMARK    5  A    between atoms: C_10  and  N_11 
REMARK    6  A    between atoms: C_18  and  O_19 
ROOT
HETATM    1  N   UNL     1      42.937 -18.151   2.084  1.00  0.00    -0.306 N 
HETATM    2  C   UNL     1      43.549 -17.327   1.187  1.00  0.00     0.320 C 
HETATM    3  N   UNL     1      42.742 -16.838   0.198  1.00  0.00    -0.341 N 
HETATM    4  O   UNL     1      44.733 -17.006   1.173  1.00  0.00    -0.247 OA
HETATM    5  H   UNL     1      42.109 -18.639   1.762  1.00  0.00     0.171 HD
HETATM    6  H   UNL     1      43.283 -16.222  -0.398  1.00  0.00     0.164 HD
ENDROOT
BRANCH   1   7
HETATM    7  C   UNL     1      43.467 -18.661   3.289  1.00  0.00     0.070 A 
HETATM    8  C   UNL     1      43.405 -17.960   4.500  1.00  0.00     0.040 A 
HETATM    9  C   UNL     1      43.906 -18.508   5.700  1.00  0.00    -0.048 A 
HETATM   10  C   UNL     1      44.476 -19.787   5.634  1.00  0.00     0.011 A 
HETATM   11  C   UNL     1      44.539 -20.500   4.428  1.00  0.00     0.039 A 
HETATM   12  C   UNL     1      44.031 -19.947   3.254  1.00  0.00     0.095 A 
BRANCH   9  13
HETATM   13  C   UNL     1      43.790 -17.711   7.012  1.00  0.00    -0.024 C 
HETATM   14  C   UNL     1      42.312 -17.332   7.251  1.00  0.00     0.019 C 
HETATM   15  C   UNL     1      44.638 -16.423   6.926  1.00  0.00     0.019 C 
HETATM   16  C   UNL     1      44.270 -18.489   8.257  1.00  0.00     0.019 C 
ENDBRANCH   9  13
BRANCH  12  17
HETATM   17  O   UNL     1      44.034 -20.562   2.024  1.00  0.00    -0.354 OA
HETATM   18  C   UNL     1      44.394 -21.938   1.992  1.00  0.00     0.210 C 
ENDBRANCH  12  17
ENDBRANCH   1   7
BRANCH   3  19
HETATM   19  C   UNL     1      41.323 -16.524   0.329  1.00  0.00     0.146 C 
BRANCH  19  20
HETATM   20  C   UNL     1      41.096 -15.105   0.837  1.00  0.00     0.170 C 
BRANCH  20  21
HETATM   21  N   UNL     1      41.226 -15.021   2.279  1.00  0.00    -0.278 N 
HETATM   22  N   UNL     1      40.554 -15.888   3.064  1.00  0.00    -0.184 NA
HETATM   23  C   UNL     1      40.932 -15.545   4.301  1.00  0.00     0.164 A 
HETATM   24  C   UNL     1      41.826 -14.460   4.304  1.00  0.00     0.070 A 
HETATM   25 CL   UNL     1      42.527 -13.731   5.657  1.00  0.00    -0.081 Cl
HETATM   26  C   UNL     1      41.997 -14.138   2.979  1.00  0.00     0.137 A 
ENDBRANCH  20  21
ENDBRANCH  19  20
ENDBRANCH   3  19
TORSDOF 6
ENDMDL
MODEL 2
REMARK VINA RESULT:      -7.1      2.921      4.876
REMARK  6 active torsions:
REMARK  status: ('A' for Active; 'I' for Inactive)
REMARK    1  A    between atoms: C_2  and  C_3 
REMARK    2  A    between atoms: C_5  and  N_6 
REMARK       I    between atoms: N_6  and  C_7 
REMARK       I    between atoms: C_7  and  N_8 
REMARK    3  A    between atoms: N_8  and  C_9 
REMARK    4  A    between atoms: C_9  and  C_10 
REMARK    5  A    between atoms: C_10  and  N_11 
REMARK    6  A    between atoms: C_18  and  O_19 
ROOT
HETATM    1  N   UNL     1      42.103 -15.666   5.784  1.00  0.00    -0.306 N 
HETATM    2  C   UNL     1      40.811 -15.735   6.211  1.00  0.00     0.320 C 
HETATM    3  N   UNL     1      40.171 -14.533   6.336  1.00  0.00    -0.341 N 
HETATM    4  O   UNL     1      40.187 -16.749   6.506  1.00  0.00    -0.247 OA
HETATM    5  H   UNL     1      42.597 -14.801   5.967  1.00  0.00     0.171 HD
HETATM    6  H   UNL     1      39.216 -14.694   6.634  1.00  0.00     0.164 HD
ENDROOT
BRANCH   1   7
HETATM    7  C   UNL     1      42.945 -16.735   5.404  1.00  0.00     0.070 A 
HETATM    8  C   UNL     1      42.903 -17.317   4.132  1.00  0.00     0.040 A 
HETATM    9  C   UNL     1      43.782 -18.357   3.763  1.00  0.00    -0.048 A 
HETATM   10  C   UNL     1      44.702 -18.793   4.726  1.00  0.00     0.011 A 
HETATM   11  C   UNL     1      44.757 -18.214   6.002  1.00  0.00     0.039 A 
HETATM   12  C   UNL     1      43.887 -17.180   6.346  1.00  0.00     0.095 A 
BRANCH   9  13
HETATM   13  C   UNL     1      43.717 -18.947   2.342  1.00  0.00    -0.024 C 
HETATM   14  C   UNL     1      44.552 -20.245   2.290  1.00  0.00     0.019 C 
HETATM   15  C   UNL     1      44.284 -17.935   1.322  1.00  0.00     0.019 C 
HETATM   16  C   UNL     1      42.286 -19.304   1.881  1.00  0.00     0.019 C 
ENDBRANCH   9  13
BRANCH  12  17
HETATM   17  O   UNL     1      43.862 -16.539   7.563  1.00  0.00    -0.354 OA
HETATM   18  C   UNL     1      43.428 -17.300   8.684  1.00  0.00     0.210 C 
ENDBRANCH  12  17
ENDBRANCH   1   7
BRANCH   3  19
HETATM   19  C   UNL     1      40.397 -13.354   5.505  1.00  0.00     0.146 C 
BRANCH  19  20
HETATM   20  C   UNL     1      39.688 -13.459   4.160  1.00  0.00     0.170 C 
BRANCH  20  21
HETATM   21  N   UNL     1      40.548 -14.025   3.140  1.00  0.00    -0.278 N 
HETATM   22  N   UNL     1      41.871 -13.766   3.158  1.00  0.00    -0.184 NA
HETATM   23  C   UNL     1      42.339 -14.464   2.116  1.00  0.00     0.164 A 
HETATM   24  C   UNL     1      41.321 -15.150   1.433  1.00  0.00     0.070 A 
HETATM   25 CL   UNL     1      41.501 -16.133   0.071  1.00  0.00    -0.081 Cl
HETATM   26  C   UNL     1      40.168 -14.846   2.116  1.00  0.00     0.137 A 
ENDBRANCH  20  21
ENDBRANCH  19  20
ENDBRANCH   3  19
TORSDOF 6
ENDMDL
MODEL 3
REMARK VINA RESULT:      -6.9      3.974      5.914
REMARK  6 active torsions:
REMARK  status: ('A' for Active; 'I' for Inactive)
REMARK    1  A    between atoms: C_2  and  C_3 
REMARK    2  A    between atoms: C_5  and  N_6 
REMARK       I    between atoms: N_6  and  C_7 
REMARK       I    between atoms: C_7  and  N_8 
REMARK    3  A    between atoms: N_8  and  C_9 
REMARK    4  A    between atoms: C_9  and  C_10 
REMARK    5  A    between atoms: C_10  and  N_11 
REMARK    6  A    between atoms: C_18  and  O_19 
ROOT
HETATM    1  N   UNL     1      42.320 -14.889   5.901  1.00  0.00    -0.306 N 
HETATM    2  C   UNL     1      41.005 -14.534   5.930  1.00  0.00     0.320 C 
HETATM    3  N   UNL     1      40.757 -13.235   6.276  1.00  0.00    -0.341 N 
HETATM    4  O   UNL     1      40.042 -15.259   5.700  1.00  0.00    -0.247 OA
HETATM    5  H   UNL     1      42.950 -14.349   6.482  1.00  0.00     0.171 HD
HETATM    6  H   UNL     1      39.759 -13.067   6.245  1.00  0.00     0.164 HD
ENDROOT
BRANCH   1   7
HETATM    7  C   UNL     1      42.879 -16.094   5.421  1.00  0.00     0.070 A 
HETATM    8  C   UNL     1      42.739 -16.518   4.094  1.00  0.00     0.040 A 
HETATM    9  C   UNL     1      43.341 -17.706   3.628  1.00  0.00    -0.048 A 
HETATM   10  C   UNL     1      44.084 -18.455   4.551  1.00  0.00     0.011 A 
HETATM   11  C   UNL     1      44.235 -18.038   5.881  1.00  0.00     0.039 A 
HETATM   12  C   UNL     1      43.641 -16.856   6.322  1.00  0.00     0.095 A 
BRANCH   9  13
HETATM   13  C   UNL     1      43.183 -18.116   2.152  1.00  0.00    -0.024 C 
HETATM   14  C   UNL     1      41.749 -17.786   1.681  1.00  0.00     0.019 C 
HETATM   15  C   UNL     1      43.434 -19.632   1.995  1.00  0.00     0.019 C 
HETATM   16  C   UNL     1      44.156 -17.392   1.197  1.00  0.00     0.019 C 
ENDBRANCH   9  13
BRANCH  12  17
HETATM   17  O   UNL     1      43.733 -16.353   7.599  1.00  0.00    -0.354 OA
HETATM   18  C   UNL     1      43.481 -17.257   8.668  1.00  0.00     0.210 C 
ENDBRANCH  12  17
ENDBRANCH   1   7
BRANCH   3  19
HETATM   19  C   UNL     1      41.613 -12.091   5.973  1.00  0.00     0.146 C 
BRANCH  19  20
HETATM   20  C   UNL     1      41.805 -11.185   7.183  1.00  0.00     0.170 C 
BRANCH  20  21
HETATM   21  N   UNL     1      42.949 -11.582   7.979  1.00  0.00    -0.278 N 
HETATM   22  N   UNL     1      43.711 -12.623   7.585  1.00  0.00    -0.184 NA
HETATM   23  C   UNL     1      44.669 -12.678   8.517  1.00  0.00     0.164 A 
HETATM   24  C   UNL     1      44.511 -11.688   9.502  1.00  0.00     0.070 A 
HETATM   25 CL   UNL     1      45.507 -11.428  10.843  1.00  0.00    -0.081 Cl
HETATM   26  C   UNL     1      43.386 -10.993   9.131  1.00  0.00     0.137 A 
ENDBRANCH  20  21
ENDBRANCH  19  20
ENDBRANCH   3  19
TORSDOF 6
ENDMDL
MODEL 4
REMARK VINA RESULT:      -6.9      2.698      4.143
REMARK  6 active torsions:
REMARK  status: ('A' for Active; 'I' for Inactive)
REMARK    1  A    between atoms: C_2  and  C_3 
REMARK    2  A    between atoms: C_5  and  N_6 
REMARK       I    between atoms: N_6  and  C_7 
REMARK       I    between atoms: C_7  and  N_8 
REMARK    3  A    between atoms: N_8  and  C_9 
REMARK    4  A    between atoms: C_9  and  C_10 
REMARK    5  A    between atoms: C_10  and  N_11 
REMARK    6  A    between atoms: C_18  and  O_19 
ROOT
HETATM    1  N   UNL     1      42.389 -14.942   3.437  1.00  0.00    -0.306 N 
HETATM    2  C   UNL     1      43.047 -13.767   3.649  1.00  0.00     0.320 C 
HETATM    3  N   UNL     1      42.255 -12.709   4.000  1.00  0.00    -0.341 N 
HETATM    4  O   UNL     1      44.253 -13.568   3.538  1.00  0.00    -0.247 OA
HETATM    5  H   UNL     1      41.415 -14.875   3.167  1.00  0.00     0.171 HD
HETATM    6  H   UNL     1      42.838 -11.895   4.157  1.00  0.00     0.164 HD
ENDROOT
BRANCH   1   7
HETATM    7  C   UNL     1      42.952 -16.221   3.234  1.00  0.00     0.070 A 
HETATM    8  C   UNL     1      43.432 -17.013   4.283  1.00  0.00     0.040 A 
HETATM    9  C   UNL     1      43.952 -18.305   4.060  1.00  0.00    -0.048 A 
HETATM   10  C   UNL     1      43.976 -18.768   2.737  1.00  0.00     0.011 A 
HETATM   11  C   UNL     1      43.494 -17.986   1.678  1.00  0.00     0.039 A 
HETATM   12  C   UNL     1      42.974 -16.715   1.919  1.00  0.00     0.095 A 
BRANCH   9  13
HETATM   13  C   UNL     1      44.443 -19.150   5.250  1.00  0.00    -0.024 C 
HETATM   14  C   UNL     1      45.466 -18.332   6.069  1.00  0.00     0.019 C 
HETATM   15  C   UNL     1      45.116 -20.442   4.740  1.00  0.00     0.019 C 
HETATM   16  C   UNL     1      43.317 -19.574   6.218  1.00  0.00     0.019 C 
ENDBRANCH   9  13
BRANCH  12  17
HETATM   17  O   UNL     1      42.469 -15.872   0.957  1.00  0.00    -0.354 OA
HETATM   18  C   UNL     1      41.543 -16.429   0.032  1.00  0.00     0.210 C 
ENDBRANCH  12  17
ENDBRANCH   1   7
BRANCH   3  19
HETATM   19  C   UNL     1      41.028 -12.784   4.786  1.00  0.00     0.146 C 
BRANCH  19  20
HETATM   20  C   UNL     1      39.837 -12.190   4.044  1.00  0.00     0.170 C 
BRANCH  20  21
HETATM   21  N   UNL     1      39.391 -13.049   2.964  1.00  0.00    -0.278 N 
HETATM   22  N   UNL     1      39.548 -14.385   3.062  1.00  0.00    -0.184 NA
HETATM   23  C   UNL     1      39.005 -14.846   1.929  1.00  0.00     0.164 A 
HETATM   24  C   UNL     1      38.518 -13.811   1.112  1.00  0.00     0.070 A 
HETATM   25 CL   UNL     1      37.768 -13.979  -0.393  1.00  0.00    -0.081 Cl
HETATM   26  C   UNL     1      38.784 -12.655   1.805  1.00  0.00     0.137 A 
ENDBRANCH  20  21
ENDBRANCH  19  20
ENDBRANCH   3  19
TORSDOF 6
ENDMDL
MODEL 5
REMARK VINA RESULT:      -6.8      2.206      2.603
REMARK  6 active torsions:
REMARK  status: ('A' for Active; 'I' for Inactive)
REMARK    1  A    between atoms: C_2  and  C_3 
REMARK    2  A    between atoms: C_5  and  N_6 
REMARK       I    between atoms: N_6  and  C_7 
REMARK       I    between atoms: C_7  and  N_8 
REMARK    3  A    between atoms: N_8  and  C_9 
REMARK    4  A    between atoms: C_9  and  C_10 
REMARK    5  A    between atoms: C_10  and  N_11 
REMARK    6  A    between atoms: C_18  and  O_19 
ROOT
HETATM    1  N   UNL     1      42.937 -18.170   2.106  1.00  0.00    -0.306 N 
HETATM    2  C   UNL     1      43.512 -17.303   1.227  1.00  0.00     0.320 C 
HETATM    3  N   UNL     1      42.692 -16.848   0.232  1.00  0.00    -0.341 N 
HETATM    4  O   UNL     1      44.677 -16.915   1.230  1.00  0.00    -0.247 OA
HETATM    5  H   UNL     1      42.142 -18.700   1.769  1.00  0.00     0.171 HD
HETATM    6  H   UNL     1      43.204 -16.196  -0.350  1.00  0.00     0.164 HD
ENDROOT
BRANCH   1   7
HETATM    7  C   UNL     1      43.480 -18.662   3.313  1.00  0.00     0.070 A 
HETATM    8  C   UNL     1      43.415 -17.954   4.518  1.00  0.00     0.040 A 
HETATM    9  C   UNL     1      43.930 -18.484   5.720  1.00  0.00    -0.048 A 
HETATM   10  C   UNL     1      44.518 -19.756   5.661  1.00  0.00     0.011 A 
HETATM   11  C   UNL     1      44.585 -20.477   4.460  1.00  0.00     0.039 A 
HETATM   12  C   UNL     1      44.062 -19.941   3.284  1.00  0.00     0.095 A 
BRANCH   9  13
HETATM   13  C   UNL     1      43.810 -17.679   7.027  1.00  0.00    -0.024 C 
HETATM   14  C   UNL     1      42.330 -17.306   7.263  1.00  0.00     0.019 C 
HETATM   15  C   UNL     1      44.651 -16.386   6.931  1.00  0.00     0.019 C 
HETATM   16  C   UNL     1      44.294 -18.445   8.277  1.00  0.00     0.019 C 
ENDBRANCH   9  13
BRANCH  12  17
HETATM   17  O   UNL     1      44.068 -20.566   2.059  1.00  0.00    -0.354 OA
HETATM   18  C   UNL     1      44.503 -21.920   2.027  1.00  0.00     0.210 C 
ENDBRANCH  12  17
ENDBRANCH   1   7
BRANCH   3  19
HETATM   19  C   UNL     1      41.255 -16.616   0.349  1.00  0.00     0.146 C 
BRANCH  19  20
HETATM   20  C   UNL     1      40.940 -15.416   1.234  1.00  0.00     0.170 C 
BRANCH  20  21
HETATM   21  N   UNL     1      39.735 -14.733   0.808  1.00  0.00    -0.278 N 
HETATM   22  N   UNL     1      38.605 -14.850   1.536  1.00  0.00    -0.184 NA
HETATM   23  C   UNL     1      37.731 -14.077   0.880  1.00  0.00     0.164 A 
HETATM   24  C   UNL     1      38.296 -13.484  -0.262  1.00  0.00     0.070 A 
HETATM   25 CL   UNL     1      37.524 -12.449  -1.351  1.00  0.00    -0.081 Cl
HETATM   26  C   UNL     1      39.596 -13.928  -0.287  1.00  0.00     0.137 A 
ENDBRANCH  20  21
ENDBRANCH  19  20
ENDBRANCH   3  19
TORSDOF 6
ENDMDL
MODEL 6
REMARK VINA RESULT:      -6.7      4.116      5.834
REMARK  6 active torsions:
REMARK  status: ('A' for Active; 'I' for Inactive)
REMARK    1  A    between atoms: C_2  and  C_3 
REMARK    2  A    between atoms: C_5  and  N_6 
REMARK       I    between atoms: N_6  and  C_7 
REMARK       I    between atoms: C_7  and  N_8 
REMARK    3  A    between atoms: N_8  and  C_9 
REMARK    4  A    between atoms: C_9  and  C_10 
REMARK    5  A    between atoms: C_10  and  N_11 
REMARK    6  A    between atoms: C_18  and  O_19 
ROOT
HETATM    1  N   UNL     1      42.513 -14.949   5.689  1.00  0.00    -0.306 N 
HETATM    2  C   UNL     1      41.212 -14.623   5.931  1.00  0.00     0.320 C 
HETATM    3  N   UNL     1      40.980 -13.301   6.190  1.00  0.00    -0.341 N 
HETATM    4  O   UNL     1      40.254 -15.390   5.958  1.00  0.00    -0.247 OA
HETATM    5  H   UNL     1      43.217 -14.338   6.086  1.00  0.00     0.171 HD
HETATM    6  H   UNL     1      39.986 -13.160   6.332  1.00  0.00     0.164 HD
ENDROOT
BRANCH   1   7
HETATM    7  C   UNL     1      43.022 -16.184   5.231  1.00  0.00     0.070 A 
HETATM    8  C   UNL     1      42.831 -16.645   3.923  1.00  0.00     0.040 A 
HETATM    9  C   UNL     1      43.384 -17.863   3.477  1.00  0.00    -0.048 A 
HETATM   10  C   UNL     1      44.134 -18.605   4.401  1.00  0.00     0.011 A 
HETATM   11  C   UNL     1      44.336 -18.152   5.712  1.00  0.00     0.039 A 
HETATM   12  C   UNL     1      43.790 -16.940   6.133  1.00  0.00     0.095 A 
BRANCH   9  13
HETATM   13  C   UNL     1      43.169 -18.315   2.020  1.00  0.00    -0.024 C 
HETATM   14  C   UNL     1      43.455 -19.828   1.907  1.00  0.00     0.019 C 
HETATM   15  C   UNL     1      44.125 -17.545   1.082  1.00  0.00     0.019 C 
HETATM   16  C   UNL     1      41.734 -18.080   1.501  1.00  0.00     0.019 C 
ENDBRANCH   9  13
BRANCH  12  17
HETATM   17  O   UNL     1      43.934 -16.401   7.390  1.00  0.00    -0.354 OA
HETATM   18  C   UNL     1      43.427 -17.161   8.480  1.00  0.00     0.210 C 
ENDBRANCH  12  17
ENDBRANCH   1   7
BRANCH   3  19
HETATM   19  C   UNL     1      41.715 -12.176   5.621  1.00  0.00     0.146 C 
BRANCH  19  20
HETATM   20  C   UNL     1      41.128 -10.835   6.048  1.00  0.00     0.170 C 
BRANCH  20  21
HETATM   21  N   UNL     1      40.574 -10.891   7.386  1.00  0.00    -0.278 N 
HETATM   22  N   UNL     1      39.292 -11.270   7.566  1.00  0.00    -0.184 NA
HETATM   23  C   UNL     1      39.141 -11.238   8.895  1.00  0.00     0.164 A 
HETATM   24  C   UNL     1      40.313 -10.830   9.554  1.00  0.00     0.070 A 
HETATM   25 CL   UNL     1      40.529 -10.660  11.222  1.00  0.00    -0.081 Cl
HETATM   26  C   UNL     1      41.226 -10.608   8.552  1.00  0.00     0.137 A 
ENDBRANCH  20  21
ENDBRANCH  19  20
ENDBRANCH   3  19
TORSDOF 6
ENDMDL
MODEL 7
REMARK VINA RESULT:      -6.7      6.709      8.844
REMARK  6 active torsions:
REMARK  status: ('A' for Active; 'I' for Inactive)
REMARK    1  A    between atoms: C_2  and  C_3 
REMARK    2  A    between atoms: C_5  and  N_6 
REMARK       I    between atoms: N_6  and  C_7 
REMARK       I    between atoms: C_7  and  N_8 
REMARK    3  A    between atoms: N_8  and  C_9 
REMARK    4  A    between atoms: C_9  and  C_10 
REMARK    5  A    between atoms: C_10  and  N_11 
REMARK    6  A    between atoms: C_18  and  O_19 
ROOT
HETATM    1  N   UNL     1      42.030 -11.246   8.221  1.00  0.00    -0.306 N 
HETATM    2  C   UNL     1      41.608 -10.402   7.238  1.00  0.00     0.320 C 
HETATM    3  N   UNL     1      40.732 -10.944   6.339  1.00  0.00    -0.341 N 
HETATM    4  O   UNL     1      41.946  -9.234   7.076  1.00  0.00    -0.247 OA
HETATM    5  H   UNL     1      42.006 -12.236   8.012  1.00  0.00     0.171 HD
HETATM    6  H   UNL     1      40.462 -10.234   5.668  1.00  0.00     0.164 HD
ENDROOT
BRANCH   1   7
HETATM    7  C   UNL     1      42.788 -10.923   9.368  1.00  0.00     0.070 A 
HETATM    8  C   UNL     1      42.290 -10.127  10.407  1.00  0.00     0.040 A 
HETATM    9  C   UNL     1      43.052  -9.852  11.562  1.00  0.00    -0.048 A 
HETATM   10  C   UNL     1      44.339 -10.405  11.629  1.00  0.00     0.011 A 
HETATM   11  C   UNL     1      44.847 -11.208  10.598  1.00  0.00     0.039 A 
HETATM   12  C   UNL     1      44.076 -11.477   9.468  1.00  0.00     0.095 A 
BRANCH   9  13
HETATM   13  C   UNL     1      42.451  -8.995  12.690  1.00  0.00    -0.024 C 
HETATM   14  C   UNL     1      43.246  -9.234  13.992  1.00  0.00     0.019 C 
HETATM   15  C   UNL     1      40.973  -9.381  12.918  1.00  0.00     0.019 C 
HETATM   16  C   UNL     1      42.486  -7.477  12.405  1.00  0.00     0.019 C 
ENDBRANCH   9  13
BRANCH  12  17
HETATM   17  O   UNL     1      44.473 -12.256   8.406  1.00  0.00    -0.354 OA
HETATM   18  C   UNL     1      45.854 -12.586   8.330  1.00  0.00     0.210 C 
ENDBRANCH  12  17
ENDBRANCH   1   7
BRANCH   3  19
HETATM   19  C   UNL     1      39.734 -11.969   6.629  1.00  0.00     0.146 C 
BRANCH  19  20
HETATM   20  C   UNL     1      39.719 -13.067   5.572  1.00  0.00     0.170 C 
BRANCH  20  21
HETATM   21  N   UNL     1      40.815 -14.000   5.748  1.00  0.00    -0.278 N 
HETATM   22  N   UNL     1      42.085 -13.546   5.773  1.00  0.00    -0.184 NA
HETATM   23  C   UNL     1      42.807 -14.653   5.981  1.00  0.00     0.164 A 
HETATM   24  C   UNL     1      42.005 -15.803   6.076  1.00  0.00     0.070 A 
HETATM   25 CL   UNL     1      42.534 -17.387   6.333  1.00  0.00    -0.081 Cl
HETATM   26  C   UNL     1      40.717 -15.352   5.918  1.00  0.00     0.137 A 
ENDBRANCH  20  21
ENDBRANCH  19  20
ENDBRANCH   3  19
TORSDOF 6
ENDMDL
MODEL 8
REMARK VINA RESULT:      -6.7      2.769      4.812
REMARK  6 active torsions:
REMARK  status: ('A' for Active; 'I' for Inactive)
REMARK    1  A    between atoms: C_2  and  C_3 
REMARK    2  A    between atoms: C_5  and  N_6 
REMARK       I    between atoms: N_6  and  C_7 
REMARK       I    between atoms: C_7  and  N_8 
REMARK    3  A    between atoms: N_8  and  C_9 
REMARK    4  A    between atoms: C_9  and  C_10 
REMARK    5  A    between atoms: C_10  and  N_11 
REMARK    6  A    between atoms: C_18  and  O_19 
ROOT
HETATM    1  N   UNL     1      42.058 -14.957   3.081  1.00  0.00    -0.306 N 
HETATM    2  C   UNL     1      40.714 -14.911   2.858  1.00  0.00     0.320 C 
HETATM    3  N   UNL     1      40.336 -14.988   1.546  1.00  0.00    -0.341 N 
HETATM    4  O   UNL     1      39.832 -14.790   3.702  1.00  0.00    -0.247 OA
HETATM    5  H   UNL     1      42.656 -14.654   2.321  1.00  0.00     0.171 HD
HETATM    6  H   UNL     1      39.325 -14.969   1.490  1.00  0.00     0.164 HD
ENDROOT
BRANCH   1   7
HETATM    7  C   UNL     1      42.723 -15.069   4.321  1.00  0.00     0.070 A 
HETATM    8  C   UNL     1      43.004 -16.302   4.922  1.00  0.00     0.040 A 
HETATM    9  C   UNL     1      43.706 -16.390   6.143  1.00  0.00    -0.048 A 
HETATM   10  C   UNL     1      44.111 -15.187   6.739  1.00  0.00     0.011 A 
HETATM   11  C   UNL     1      43.841 -13.947   6.144  1.00  0.00     0.039 A 
HETATM   12  C   UNL     1      43.154 -13.879   4.932  1.00  0.00     0.095 A 
BRANCH   9  13
HETATM   13  C   UNL     1      44.015 -17.770   6.751  1.00  0.00    -0.024 C 
HETATM   14  C   UNL     1      43.685 -17.749   8.260  1.00  0.00     0.019 C 
HETATM   15  C   UNL     1      45.511 -18.108   6.562  1.00  0.00     0.019 C 
HETATM   16  C   UNL     1      43.204 -18.924   6.121  1.00  0.00     0.019 C 
ENDBRANCH   9  13
BRANCH  12  17
HETATM   17  O   UNL     1      42.845 -12.719   4.261  1.00  0.00    -0.354 OA
HETATM   18  C   UNL     1      41.797 -11.922   4.799  1.00  0.00     0.210 C 
ENDBRANCH  12  17
ENDBRANCH   1   7
BRANCH   3  19
HETATM   19  C   UNL     1      41.026 -15.737   0.500  1.00  0.00     0.146 C 
BRANCH  19  20
HETATM   20  C   UNL     1      41.005 -17.238   0.765  1.00  0.00     0.170 C 
BRANCH  20  21
HETATM   21  N   UNL     1      42.278 -17.715   1.269  1.00  0.00    -0.278 N 
HETATM   22  N   UNL     1      43.394 -16.982   1.073  1.00  0.00    -0.184 NA
HETATM   23  C   UNL     1      44.346 -17.695   1.687  1.00  0.00     0.164 A 
HETATM   24  C   UNL     1      43.842 -18.876   2.258  1.00  0.00     0.070 A 
HETATM   25 CL   UNL     1      44.720 -20.040   3.113  1.00  0.00    -0.081 Cl
HETATM   26  C   UNL     1      42.500 -18.867   1.969  1.00  0.00     0.137 A 
ENDBRANCH  20  21
ENDBRANCH  19  20
ENDBRANCH   3  19
TORSDOF 6
ENDMDL
MODEL 9
REMARK VINA RESULT:      -6.6      3.557      5.286
REMARK  6 active torsions:
REMARK  status: ('A' for Active; 'I' for Inactive)
REMARK    1  A    between atoms: C_2  and  C_3 
REMARK    2  A    between atoms: C_5  and  N_6 
REMARK       I    between atoms: N_6  and  C_7 
REMARK       I    between atoms: C_7  and  N_8 
REMARK    3  A    between atoms: N_8  and  C_9 
REMARK    4  A    between atoms: C_9  and  C_10 
REMARK    5  A    between atoms: C_10  and  N_11 
REMARK    6  A    between atoms: C_18  and  O_19 
ROOT
HETATM    1  N   UNL     1      41.327 -15.820   2.737  1.00  0.00    -0.306 N 
HETATM    2  C   UNL     1      40.715 -16.458   1.700  1.00  0.00     0.320 C 
HETATM    3  N   UNL     1      40.697 -15.771   0.518  1.00  0.00    -0.341 N 
HETATM    4  O   UNL     1      40.172 -17.558   1.731  1.00  0.00    -0.247 OA
HETATM    5  H   UNL     1      41.359 -14.808   2.692  1.00  0.00     0.171 HD
HETATM    6  H   UNL     1      40.245 -16.337  -0.189  1.00  0.00     0.164 HD
ENDROOT
BRANCH   1   7
HETATM    7  C   UNL     1      41.643 -16.346   4.008  1.00  0.00     0.070 A 
HETATM    8  C   UNL     1      42.646 -17.302   4.205  1.00  0.00     0.040 A 
HETATM    9  C   UNL     1      42.972 -17.783   5.490  1.00  0.00    -0.048 A 
HETATM   10  C   UNL     1      42.243 -17.267   6.572  1.00  0.00     0.011 A 
HETATM   11  C   UNL     1      41.239 -16.306   6.388  1.00  0.00     0.039 A 
HETATM   12  C   UNL     1      40.938 -15.835   5.111  1.00  0.00     0.095 A 
BRANCH   9  13
HETATM   13  C   UNL     1      44.102 -18.813   5.660  1.00  0.00    -0.024 C 
HETATM   14  C   UNL     1      43.643 -19.920   6.635  1.00  0.00     0.019 C 
HETATM   15  C   UNL     1      45.364 -18.127   6.227  1.00  0.00     0.019 C 
HETATM   16  C   UNL     1      44.515 -19.507   4.342  1.00  0.00     0.019 C 
ENDBRANCH   9  13
BRANCH  12  17
HETATM   17  O   UNL     1      39.981 -14.891   4.822  1.00  0.00    -0.354 OA
HETATM   18  C   UNL     1      39.946 -13.734   5.649  1.00  0.00     0.210 C 
ENDBRANCH  12  17
ENDBRANCH   1   7
BRANCH   3  19
HETATM   19  C   UNL     1      41.733 -14.857   0.046  1.00  0.00     0.146 C 
BRANCH  19  20
HETATM   20  C   UNL     1      41.175 -13.807  -0.909  1.00  0.00     0.170 C 
BRANCH  20  21
HETATM   21  N   UNL     1      40.354 -14.402  -1.945  1.00  0.00    -0.278 N 
HETATM   22  N   UNL     1      40.831 -15.437  -2.667  1.00  0.00    -0.184 NA
HETATM   23  C   UNL     1      39.815 -15.741  -3.483  1.00  0.00     0.164 A 
HETATM   24  C   UNL     1      38.707 -14.898  -3.291  1.00  0.00     0.070 A 
HETATM   25 CL   UNL     1      37.237 -14.956  -4.123  1.00  0.00    -0.081 Cl
HETATM   26  C   UNL     1      39.084 -14.037  -2.290  1.00  0.00     0.137 A 
ENDBRANCH  20  21
ENDBRANCH  19  20
ENDBRANCH   3  19
TORSDOF 6
ENDMDL
MODEL 10
REMARK VINA RESULT:      -6.5      2.776      4.159
REMARK  6 active torsions:
REMARK  status: ('A' for Active; 'I' for Inactive)
REMARK    1  A    between atoms: C_2  and  C_3 
REMARK    2  A    between atoms: C_5  and  N_6 
REMARK       I    between atoms: N_6  and  C_7 
REMARK       I    between atoms: C_7  and  N_8 
REMARK    3  A    between atoms: N_8  and  C_9 
REMARK    4  A    between atoms: C_9  and  C_10 
REMARK    5  A    between atoms: C_10  and  N_11 
REMARK    6  A    between atoms: C_18  and  O_19 
ROOT
HETATM    1  N   UNL     1      42.519 -14.785   3.134  1.00  0.00    -0.306 N 
HETATM    2  C   UNL     1      43.167 -13.629   3.452  1.00  0.00     0.320 C 
HETATM    3  N   UNL     1      42.417 -12.491   3.349  1.00  0.00    -0.341 N 
HETATM    4  O   UNL     1      44.340 -13.513   3.794  1.00  0.00    -0.247 OA
HETATM    5  H   UNL     1      41.730 -14.705   2.503  1.00  0.00     0.171 HD
HETATM    6  H   UNL     1      42.979 -11.695   3.628  1.00  0.00     0.164 HD
ENDROOT
BRANCH   1   7
HETATM    7  C   UNL     1      42.979 -16.108   3.307  1.00  0.00     0.070 A 
HETATM    8  C   UNL     1      43.297 -16.642   4.562  1.00  0.00     0.040 A 
HETATM    9  C   UNL     1      43.716 -17.980   4.714  1.00  0.00    -0.048 A 
HETATM   10  C   UNL     1      43.810 -18.761   3.553  1.00  0.00     0.011 A 
HETATM   11  C   UNL     1      43.490 -18.239   2.292  1.00  0.00     0.039 A 
HETATM   12  C   UNL     1      43.068 -16.916   2.161  1.00  0.00     0.095 A 
BRANCH   9  13
HETATM   13  C   UNL     1      44.027 -18.530   6.118  1.00  0.00    -0.024 C 
HETATM   14  C   UNL     1      45.430 -18.052   6.555  1.00  0.00     0.019 C 
HETATM   15  C   UNL     1      43.999 -20.074   6.100  1.00  0.00     0.019 C 
HETATM   16  C   UNL     1      43.028 -18.070   7.203  1.00  0.00     0.019 C 
ENDBRANCH   9  13
BRANCH  12  17
HETATM   17  O   UNL     1      42.723 -16.309   0.976  1.00  0.00    -0.354 OA
HETATM   18  C   UNL     1      41.533 -16.762   0.342  1.00  0.00     0.210 C 
ENDBRANCH  12  17
ENDBRANCH   1   7
BRANCH   3  19
HETATM   19  C   UNL     1      40.983 -12.386   3.603  1.00  0.00     0.146 C 
BRANCH  19  20
HETATM   20  C   UNL     1      40.215 -11.941   2.365  1.00  0.00     0.170 C 
BRANCH  20  21
HETATM   21  N   UNL     1      41.033 -12.006   1.170  1.00  0.00    -0.278 N 
HETATM   22  N   UNL     1      41.228 -13.190   0.554  1.00  0.00    -0.184 NA
HETATM   23  C   UNL     1      41.983 -12.871  -0.503  1.00  0.00     0.164 A 
HETATM   24  C   UNL     1      42.276 -11.497  -0.553  1.00  0.00     0.070 A 
HETATM   25 CL   UNL     1      43.199 -10.702  -1.724  1.00  0.00    -0.081 Cl
HETATM   26  C   UNL     1      41.651 -10.960   0.546  1.00  0.00     0.137 A 
ENDBRANCH  20  21
ENDBRANCH  19  20
ENDBRANCH   3  19
TORSDOF 6
ENDMDL
