MODEL 1
REMARK VINA RESULT:      -8.7      0.000      0.000
REMARK  8 active torsions:
REMARK  status: ('A' for Active; 'I' for Inactive)
REMARK    1  A    between atoms: C_2  and  C_3 
REMARK    2  A    between atoms: C_3  and  C_4 
REMARK    3  A    between atoms: C_4  and  N_5 
REMARK       I    between atoms: N_5  and  C_6 
REMARK    4  A    between atoms: C_6  and  C_7 
REMARK    5  A    between atoms: C_14  and  S_15 
REMARK    6  A    between atoms: S_15  and  N_16 
REMARK    7  A    between atoms: N_16  and  C_17 
REMARK    8  A    between atoms: C_19  and  O_20 
ROOT
HETATM    1  C   UNL     1      41.531 -16.966   3.037  1.00  0.00     0.098 A 
HETATM    2  C   UNL     1      41.784 -16.867   1.571  1.00  0.00     0.201 A 
HETATM    3  O   UNL     1      42.608 -17.581   1.004  1.00  0.00    -0.286 OA
HETATM    4  C   UNL     1      41.016 -15.858   0.792  1.00  0.00     0.043 A 
HETATM    5  C   UNL     1      40.094 -15.037   1.465  1.00  0.00     0.046 A 
HETATM    6  N   UNL     1      39.931 -15.169   2.848  1.00  0.00    -0.364 N 
HETATM    7  C   UNL     1      41.222 -15.730  -0.585  1.00  0.00     0.043 A 
HETATM    8  C   UNL     1      40.516 -14.751  -1.288  1.00  0.00     0.081 A 
HETATM    9  C   UNL     1      39.595 -13.925  -0.636  1.00  0.00     0.027 A 
HETATM   10  C   UNL     1      39.393 -14.067   0.742  1.00  0.00     0.032 A 
HETATM   11  C   UNL     1      40.624 -16.119   3.553  1.00  0.00     0.109 A 
HETATM   12  H   UNL     1      39.202 -14.646   3.321  1.00  0.00     0.165 HD
ENDROOT
BRANCH   8  13
HETATM   13  S   UNL     1      40.775 -14.600  -3.043  1.00  0.00     0.263 S 
HETATM   14  O   UNL     1      40.855 -15.943  -3.575  1.00  0.00    -0.200 OA
HETATM   15  O   UNL     1      39.820 -13.642  -3.557  1.00  0.00    -0.200 OA
BRANCH  13  16
HETATM   16  N   UNL     1      42.333 -13.954  -3.133  1.00  0.00    -0.281 N 
HETATM   17  H   UNL     1      43.034 -14.577  -2.736  1.00  0.00     0.179 HD
BRANCH  16  18
HETATM   18  C   UNL     1      42.508 -12.555  -2.940  1.00  0.00     0.045 A 
HETATM   19  C   UNL     1      42.899 -12.075  -1.687  1.00  0.00     0.066 A 
HETATM   20  C   UNL     1      43.085 -10.707  -1.492  1.00  0.00     0.070 A 
HETATM   21  C   UNL     1      42.914  -9.833  -2.570  1.00  0.00     0.037 A 
HETATM   22  C   UNL     1      42.537 -10.315  -3.824  1.00  0.00     0.005 A 
HETATM   23  C   UNL     1      42.329 -11.680  -4.011  1.00  0.00     0.030 A 
BRANCH  20  24
HETATM   24  O   UNL     1      43.439 -10.105  -0.316  1.00  0.00    -0.356 OA
HETATM   25  C   UNL     1      43.552  -8.685  -0.333  1.00  0.00     0.210 C 
ENDBRANCH  20  24
ENDBRANCH  16  18
ENDBRANCH  13  16
ENDBRANCH   8  13
BRANCH   1  26
HETATM   26  C   UNL     1      42.225 -17.916   3.955  1.00  0.00     0.257 C 
HETATM   27  N   UNL     1      43.484 -18.294   3.565  1.00  0.00    -0.357 N 
HETATM   28  H   UNL     1      43.845 -17.940   2.679  1.00  0.00     0.162 HD
HETATM   29  O   UNL     1      41.696 -18.310   4.991  1.00  0.00    -0.267 OA
BRANCH  27  30
HETATM   30  C   UNL     1      44.324 -19.165   4.357  1.00  0.00     0.123 C 
BRANCH  30  31
HETATM   31  C   UNL     1      44.727 -20.424   3.594  1.00  0.00     0.019 C 
BRANCH  31  32
HETATM   32  C   UNL     1      44.001 -20.509   2.252  1.00  0.00    -0.003 C 
HETATM   33  C   UNL     1      44.082 -21.905   1.657  1.00  0.00     0.005 C 
ENDBRANCH  31  32
ENDBRANCH  30  31
ENDBRANCH  27  30
ENDBRANCH   1  26
TORSDOF 8
ENDMDL
MODEL 2
REMARK VINA RESULT:      -8.1      2.614      4.586
REMARK  8 active torsions:
REMARK  status: ('A' for Active; 'I' for Inactive)
REMARK    1  A    between atoms: C_2  and  C_3 
REMARK    2  A    between atoms: C_3  and  C_4 
REMARK    3  A    between atoms: C_4  and  N_5 
REMARK       I    between atoms: N_5  and  C_6 
REMARK    4  A    between atoms: C_6  and  C_7 
REMARK    5  A    between atoms: C_14  and  S_15 
REMARK    6  A    between atoms: S_15  and  N_16 
REMARK    7  A    between atoms: N_16  and  C_17 
REMARK    8  A    between atoms: C_19  and  O_20 
ROOT
HETATM    1  C   UNL     1      43.829 -18.321   5.590  1.00  0.00     0.098 A 
HETATM    2  C   UNL     1      43.251 -17.762   4.335  1.00  0.00     0.201 A 
HETATM    3  O   UNL     1      42.892 -18.484   3.407  1.00  0.00    -0.286 OA
HETATM    4  C   UNL     1      43.127 -16.284   4.217  1.00  0.00     0.043 A 
HETATM    5  C   UNL     1      43.564 -15.477   5.282  1.00  0.00     0.046 A 
HETATM    6  N   UNL     1      44.122 -16.073   6.417  1.00  0.00    -0.364 N 
HETATM    7  C   UNL     1      42.590 -15.717   3.056  1.00  0.00     0.043 A 
HETATM    8  C   UNL     1      42.517 -14.325   2.954  1.00  0.00     0.081 A 
HETATM    9  C   UNL     1      42.947 -13.506   4.003  1.00  0.00     0.027 A 
HETATM   10  C   UNL     1      43.476 -14.086   5.162  1.00  0.00     0.032 A 
HETATM   11  C   UNL     1      44.209 -17.437   6.528  1.00  0.00     0.109 A 
HETATM   12  H   UNL     1      44.351 -15.503   7.224  1.00  0.00     0.165 HD
ENDROOT
BRANCH   8  13
HETATM   13  S   UNL     1      41.824 -13.608   1.480  1.00  0.00     0.263 S 
HETATM   14  O   UNL     1      40.385 -13.668   1.617  1.00  0.00    -0.200 OA
HETATM   15  O   UNL     1      42.505 -12.357   1.225  1.00  0.00    -0.200 OA
BRANCH  13  16
HETATM   16  N   UNL     1      42.240 -14.734   0.290  1.00  0.00    -0.281 N 
HETATM   17  H   UNL     1      43.194 -15.074   0.395  1.00  0.00     0.179 HD
BRANCH  16  18
HETATM   18  C   UNL     1      41.746 -14.549  -1.032  1.00  0.00     0.045 A 
HETATM   19  C   UNL     1      40.978 -15.552  -1.628  1.00  0.00     0.066 A 
HETATM   20  C   UNL     1      40.480 -15.375  -2.919  1.00  0.00     0.070 A 
HETATM   21  C   UNL     1      40.726 -14.173  -3.587  1.00  0.00     0.037 A 
HETATM   22  C   UNL     1      41.481 -13.165  -2.985  1.00  0.00     0.005 A 
HETATM   23  C   UNL     1      41.998 -13.354  -1.705  1.00  0.00     0.030 A 
BRANCH  20  24
HETATM   24  O   UNL     1      39.742 -16.284  -3.625  1.00  0.00    -0.356 OA
HETATM   25  C   UNL     1      38.476 -15.843  -4.106  1.00  0.00     0.210 C 
ENDBRANCH  20  24
ENDBRANCH  16  18
ENDBRANCH  13  16
ENDBRANCH   8  13
BRANCH   1  26
HETATM   26  C   UNL     1      44.030 -19.776   5.857  1.00  0.00     0.257 C 
HETATM   27  N   UNL     1      44.647 -20.477   4.853  1.00  0.00    -0.357 N 
HETATM   28  H   UNL     1      44.892 -19.982   3.994  1.00  0.00     0.162 HD
HETATM   29  O   UNL     1      43.675 -20.290   6.914  1.00  0.00    -0.267 OA
BRANCH  27  30
HETATM   30  C   UNL     1      44.971 -21.882   4.958  1.00  0.00     0.123 C 
BRANCH  30  31
HETATM   31  C   UNL     1      44.624 -22.649   3.685  1.00  0.00     0.019 C 
BRANCH  31  32
HETATM   32  C   UNL     1      44.756 -21.756   2.452  1.00  0.00    -0.003 C 
HETATM   33  C   UNL     1      43.460 -21.695   1.661  1.00  0.00     0.005 C 
ENDBRANCH  31  32
ENDBRANCH  30  31
ENDBRANCH  27  30
ENDBRANCH   1  26
TORSDOF 8
ENDMDL
MODEL 3
REMARK VINA RESULT:      -8.0      0.997      1.613
REMARK  8 active torsions:
REMARK  status: ('A' for Active; 'I' for Inactive)
REMARK    1  A    between atoms: C_2  and  C_3 
REMARK    2  A    between atoms: C_3  and  C_4 
REMARK    3  A    between atoms: C_4  and  N_5 
REMARK       I    between atoms: N_5  and  C_6 
REMARK    4  A    between atoms: C_6  and  C_7 
REMARK    5  A    between atoms: C_14  and  S_15 
REMARK    6  A    between atoms: S_15  and  N_16 
REMARK    7  A    between atoms: N_16  and  C_17 
REMARK    8  A    between atoms: C_19  and  O_20 
ROOT
HETATM    1  C   UNL     1      41.581 -16.995   3.016  1.00  0.00     0.098 A 
HETATM    2  C   UNL     1      41.836 -16.856   1.554  1.00  0.00     0.201 A 
HETATM    3  O   UNL     1      42.670 -17.545   0.971  1.00  0.00    -0.286 OA
HETATM    4  C   UNL     1      41.056 -15.837   0.799  1.00  0.00     0.043 A 
HETATM    5  C   UNL     1      40.123 -15.044   1.490  1.00  0.00     0.046 A 
HETATM    6  N   UNL     1      39.959 -15.214   2.869  1.00  0.00    -0.364 N 
HETATM    7  C   UNL     1      41.264 -15.672  -0.574  1.00  0.00     0.043 A 
HETATM    8  C   UNL     1      40.547 -14.684  -1.254  1.00  0.00     0.081 A 
HETATM    9  C   UNL     1      39.614 -13.887  -0.583  1.00  0.00     0.027 A 
HETATM   10  C   UNL     1      39.411 -14.066   0.790  1.00  0.00     0.032 A 
HETATM   11  C   UNL     1      40.663 -16.173   3.552  1.00  0.00     0.109 A 
HETATM   12  H   UNL     1      39.222 -14.712   3.354  1.00  0.00     0.165 HD
ENDROOT
BRANCH   8  13
HETATM   13  S   UNL     1      40.807 -14.486  -3.003  1.00  0.00     0.263 S 
HETATM   14  O   UNL     1      40.860 -15.813  -3.576  1.00  0.00    -0.200 OA
HETATM   15  O   UNL     1      39.871 -13.494  -3.487  1.00  0.00    -0.200 OA
BRANCH  13  16
HETATM   16  N   UNL     1      42.378 -13.868  -3.076  1.00  0.00    -0.281 N 
HETATM   17  H   UNL     1      43.064 -14.507  -2.679  1.00  0.00     0.179 HD
BRANCH  16  18
HETATM   18  C   UNL     1      42.578 -12.474  -2.871  1.00  0.00     0.045 A 
HETATM   19  C   UNL     1      42.408 -11.588  -3.938  1.00  0.00     0.066 A 
HETATM   20  C   UNL     1      42.590 -10.219  -3.743  1.00  0.00     0.070 A 
HETATM   21  C   UNL     1      42.903  -9.746  -2.466  1.00  0.00     0.037 A 
HETATM   22  C   UNL     1      43.059 -10.631  -1.398  1.00  0.00     0.005 A 
HETATM   23  C   UNL     1      42.900 -12.000  -1.600  1.00  0.00     0.030 A 
BRANCH  20  24
HETATM   24  O   UNL     1      42.482  -9.251  -4.703  1.00  0.00    -0.356 OA
HETATM   25  C   UNL     1      41.174  -8.992  -5.204  1.00  0.00     0.210 C 
ENDBRANCH  20  24
ENDBRANCH  16  18
ENDBRANCH  13  16
ENDBRANCH   8  13
BRANCH   1  26
HETATM   26  C   UNL     1      42.285 -17.958   3.912  1.00  0.00     0.257 C 
HETATM   27  N   UNL     1      43.196 -18.775   3.294  1.00  0.00    -0.357 N 
HETATM   28  H   UNL     1      43.309 -18.700   2.282  1.00  0.00     0.162 HD
HETATM   29  O   UNL     1      42.062 -17.994   5.119  1.00  0.00    -0.267 OA
BRANCH  27  30
HETATM   30  C   UNL     1      44.009 -19.732   4.011  1.00  0.00     0.123 C 
BRANCH  30  31
HETATM   31  C   UNL     1      45.014 -20.431   3.099  1.00  0.00     0.019 C 
BRANCH  31  32
HETATM   32  C   UNL     1      44.514 -21.816   2.690  1.00  0.00    -0.003 C 
HETATM   33  C   UNL     1      43.581 -21.745   1.492  1.00  0.00     0.005 C 
ENDBRANCH  31  32
ENDBRANCH  30  31
ENDBRANCH  27  30
ENDBRANCH   1  26
TORSDOF 8
ENDMDL
MODEL 4
REMARK VINA RESULT:      -7.9      3.249      5.011
REMARK  8 active torsions:
REMARK  status: ('A' for Active; 'I' for Inactive)
REMARK    1  A    between atoms: C_2  and  C_3 
REMARK    2  A    between atoms: C_3  and  C_4 
REMARK    3  A    between atoms: C_4  and  N_5 
REMARK       I    between atoms: N_5  and  C_6 
REMARK    4  A    between atoms: C_6  and  C_7 
REMARK    5  A    between atoms: C_14  and  S_15 
REMARK    6  A    between atoms: S_15  and  N_16 
REMARK    7  A    between atoms: N_16  and  C_17 
REMARK    8  A    between atoms: C_19  and  O_20 
ROOT
HETATM    1  C   UNL     1      43.872 -18.499   5.980  1.00  0.00     0.098 A 
HETATM    2  C   UNL     1      43.151 -17.848   4.849  1.00  0.00     0.201 A 
HETATM    3  O   UNL     1      42.640 -18.500   3.942  1.00  0.00    -0.286 OA
HETATM    4  C   UNL     1      43.073 -16.361   4.830  1.00  0.00     0.043 A 
HETATM    5  C   UNL     1      43.685 -15.634   5.866  1.00  0.00     0.046 A 
HETATM    6  N   UNL     1      44.367 -16.315   6.879  1.00  0.00    -0.364 N 
HETATM    7  C   UNL     1      42.407 -15.709   3.787  1.00  0.00     0.043 A 
HETATM    8  C   UNL     1      42.379 -14.312   3.772  1.00  0.00     0.081 A 
HETATM    9  C   UNL     1      42.981 -13.572   4.794  1.00  0.00     0.027 A 
HETATM   10  C   UNL     1      43.639 -14.237   5.835  1.00  0.00     0.032 A 
HETATM   11  C   UNL     1      44.412 -17.686   6.903  1.00  0.00     0.109 A 
HETATM   12  H   UNL     1      44.727 -15.802   7.676  1.00  0.00     0.165 HD
ENDROOT
BRANCH   8  13
HETATM   13  S   UNL     1      41.521 -13.486   2.448  1.00  0.00     0.263 S 
HETATM   14  O   UNL     1      40.556 -12.599   3.060  1.00  0.00    -0.200 OA
HETATM   15  O   UNL     1      42.508 -12.994   1.511  1.00  0.00    -0.200 OA
BRANCH  13  16
HETATM   16  N   UNL     1      40.639 -14.740   1.739  1.00  0.00    -0.281 N 
HETATM   17  H   UNL     1      40.866 -15.648   2.140  1.00  0.00     0.179 HD
BRANCH  16  18
HETATM   18  C   UNL     1      40.369 -14.685   0.343  1.00  0.00     0.045 A 
HETATM   19  C   UNL     1      39.304 -13.910  -0.123  1.00  0.00     0.066 A 
HETATM   20  C   UNL     1      39.039 -13.840  -1.491  1.00  0.00     0.070 A 
HETATM   21  C   UNL     1      39.871 -14.519  -2.384  1.00  0.00     0.037 A 
HETATM   22  C   UNL     1      40.943 -15.282  -1.919  1.00  0.00     0.005 A 
HETATM   23  C   UNL     1      41.192 -15.370  -0.550  1.00  0.00     0.030 A 
BRANCH  20  24
HETATM   24  O   UNL     1      38.016 -13.144  -2.075  1.00  0.00    -0.356 OA
HETATM   25  C   UNL     1      37.761 -13.417  -3.449  1.00  0.00     0.210 C 
ENDBRANCH  20  24
ENDBRANCH  16  18
ENDBRANCH  13  16
ENDBRANCH   8  13
BRANCH   1  26
HETATM   26  C   UNL     1      44.047 -19.973   6.137  1.00  0.00     0.257 C 
HETATM   27  N   UNL     1      44.571 -20.621   5.048  1.00  0.00    -0.357 N 
HETATM   28  H   UNL     1      44.771 -20.076   4.208  1.00  0.00     0.162 HD
HETATM   29  O   UNL     1      43.750 -20.547   7.181  1.00  0.00    -0.267 OA
BRANCH  27  30
HETATM   30  C   UNL     1      44.859 -22.038   5.040  1.00  0.00     0.123 C 
BRANCH  30  31
HETATM   31  C   UNL     1      44.680 -22.652   3.654  1.00  0.00     0.019 C 
BRANCH  31  32
HETATM   32  C   UNL     1      44.619 -21.570   2.577  1.00  0.00    -0.003 C 
HETATM   33  C   UNL     1      43.391 -21.723   1.695  1.00  0.00     0.005 C 
ENDBRANCH  31  32
ENDBRANCH  30  31
ENDBRANCH  27  30
ENDBRANCH   1  26
TORSDOF 8
ENDMDL
MODEL 5
REMARK VINA RESULT:      -7.9      3.269      4.677
REMARK  8 active torsions:
REMARK  status: ('A' for Active; 'I' for Inactive)
REMARK    1  A    between atoms: C_2  and  C_3 
REMARK    2  A    between atoms: C_3  and  C_4 
REMARK    3  A    between atoms: C_4  and  N_5 
REMARK       I    between atoms: N_5  and  C_6 
REMARK    4  A    between atoms: C_6  and  C_7 
REMARK    5  A    between atoms: C_14  and  S_15 
REMARK    6  A    between atoms: S_15  and  N_16 
REMARK    7  A    between atoms: N_16  and  C_17 
REMARK    8  A    between atoms: C_19  and  O_20 
ROOT
HETATM    1  C   UNL     1      42.994 -17.800   6.048  1.00  0.00     0.098 A 
HETATM    2  C   UNL     1      42.196 -17.497   4.826  1.00  0.00     0.201 A 
HETATM    3  O   UNL     1      42.029 -18.327   3.936  1.00  0.00    -0.286 OA
HETATM    4  C   UNL     1      41.605 -16.137   4.694  1.00  0.00     0.043 A 
HETATM    5  C   UNL     1      41.827 -15.196   5.715  1.00  0.00     0.046 A 
HETATM    6  N   UNL     1      42.611 -15.546   6.819  1.00  0.00    -0.364 N 
HETATM    7  C   UNL     1      40.849 -15.809   3.564  1.00  0.00     0.043 A 
HETATM    8  C   UNL     1      40.335 -14.516   3.445  1.00  0.00     0.081 A 
HETATM    9  C   UNL     1      40.545 -13.566   4.450  1.00  0.00     0.027 A 
HETATM   10  C   UNL     1      41.298 -13.909   5.579  1.00  0.00     0.032 A 
HETATM   11  C   UNL     1      43.131 -16.809   6.945  1.00  0.00     0.109 A 
HETATM   12  H   UNL     1      42.696 -14.904   7.600  1.00  0.00     0.165 HD
ENDROOT
BRANCH   8  13
HETATM   13  S   UNL     1      39.365 -14.106   2.010  1.00  0.00     0.263 S 
HETATM   14  O   UNL     1      38.642 -15.301   1.634  1.00  0.00    -0.200 OA
HETATM   15  O   UNL     1      38.676 -12.861   2.273  1.00  0.00    -0.200 OA
BRANCH  13  16
HETATM   16  N   UNL     1      40.543 -13.864   0.824  1.00  0.00    -0.281 N 
HETATM   17  H   UNL     1      41.010 -12.964   0.920  1.00  0.00     0.179 HD
BRANCH  16  18
HETATM   18  C   UNL     1      40.299 -14.344  -0.494  1.00  0.00     0.045 A 
HETATM   19  C   UNL     1      39.239 -13.817  -1.235  1.00  0.00     0.066 A 
HETATM   20  C   UNL     1      39.000 -14.272  -2.531  1.00  0.00     0.070 A 
HETATM   21  C   UNL     1      39.853 -15.230  -3.088  1.00  0.00     0.037 A 
HETATM   22  C   UNL     1      40.920 -15.746  -2.351  1.00  0.00     0.005 A 
HETATM   23  C   UNL     1      41.143 -15.307  -1.047  1.00  0.00     0.030 A 
BRANCH  20  24
HETATM   24  O   UNL     1      37.986 -13.861  -3.352  1.00  0.00    -0.356 OA
HETATM   25  C   UNL     1      37.145 -14.879  -3.887  1.00  0.00     0.210 C 
ENDBRANCH  20  24
ENDBRANCH  16  18
ENDBRANCH  13  16
ENDBRANCH   8  13
BRANCH   1  26
HETATM   26  C   UNL     1      43.659 -19.108   6.324  1.00  0.00     0.257 C 
HETATM   27  N   UNL     1      44.052 -19.811   5.214  1.00  0.00    -0.357 N 
HETATM   28  H   UNL     1      43.841 -19.424   4.293  1.00  0.00     0.162 HD
HETATM   29  O   UNL     1      43.846 -19.504   7.471  1.00  0.00    -0.267 OA
BRANCH  27  30
HETATM   30  C   UNL     1      44.758 -21.071   5.290  1.00  0.00     0.123 C 
BRANCH  30  31
HETATM   31  C   UNL     1      44.718 -21.833   3.968  1.00  0.00     0.019 C 
BRANCH  31  32
HETATM   32  C   UNL     1      44.378 -20.901   2.807  1.00  0.00    -0.003 C 
HETATM   33  C   UNL     1      43.868 -21.670   1.600  1.00  0.00     0.005 C 
ENDBRANCH  31  32
ENDBRANCH  30  31
ENDBRANCH  27  30
ENDBRANCH   1  26
TORSDOF 8
ENDMDL
MODEL 6
REMARK VINA RESULT:      -7.6      1.692      2.719
REMARK  8 active torsions:
REMARK  status: ('A' for Active; 'I' for Inactive)
REMARK    1  A    between atoms: C_2  and  C_3 
REMARK    2  A    between atoms: C_3  and  C_4 
REMARK    3  A    between atoms: C_4  and  N_5 
REMARK       I    between atoms: N_5  and  C_6 
REMARK    4  A    between atoms: C_6  and  C_7 
REMARK    5  A    between atoms: C_14  and  S_15 
REMARK    6  A    between atoms: S_15  and  N_16 
REMARK    7  A    between atoms: N_16  and  C_17 
REMARK    8  A    between atoms: C_19  and  O_20 
ROOT
HETATM    1  C   UNL     1      41.979 -17.191   2.718  1.00  0.00     0.098 A 
HETATM    2  C   UNL     1      42.150 -16.926   1.261  1.00  0.00     0.201 A 
HETATM    3  O   UNL     1      43.040 -17.459   0.603  1.00  0.00    -0.286 OA
HETATM    4  C   UNL     1      41.212 -15.973   0.606  1.00  0.00     0.043 A 
HETATM    5  C   UNL     1      40.215 -15.357   1.383  1.00  0.00     0.046 A 
HETATM    6  N   UNL     1      40.134 -15.635   2.751  1.00  0.00    -0.364 N 
HETATM    7  C   UNL     1      41.336 -15.695  -0.758  1.00  0.00     0.043 A 
HETATM    8  C   UNL     1      40.467 -14.769  -1.343  1.00  0.00     0.081 A 
HETATM    9  C   UNL     1      39.469 -14.147  -0.586  1.00  0.00     0.027 A 
HETATM   10  C   UNL     1      39.352 -14.439   0.778  1.00  0.00     0.032 A 
HETATM   11  C   UNL     1      40.986 -16.533   3.341  1.00  0.00     0.109 A 
HETATM   12  H   UNL     1      39.361 -15.268   3.295  1.00  0.00     0.165 HD
ENDROOT
BRANCH   8  13
HETATM   13  S   UNL     1      40.622 -14.426  -3.083  1.00  0.00     0.263 S 
HETATM   14  O   UNL     1      40.564 -15.698  -3.770  1.00  0.00    -0.200 OA
HETATM   15  O   UNL     1      39.713 -13.350  -3.412  1.00  0.00    -0.200 OA
BRANCH  13  16
HETATM   16  N   UNL     1      42.217 -13.883  -3.212  1.00  0.00    -0.281 N 
HETATM   17  H   UNL     1      42.889 -14.571  -2.878  1.00  0.00     0.179 HD
BRANCH  16  18
HETATM   18  C   UNL     1      42.497 -12.510  -2.960  1.00  0.00     0.045 A 
HETATM   19  C   UNL     1      42.339 -11.575  -3.986  1.00  0.00     0.066 A 
HETATM   20  C   UNL     1      42.599 -10.226  -3.745  1.00  0.00     0.070 A 
HETATM   21  C   UNL     1      42.979  -9.821  -2.463  1.00  0.00     0.037 A 
HETATM   22  C   UNL     1      43.124 -10.755  -1.436  1.00  0.00     0.005 A 
HETATM   23  C   UNL     1      42.886 -12.105  -1.684  1.00  0.00     0.030 A 
BRANCH  20  24
HETATM   24  O   UNL     1      42.511  -9.216  -4.663  1.00  0.00    -0.356 OA
HETATM   25  C   UNL     1      41.221  -8.962  -5.212  1.00  0.00     0.210 C 
ENDBRANCH  20  24
ENDBRANCH  16  18
ENDBRANCH  13  16
ENDBRANCH   8  13
BRANCH   1  26
HETATM   26  C   UNL     1      42.841 -18.107   3.520  1.00  0.00     0.257 C 
HETATM   27  N   UNL     1      43.311 -17.589   4.699  1.00  0.00    -0.357 N 
HETATM   28  H   UNL     1      43.077 -16.623   4.933  1.00  0.00     0.162 HD
HETATM   29  O   UNL     1      43.091 -19.249   3.142  1.00  0.00    -0.267 OA
BRANCH  27  30
HETATM   30  C   UNL     1      44.116 -18.351   5.628  1.00  0.00     0.123 C 
BRANCH  30  31
HETATM   31  C   UNL     1      44.864 -17.453   6.611  1.00  0.00     0.019 C 
BRANCH  31  32
HETATM   32  C   UNL     1      43.939 -16.384   7.191  1.00  0.00    -0.003 C 
HETATM   33  C   UNL     1      44.454 -14.982   6.907  1.00  0.00     0.005 C 
ENDBRANCH  31  32
ENDBRANCH  30  31
ENDBRANCH  27  30
ENDBRANCH   1  26
TORSDOF 8
ENDMDL
MODEL 7
REMARK VINA RESULT:      -7.6      3.241      4.423
REMARK  8 active torsions:
REMARK  status: ('A' for Active; 'I' for Inactive)
REMARK    1  A    between atoms: C_2  and  C_3 
REMARK    2  A    between atoms: C_3  and  C_4 
REMARK    3  A    between atoms: C_4  and  N_5 
REMARK       I    between atoms: N_5  and  C_6 
REMARK    4  A    between atoms: C_6  and  C_7 
REMARK    5  A    between atoms: C_14  and  S_15 
REMARK    6  A    between atoms: S_15  and  N_16 
REMARK    7  A    between atoms: N_16  and  C_17 
REMARK    8  A    between atoms: C_19  and  O_20 
ROOT
HETATM    1  C   UNL     1      42.114 -16.721   3.961  1.00  0.00     0.098 A 
HETATM    2  C   UNL     1      41.075 -16.412   2.938  1.00  0.00     0.201 A 
HETATM    3  O   UNL     1      40.713 -17.241   2.107  1.00  0.00    -0.286 OA
HETATM    4  C   UNL     1      40.481 -15.047   2.932  1.00  0.00     0.043 A 
HETATM    5  C   UNL     1      40.926 -14.106   3.878  1.00  0.00     0.046 A 
HETATM    6  N   UNL     1      41.925 -14.462   4.789  1.00  0.00    -0.364 N 
HETATM    7  C   UNL     1      39.504 -14.713   1.989  1.00  0.00     0.043 A 
HETATM    8  C   UNL     1      38.987 -13.415   1.980  1.00  0.00     0.081 A 
HETATM    9  C   UNL     1      39.417 -12.466   2.913  1.00  0.00     0.027 A 
HETATM   10  C   UNL     1      40.392 -12.814   3.855  1.00  0.00     0.032 A 
HETATM   11  C   UNL     1      42.449 -15.730   4.805  1.00  0.00     0.109 A 
HETATM   12  H   UNL     1      42.181 -13.820   5.532  1.00  0.00     0.165 HD
ENDROOT
BRANCH   8  13
HETATM   13  S   UNL     1      37.735 -12.998   0.785  1.00  0.00     0.263 S 
HETATM   14  O   UNL     1      37.041 -14.223   0.455  1.00  0.00    -0.200 OA
HETATM   15  O   UNL     1      37.022 -11.835   1.268  1.00  0.00    -0.200 OA
BRANCH  13  16
HETATM   16  N   UNL     1      38.646 -12.581  -0.576  1.00  0.00    -0.281 N 
HETATM   17  H   UNL     1      38.456 -11.632  -0.894  1.00  0.00     0.179 HD
BRANCH  16  18
HETATM   18  C   UNL     1      38.894 -13.572  -1.566  1.00  0.00     0.045 A 
HETATM   19  C   UNL     1      37.935 -13.815  -2.554  1.00  0.00     0.066 A 
HETATM   20  C   UNL     1      38.174 -14.775  -3.536  1.00  0.00     0.070 A 
HETATM   21  C   UNL     1      39.392 -15.460  -3.541  1.00  0.00     0.037 A 
HETATM   22  C   UNL     1      40.354 -15.208  -2.562  1.00  0.00     0.005 A 
HETATM   23  C   UNL     1      40.104 -14.264  -1.568  1.00  0.00     0.030 A 
BRANCH  20  24
HETATM   24  O   UNL     1      37.313 -15.128  -4.538  1.00  0.00    -0.356 OA
HETATM   25  C   UNL     1      36.158 -14.313  -4.705  1.00  0.00     0.210 C 
ENDBRANCH  20  24
ENDBRANCH  16  18
ENDBRANCH  13  16
ENDBRANCH   8  13
BRANCH   1  26
HETATM   26  C   UNL     1      42.811 -18.034   4.091  1.00  0.00     0.257 C 
HETATM   27  N   UNL     1      43.460 -18.468   2.964  1.00  0.00    -0.357 N 
HETATM   28  H   UNL     1      43.399 -17.900   2.118  1.00  0.00     0.162 HD
HETATM   29  O   UNL     1      42.806 -18.662   5.146  1.00  0.00    -0.267 OA
BRANCH  27  30
HETATM   30  C   UNL     1      44.231 -19.691   2.922  1.00  0.00     0.123 C 
BRANCH  30  31
HETATM   31  C   UNL     1      43.655 -20.700   1.932  1.00  0.00     0.019 C 
BRANCH  31  32
HETATM   32  C   UNL     1      44.396 -22.034   2.014  1.00  0.00    -0.003 C 
HETATM   33  C   UNL     1      44.561 -22.497   3.452  1.00  0.00     0.005 C 
ENDBRANCH  31  32
ENDBRANCH  30  31
ENDBRANCH  27  30
ENDBRANCH   1  26
TORSDOF 8
ENDMDL
MODEL 8
REMARK VINA RESULT:      -7.6      3.359      9.147
REMARK  8 active torsions:
REMARK  status: ('A' for Active; 'I' for Inactive)
REMARK    1  A    between atoms: C_2  and  C_3 
REMARK    2  A    between atoms: C_3  and  C_4 
REMARK    3  A    between atoms: C_4  and  N_5 
REMARK       I    between atoms: N_5  and  C_6 
REMARK    4  A    between atoms: C_6  and  C_7 
REMARK    5  A    between atoms: C_14  and  S_15 
REMARK    6  A    between atoms: S_15  and  N_16 
REMARK    7  A    between atoms: N_16  and  C_17 
REMARK    8  A    between atoms: C_19  and  O_20 
ROOT
HETATM    1  C   UNL     1      41.427 -14.733   1.251  1.00  0.00     0.098 A 
HETATM    2  C   UNL     1      42.343 -14.641   2.424  1.00  0.00     0.201 A 
HETATM    3  O   UNL     1      43.259 -13.824   2.470  1.00  0.00    -0.286 OA
HETATM    4  C   UNL     1      42.133 -15.587   3.554  1.00  0.00     0.043 A 
HETATM    5  C   UNL     1      41.093 -16.528   3.470  1.00  0.00     0.046 A 
HETATM    6  N   UNL     1      40.291 -16.572   2.325  1.00  0.00    -0.364 N 
HETATM    7  C   UNL     1      42.970 -15.536   4.673  1.00  0.00     0.043 A 
HETATM    8  C   UNL     1      42.777 -16.457   5.706  1.00  0.00     0.081 A 
HETATM    9  C   UNL     1      41.747 -17.401   5.640  1.00  0.00     0.027 A 
HETATM   10  C   UNL     1      40.912 -17.438   4.517  1.00  0.00     0.032 A 
HETATM   11  C   UNL     1      40.475 -15.681   1.299  1.00  0.00     0.109 A 
HETATM   12  H   UNL     1      39.482 -17.184   2.300  1.00  0.00     0.165 HD
ENDROOT
BRANCH   8  13
HETATM   13  S   UNL     1      43.838 -16.382   7.133  1.00  0.00     0.263 S 
HETATM   14  O   UNL     1      44.413 -15.055   7.162  1.00  0.00    -0.200 OA
HETATM   15  O   UNL     1      43.108 -16.910   8.265  1.00  0.00    -0.200 OA
BRANCH  13  16
HETATM   16  N   UNL     1      45.089 -17.439   6.720  1.00  0.00    -0.281 N 
HETATM   17  H   UNL     1      45.871 -16.960   6.277  1.00  0.00     0.179 HD
BRANCH  16  18
HETATM   18  C   UNL     1      44.760 -18.741   6.249  1.00  0.00     0.045 A 
HETATM   19  C   UNL     1      45.091 -19.105   4.941  1.00  0.00     0.066 A 
HETATM   20  C   UNL     1      44.784 -20.383   4.474  1.00  0.00     0.070 A 
HETATM   21  C   UNL     1      44.180 -21.300   5.339  1.00  0.00     0.037 A 
HETATM   22  C   UNL     1      43.862 -20.939   6.649  1.00  0.00     0.005 A 
HETATM   23  C   UNL     1      44.149 -19.655   7.106  1.00  0.00     0.030 A 
BRANCH  20  24
HETATM   24  O   UNL     1      45.027 -20.856   3.214  1.00  0.00    -0.356 OA
HETATM   25  C   UNL     1      43.929 -20.848   2.307  1.00  0.00     0.210 C 
ENDBRANCH  20  24
ENDBRANCH  16  18
ENDBRANCH  13  16
ENDBRANCH   8  13
BRANCH   1  26
HETATM   26  C   UNL     1      41.512 -13.868   0.038  1.00  0.00     0.257 C 
HETATM   27  N   UNL     1      41.718 -14.533  -1.143  1.00  0.00    -0.357 N 
HETATM   28  H   UNL     1      41.833 -15.548  -1.117  1.00  0.00     0.162 HD
HETATM   29  O   UNL     1      41.389 -12.649   0.109  1.00  0.00    -0.267 OA
BRANCH  27  30
HETATM   30  C   UNL     1      41.775 -13.864  -2.423  1.00  0.00     0.123 C 
BRANCH  30  31
HETATM   31  C   UNL     1      40.385 -13.631  -3.012  1.00  0.00     0.019 C 
BRANCH  31  32
HETATM   32  C   UNL     1      39.870 -14.885  -3.717  1.00  0.00    -0.003 C 
HETATM   33  C   UNL     1      38.383 -15.090  -3.483  1.00  0.00     0.005 C 
ENDBRANCH  31  32
ENDBRANCH  30  31
ENDBRANCH  27  30
ENDBRANCH   1  26
TORSDOF 8
ENDMDL
MODEL 9
REMARK VINA RESULT:      -7.5      3.123      9.523
REMARK  8 active torsions:
REMARK  status: ('A' for Active; 'I' for Inactive)
REMARK    1  A    between atoms: C_2  and  C_3 
REMARK    2  A    between atoms: C_3  and  C_4 
REMARK    3  A    between atoms: C_4  and  N_5 
REMARK       I    between atoms: N_5  and  C_6 
REMARK    4  A    between atoms: C_6  and  C_7 
REMARK    5  A    between atoms: C_14  and  S_15 
REMARK    6  A    between atoms: S_15  and  N_16 
REMARK    7  A    between atoms: N_16  and  C_17 
REMARK    8  A    between atoms: C_19  and  O_20 
ROOT
HETATM    1  C   UNL     1      41.365 -15.090   1.234  1.00  0.00     0.098 A 
HETATM    2  C   UNL     1      42.313 -14.936   2.375  1.00  0.00     0.201 A 
HETATM    3  O   UNL     1      43.246 -14.138   2.341  1.00  0.00    -0.286 OA
HETATM    4  C   UNL     1      42.114 -15.796   3.573  1.00  0.00     0.043 A 
HETATM    5  C   UNL     1      41.053 -16.719   3.581  1.00  0.00     0.046 A 
HETATM    6  N   UNL     1      40.221 -16.824   2.461  1.00  0.00    -0.364 N 
HETATM    7  C   UNL     1      42.980 -15.686   4.666  1.00  0.00     0.043 A 
HETATM    8  C   UNL     1      42.794 -16.529   5.764  1.00  0.00     0.081 A 
HETATM    9  C   UNL     1      41.745 -17.453   5.790  1.00  0.00     0.027 A 
HETATM   10  C   UNL     1      40.881 -17.549   4.692  1.00  0.00     0.032 A 
HETATM   11  C   UNL     1      40.396 -16.011   1.371  1.00  0.00     0.109 A 
HETATM   12  H   UNL     1      39.400 -17.419   2.498  1.00  0.00     0.165 HD
ENDROOT
BRANCH   8  13
HETATM   13  S   UNL     1      43.893 -16.378   7.157  1.00  0.00     0.263 S 
HETATM   14  O   UNL     1      44.478 -15.057   7.091  1.00  0.00    -0.200 OA
HETATM   15  O   UNL     1      43.189 -16.831   8.337  1.00  0.00    -0.200 OA
BRANCH  13  16
HETATM   16  N   UNL     1      45.125 -17.469   6.776  1.00  0.00    -0.281 N 
HETATM   17  H   UNL     1      45.900 -17.023   6.289  1.00  0.00     0.179 HD
BRANCH  16  18
HETATM   18  C   UNL     1      44.775 -18.792   6.387  1.00  0.00     0.045 A 
HETATM   19  C   UNL     1      45.072 -19.233   5.095  1.00  0.00     0.066 A 
HETATM   20  C   UNL     1      44.743 -20.532   4.708  1.00  0.00     0.070 A 
HETATM   21  C   UNL     1      44.152 -21.392   5.637  1.00  0.00     0.037 A 
HETATM   22  C   UNL     1      43.868 -20.955   6.931  1.00  0.00     0.005 A 
HETATM   23  C   UNL     1      44.175 -19.650   7.308  1.00  0.00     0.030 A 
BRANCH  20  24
HETATM   24  O   UNL     1      44.953 -21.078   3.472  1.00  0.00    -0.356 OA
HETATM   25  C   UNL     1      44.414 -22.377   3.248  1.00  0.00     0.210 C 
ENDBRANCH  20  24
ENDBRANCH  16  18
ENDBRANCH  13  16
ENDBRANCH   8  13
BRANCH   1  26
HETATM   26  C   UNL     1      41.436 -14.313  -0.038  1.00  0.00     0.257 C 
HETATM   27  N   UNL     1      41.967 -13.054   0.073  1.00  0.00    -0.357 N 
HETATM   28  H   UNL     1      42.242 -12.721   0.998  1.00  0.00     0.162 HD
HETATM   29  O   UNL     1      41.055 -14.789  -1.104  1.00  0.00    -0.267 OA
BRANCH  27  30
HETATM   30  C   UNL     1      42.163 -12.179  -1.062  1.00  0.00     0.123 C 
BRANCH  30  31
HETATM   31  C   UNL     1      42.957 -10.929  -0.695  1.00  0.00     0.019 C 
BRANCH  31  32
HETATM   32  C   UNL     1      43.318 -10.121  -1.941  1.00  0.00    -0.003 C 
HETATM   33  C   UNL     1      42.817  -8.690  -1.847  1.00  0.00     0.005 C 
ENDBRANCH  31  32
ENDBRANCH  30  31
ENDBRANCH  27  30
ENDBRANCH   1  26
TORSDOF 8
ENDMDL
MODEL 10
REMARK VINA RESULT:      -7.5      2.672      9.097
REMARK  8 active torsions:
REMARK  status: ('A' for Active; 'I' for Inactive)
REMARK    1  A    between atoms: C_2  and  C_3 
REMARK    2  A    between atoms: C_3  and  C_4 
REMARK    3  A    between atoms: C_4  and  N_5 
REMARK       I    between atoms: N_5  and  C_6 
REMARK    4  A    between atoms: C_6  and  C_7 
REMARK    5  A    between atoms: C_14  and  S_15 
REMARK    6  A    between atoms: S_15  and  N_16 
REMARK    7  A    between atoms: N_16  and  C_17 
REMARK    8  A    between atoms: C_19  and  O_20 
ROOT
HETATM    1  C   UNL     1      41.722 -13.779  -0.879  1.00  0.00     0.098 A 
HETATM    2  C   UNL     1      41.936 -13.614   0.587  1.00  0.00     0.201 A 
HETATM    3  O   UNL     1      42.436 -12.596   1.060  1.00  0.00    -0.286 OA
HETATM    4  C   UNL     1      41.539 -14.733   1.485  1.00  0.00     0.043 A 
HETATM    5  C   UNL     1      40.990 -15.897   0.920  1.00  0.00     0.046 A 
HETATM    6  N   UNL     1      40.845 -15.989  -0.468  1.00  0.00    -0.364 N 
HETATM    7  C   UNL     1      41.724 -14.621   2.867  1.00  0.00     0.043 A 
HETATM    8  C   UNL     1      41.377 -15.699   3.685  1.00  0.00     0.081 A 
HETATM    9  C   UNL     1      40.829 -16.865   3.141  1.00  0.00     0.027 A 
HETATM   10  C   UNL     1      40.644 -16.962   1.757  1.00  0.00     0.032 A 
HETATM   11  C   UNL     1      41.189 -14.944  -1.286  1.00  0.00     0.109 A 
HETATM   12  H   UNL     1      40.363 -16.786  -0.872  1.00  0.00     0.165 HD
ENDROOT
BRANCH   8  13
HETATM   13  S   UNL     1      41.604 -15.548   5.445  1.00  0.00     0.263 S 
HETATM   14  O   UNL     1      41.550 -14.136   5.757  1.00  0.00    -0.200 OA
HETATM   15  O   UNL     1      40.726 -16.497   6.094  1.00  0.00    -0.200 OA
BRANCH  13  16
HETATM   16  N   UNL     1      43.211 -16.024   5.653  1.00  0.00    -0.281 N 
HETATM   17  H   UNL     1      43.858 -15.451   5.116  1.00  0.00     0.179 HD
BRANCH  16  18
HETATM   18  C   UNL     1      43.505 -17.412   5.777  1.00  0.00     0.045 A 
HETATM   19  C   UNL     1      43.880 -18.141   4.646  1.00  0.00     0.066 A 
HETATM   20  C   UNL     1      44.182 -19.498   4.760  1.00  0.00     0.070 A 
HETATM   21  C   UNL     1      44.141 -20.104   6.019  1.00  0.00     0.037 A 
HETATM   22  C   UNL     1      43.779 -19.371   7.150  1.00  0.00     0.005 A 
HETATM   23  C   UNL     1      43.455 -18.021   7.030  1.00  0.00     0.030 A 
BRANCH  20  24
HETATM   24  O   UNL     1      44.534 -20.330   3.734  1.00  0.00    -0.356 OA
HETATM   25  C   UNL     1      44.134 -19.935   2.425  1.00  0.00     0.210 C 
ENDBRANCH  20  24
ENDBRANCH  16  18
ENDBRANCH  13  16
ENDBRANCH   8  13
BRANCH   1  26
HETATM   26  C   UNL     1      42.075 -12.758  -1.908  1.00  0.00     0.257 C 
HETATM   27  N   UNL     1      41.397 -11.570  -1.813  1.00  0.00    -0.357 N 
HETATM   28  H   UNL     1      40.687 -11.472  -1.085  1.00  0.00     0.162 HD
HETATM   29  O   UNL     1      42.927 -12.977  -2.765  1.00  0.00    -0.267 OA
BRANCH  27  30
HETATM   30  C   UNL     1      41.647 -10.448  -2.690  1.00  0.00     0.123 C 
BRANCH  30  31
HETATM   31  C   UNL     1      42.195  -9.239  -1.937  1.00  0.00     0.019 C 
BRANCH  31  32
HETATM   32  C   UNL     1      43.628  -9.488  -1.467  1.00  0.00    -0.003 C 
HETATM   33  C   UNL     1      44.281  -8.214  -0.957  1.00  0.00     0.005 C 
ENDBRANCH  31  32
ENDBRANCH  30  31
ENDBRANCH  27  30
ENDBRANCH   1  26
TORSDOF 8
ENDMDL
