MODEL 1
REMARK VINA RESULT:      -8.0      0.000      0.000
REMARK  7 active torsions:
REMARK  status: ('A' for Active; 'I' for Inactive)
REMARK    1  A    between atoms: C_2  and  O_3 
REMARK    2  A    between atoms: O_3  and  C_4 
REMARK       I    between atoms: C_4  and  N_5 
REMARK    3  A    between atoms: N_5  and  C_6 
REMARK    4  A    between atoms: C_7  and  N_8 
REMARK    5  A    between atoms: C_11  and  N_12 
REMARK    6  A    between atoms: N_12  and  C_13 
REMARK    7  A    between atoms: C_13  and  C_14 
ROOT
HETATM    1  C   UNL     1      43.517 -15.185   6.449  1.00  0.00     0.080 A 
HETATM    2  C   UNL     1      43.283 -14.778   5.112  1.00  0.00     0.127 A 
HETATM    3  N   UNL     1      42.843 -15.701   4.247  1.00  0.00    -0.332 N 
HETATM    4  H   UNL     1      42.626 -15.420   3.297  1.00  0.00     0.168 HD
HETATM    5  C   UNL     1      42.627 -16.986   4.531  1.00  0.00     0.081 A 
HETATM    6  C   UNL     1      42.848 -17.434   5.825  1.00  0.00     0.044 A 
HETATM    7  C   UNL     1      43.276 -16.523   6.789  1.00  0.00     0.037 A 
ENDROOT
BRANCH   5   8
HETATM    8  N   UNL     1      42.212 -17.771   3.468  1.00  0.00    -0.275 NA
HETATM    9  H   UNL     1      41.482 -17.275   2.948  1.00  0.00     0.129 HD
BRANCH   8  10
HETATM   10  C   UNL     1      43.268 -18.086   2.493  1.00  0.00     0.132 C 
BRANCH  10  11
HETATM   11  C   UNL     1      43.729 -19.502   2.727  1.00  0.00    -0.045 A 
HETATM   12  C   UNL     1      43.438 -20.516   1.797  1.00  0.00     0.011 A 
HETATM   13  C   UNL     1      43.852 -21.829   2.031  1.00  0.00     0.043 A 
HETATM   14  C   UNL     1      44.557 -22.131   3.190  1.00  0.00     0.116 A 
HETATM   15  F   UNL     1      44.953 -23.390   3.413  1.00  0.00    -0.206 F 
HETATM   16  C   UNL     1      44.855 -21.145   4.122  1.00  0.00     0.043 A 
HETATM   17  C   UNL     1      44.439 -19.832   3.894  1.00  0.00     0.011 A 
ENDBRANCH  10  11
ENDBRANCH   8  10
ENDBRANCH   5   8
BRANCH   2  18
HETATM   18  N   UNL     1      43.299 -13.472   4.667  1.00  0.00    -0.384 N 
HETATM   19  H   UNL     1      43.317 -13.389   3.640  1.00  0.00     0.157 HD
HETATM   20  H   UNL     1      42.698 -12.768   5.074  1.00  0.00     0.157 HD
ENDBRANCH   2  18
BRANCH   1  21
HETATM   21  N   UNL     1      43.986 -14.368   7.501  1.00  0.00    -0.299 N 
HETATM   22  C   UNL     1      45.094 -13.570   7.533  1.00  0.00     0.365 C 
HETATM   23  O   UNL     1      45.912 -13.429   6.636  1.00  0.00    -0.238 OA
HETATM   24  H   UNL     1      43.553 -14.447   8.414  1.00  0.00     0.171 HD
BRANCH  22  25
HETATM   25  O   UNL     1      45.172 -12.999   8.758  1.00  0.00    -0.304 OA
BRANCH  25  26
HETATM   26  C   UNL     1      45.957 -11.798   8.853  1.00  0.00     0.176 C 
HETATM   27  C   UNL     1      45.477 -10.959  10.023  1.00  0.00     0.034 C 
ENDBRANCH  25  26
ENDBRANCH  22  25
ENDBRANCH   1  21
TORSDOF 7
ENDMDL
MODEL 2
REMARK VINA RESULT:      -7.7      1.009      1.877
REMARK  7 active torsions:
REMARK  status: ('A' for Active; 'I' for Inactive)
REMARK    1  A    between atoms: C_2  and  O_3 
REMARK    2  A    between atoms: O_3  and  C_4 
REMARK       I    between atoms: C_4  and  N_5 
REMARK    3  A    between atoms: N_5  and  C_6 
REMARK    4  A    between atoms: C_7  and  N_8 
REMARK    5  A    between atoms: C_11  and  N_12 
REMARK    6  A    between atoms: N_12  and  C_13 
REMARK    7  A    between atoms: C_13  and  C_14 
ROOT
HETATM    1  C   UNL     1      43.748 -15.017   6.783  1.00  0.00     0.080 A 
HETATM    2  C   UNL     1      43.332 -16.350   7.025  1.00  0.00     0.127 A 
HETATM    3  N   UNL     1      42.904 -17.070   5.981  1.00  0.00    -0.332 N 
HETATM    4  H   UNL     1      42.645 -18.039   6.125  1.00  0.00     0.168 HD
HETATM    5  C   UNL     1      42.811 -16.629   4.724  1.00  0.00     0.081 A 
HETATM    6  C   UNL     1      43.200 -15.329   4.439  1.00  0.00     0.044 A 
HETATM    7  C   UNL     1      43.688 -14.530   5.471  1.00  0.00     0.037 A 
ENDROOT
BRANCH   5   8
HETATM    8  N   UNL     1      42.300 -17.536   3.811  1.00  0.00    -0.275 NA
HETATM    9  H   UNL     1      41.457 -17.143   3.381  1.00  0.00     0.129 HD
BRANCH   8  10
HETATM   10  C   UNL     1      43.210 -17.865   2.702  1.00  0.00     0.132 C 
BRANCH  10  11
HETATM   11  C   UNL     1      43.650 -19.299   2.854  1.00  0.00    -0.045 A 
HETATM   12  C   UNL     1      44.393 -19.708   3.977  1.00  0.00     0.011 A 
HETATM   13  C   UNL     1      44.813 -21.034   4.100  1.00  0.00     0.043 A 
HETATM   14  C   UNL     1      44.492 -21.952   3.107  1.00  0.00     0.116 A 
HETATM   15  F   UNL     1      44.896 -23.222   3.227  1.00  0.00    -0.206 F 
HETATM   16  C   UNL     1      43.760 -21.569   1.990  1.00  0.00     0.043 A 
HETATM   17  C   UNL     1      43.342 -20.244   1.861  1.00  0.00     0.011 A 
ENDBRANCH  10  11
ENDBRANCH   8  10
ENDBRANCH   5   8
BRANCH   2  18
HETATM   18  N   UNL     1      43.499 -17.028   8.216  1.00  0.00    -0.384 N 
HETATM   19  H   UNL     1      42.733 -16.872   8.886  1.00  0.00     0.157 HD
HETATM   20  H   UNL     1      43.803 -17.992   8.237  1.00  0.00     0.157 HD
ENDBRANCH   2  18
BRANCH   1  21
HETATM   21  N   UNL     1      44.221 -14.101   7.748  1.00  0.00    -0.299 N 
HETATM   22  C   UNL     1      45.323 -13.295   7.692  1.00  0.00     0.365 C 
HETATM   23  O   UNL     1      46.130 -13.234   6.776  1.00  0.00    -0.238 OA
HETATM   24  H   UNL     1      43.798 -14.096   8.669  1.00  0.00     0.171 HD
BRANCH  22  25
HETATM   25  O   UNL     1      45.409 -12.610   8.857  1.00  0.00    -0.304 OA
BRANCH  25  26
HETATM   26  C   UNL     1      44.358 -11.665   9.119  1.00  0.00     0.176 C 
HETATM   27  C   UNL     1      44.535 -11.067  10.503  1.00  0.00     0.034 C 
ENDBRANCH  25  26
ENDBRANCH  22  25
ENDBRANCH   1  21
TORSDOF 7
ENDMDL
MODEL 3
REMARK VINA RESULT:      -7.5      4.589      6.904
REMARK  7 active torsions:
REMARK  status: ('A' for Active; 'I' for Inactive)
REMARK    1  A    between atoms: C_2  and  O_3 
REMARK    2  A    between atoms: O_3  and  C_4 
REMARK       I    between atoms: C_4  and  N_5 
REMARK    3  A    between atoms: N_5  and  C_6 
REMARK    4  A    between atoms: C_7  and  N_8 
REMARK    5  A    between atoms: C_11  and  N_12 
REMARK    6  A    between atoms: N_12  and  C_13 
REMARK    7  A    between atoms: C_13  and  C_14 
ROOT
HETATM    1  C   UNL     1      41.095 -16.084   0.598  1.00  0.00     0.080 A 
HETATM    2  C   UNL     1      40.303 -16.289   1.756  1.00  0.00     0.127 A 
HETATM    3  N   UNL     1      40.903 -16.797   2.840  1.00  0.00    -0.332 N 
HETATM    4  H   UNL     1      40.366 -16.909   3.691  1.00  0.00     0.168 HD
HETATM    5  C   UNL     1      42.188 -17.152   2.917  1.00  0.00     0.081 A 
HETATM    6  C   UNL     1      43.000 -16.976   1.808  1.00  0.00     0.044 A 
HETATM    7  C   UNL     1      42.453 -16.421   0.652  1.00  0.00     0.037 A 
ENDROOT
BRANCH   5   8
HETATM    8  N   UNL     1      42.584 -17.696   4.128  1.00  0.00    -0.275 NA
HETATM    9  H   UNL     1      42.120 -18.600   4.259  1.00  0.00     0.129 HD
BRANCH   8  10
HETATM   10  C   UNL     1      44.028 -17.957   4.237  1.00  0.00     0.132 C 
BRANCH  10  11
HETATM   11  C   UNL     1      44.257 -19.442   4.106  1.00  0.00    -0.045 A 
HETATM   12  C   UNL     1      44.533 -20.229   5.239  1.00  0.00     0.011 A 
HETATM   13  C   UNL     1      44.763 -21.600   5.107  1.00  0.00     0.043 A 
HETATM   14  C   UNL     1      44.716 -22.186   3.848  1.00  0.00     0.116 A 
HETATM   15  F   UNL     1      44.937 -23.500   3.723  1.00  0.00    -0.206 F 
HETATM   16  C   UNL     1      44.446 -21.428   2.716  1.00  0.00     0.043 A 
HETATM   17  C   UNL     1      44.220 -20.056   2.843  1.00  0.00     0.011 A 
ENDBRANCH  10  11
ENDBRANCH   8  10
ENDBRANCH   5   8
BRANCH   2  18
HETATM   18  N   UNL     1      39.007 -15.844   1.919  1.00  0.00    -0.384 N 
HETATM   19  H   UNL     1      38.400 -16.520   2.404  1.00  0.00     0.157 HD
HETATM   20  H   UNL     1      38.807 -14.900   2.221  1.00  0.00     0.157 HD
ENDBRANCH   2  18
BRANCH   1  21
HETATM   21  N   UNL     1      40.648 -15.569  -0.639  1.00  0.00    -0.299 N 
HETATM   22  C   UNL     1      40.079 -14.355  -0.903  1.00  0.00     0.365 C 
HETATM   23  O   UNL     1      39.832 -13.478  -0.089  1.00  0.00    -0.238 OA
HETATM   24  H   UNL     1      40.604 -16.188  -1.440  1.00  0.00     0.171 HD
BRANCH  22  25
HETATM   25  O   UNL     1      39.776 -14.306  -2.222  1.00  0.00    -0.304 OA
BRANCH  25  26
HETATM   26  C   UNL     1      40.262 -15.392  -3.029  1.00  0.00     0.176 C 
HETATM   27  C   UNL     1      39.167 -15.871  -3.964  1.00  0.00     0.034 C 
ENDBRANCH  25  26
ENDBRANCH  22  25
ENDBRANCH   1  21
TORSDOF 7
ENDMDL
MODEL 4
REMARK VINA RESULT:      -7.3      3.287      3.648
REMARK  7 active torsions:
REMARK  status: ('A' for Active; 'I' for Inactive)
REMARK    1  A    between atoms: C_2  and  O_3 
REMARK    2  A    between atoms: O_3  and  C_4 
REMARK       I    between atoms: C_4  and  N_5 
REMARK    3  A    between atoms: N_5  and  C_6 
REMARK    4  A    between atoms: C_7  and  N_8 
REMARK    5  A    between atoms: C_11  and  N_12 
REMARK    6  A    between atoms: N_12  and  C_13 
REMARK    7  A    between atoms: C_13  and  C_14 
ROOT
HETATM    1  C   UNL     1      40.061 -14.685   5.194  1.00  0.00     0.080 A 
HETATM    2  C   UNL     1      40.153 -14.624   3.781  1.00  0.00     0.127 A 
HETATM    3  N   UNL     1      40.778 -15.627   3.152  1.00  0.00    -0.332 N 
HETATM    4  H   UNL     1      40.814 -15.624   2.139  1.00  0.00     0.168 HD
HETATM    5  C   UNL     1      41.348 -16.676   3.746  1.00  0.00     0.081 A 
HETATM    6  C   UNL     1      41.291 -16.777   5.128  1.00  0.00     0.044 A 
HETATM    7  C   UNL     1      40.627 -15.787   5.850  1.00  0.00     0.037 A 
ENDROOT
BRANCH   5   8
HETATM    8  N   UNL     1      41.977 -17.573   2.899  1.00  0.00    -0.275 NA
HETATM    9  H   UNL     1      41.836 -17.276   1.929  1.00  0.00     0.129 HD
BRANCH   8  10
HETATM   10  C   UNL     1      43.433 -17.675   3.088  1.00  0.00     0.132 C 
BRANCH  10  11
HETATM   11  C   UNL     1      43.811 -19.135   3.120  1.00  0.00    -0.045 A 
HETATM   12  C   UNL     1      44.455 -19.687   4.241  1.00  0.00     0.011 A 
HETATM   13  C   UNL     1      44.818 -21.035   4.254  1.00  0.00     0.043 A 
HETATM   14  C   UNL     1      44.538 -21.832   3.151  1.00  0.00     0.116 A 
HETATM   15  F   UNL     1      44.887 -23.124   3.165  1.00  0.00    -0.206 F 
HETATM   16  C   UNL     1      43.903 -21.307   2.033  1.00  0.00     0.043 A 
HETATM   17  C   UNL     1      43.543 -19.959   2.014  1.00  0.00     0.011 A 
ENDBRANCH  10  11
ENDBRANCH   8  10
ENDBRANCH   5   8
BRANCH   2  18
HETATM   18  N   UNL     1      39.496 -13.708   2.984  1.00  0.00    -0.384 N 
HETATM   19  H   UNL     1      38.673 -13.287   3.437  1.00  0.00     0.157 HD
HETATM   20  H   UNL     1      40.003 -13.017   2.447  1.00  0.00     0.157 HD
ENDBRANCH   2  18
BRANCH   1  21
HETATM   21  N   UNL     1      39.453 -13.728   6.035  1.00  0.00    -0.299 N 
HETATM   22  C   UNL     1      39.935 -12.514   6.435  1.00  0.00     0.365 C 
HETATM   23  O   UNL     1      41.019 -12.033   6.143  1.00  0.00    -0.238 OA
HETATM   24  H   UNL     1      38.606 -13.980   6.532  1.00  0.00     0.171 HD
BRANCH  22  25
HETATM   25  O   UNL     1      39.028 -11.950   7.268  1.00  0.00    -0.304 OA
BRANCH  25  26
HETATM   26  C   UNL     1      39.539 -11.421   8.503  1.00  0.00     0.176 C 
HETATM   27  C   UNL     1      39.017 -10.012   8.717  1.00  0.00     0.034 C 
ENDBRANCH  25  26
ENDBRANCH  22  25
ENDBRANCH   1  21
TORSDOF 7
ENDMDL
MODEL 5
REMARK VINA RESULT:      -7.2      3.110      3.648
REMARK  7 active torsions:
REMARK  status: ('A' for Active; 'I' for Inactive)
REMARK    1  A    between atoms: C_2  and  O_3 
REMARK    2  A    between atoms: O_3  and  C_4 
REMARK       I    between atoms: C_4  and  N_5 
REMARK    3  A    between atoms: N_5  and  C_6 
REMARK    4  A    between atoms: C_7  and  N_8 
REMARK    5  A    between atoms: C_11  and  N_12 
REMARK    6  A    between atoms: N_12  and  C_13 
REMARK    7  A    between atoms: C_13  and  C_14 
ROOT
HETATM    1  C   UNL     1      41.312 -14.347   5.696  1.00  0.00     0.080 A 
HETATM    2  C   UNL     1      41.030 -15.726   5.524  1.00  0.00     0.127 A 
HETATM    3  N   UNL     1      41.880 -16.449   4.786  1.00  0.00    -0.332 N 
HETATM    4  H   UNL     1      41.721 -17.445   4.688  1.00  0.00     0.168 HD
HETATM    5  C   UNL     1      42.967 -15.976   4.172  1.00  0.00     0.081 A 
HETATM    6  C   UNL     1      43.281 -14.632   4.306  1.00  0.00     0.044 A 
HETATM    7  C   UNL     1      42.460 -13.822   5.087  1.00  0.00     0.037 A 
ENDROOT
BRANCH   5   8
HETATM    8  N   UNL     1      43.679 -16.900   3.425  1.00  0.00    -0.275 NA
HETATM    9  H   UNL     1      44.236 -17.485   4.054  1.00  0.00     0.129 HD
BRANCH   8  10
HETATM   10  C   UNL     1      42.845 -17.823   2.639  1.00  0.00     0.132 C 
BRANCH  10  11
HETATM   11  C   UNL     1      43.403 -19.216   2.787  1.00  0.00    -0.045 A 
HETATM   12  C   UNL     1      44.181 -19.564   3.906  1.00  0.00     0.011 A 
HETATM   13  C   UNL     1      44.709 -20.851   4.025  1.00  0.00     0.043 A 
HETATM   14  C   UNL     1      44.462 -21.790   3.032  1.00  0.00     0.116 A 
HETATM   15  F   UNL     1      44.970 -23.023   3.148  1.00  0.00    -0.206 F 
HETATM   16  C   UNL     1      43.697 -21.468   1.918  1.00  0.00     0.043 A 
HETATM   17  C   UNL     1      43.171 -20.181   1.792  1.00  0.00     0.011 A 
ENDBRANCH  10  11
ENDBRANCH   8  10
ENDBRANCH   5   8
BRANCH   2  18
HETATM   18  N   UNL     1      40.050 -16.424   6.200  1.00  0.00    -0.384 N 
HETATM   19  H   UNL     1      40.209 -16.473   7.216  1.00  0.00     0.157 HD
HETATM   20  H   UNL     1      39.069 -16.287   5.996  1.00  0.00     0.157 HD
ENDBRANCH   2  18
BRANCH   1  21
HETATM   21  N   UNL     1      40.538 -13.420   6.428  1.00  0.00    -0.299 N 
HETATM   22  C   UNL     1      39.560 -12.580   5.976  1.00  0.00     0.365 C 
HETATM   23  O   UNL     1      39.181 -12.464   4.821  1.00  0.00    -0.238 OA
HETATM   24  H   UNL     1      40.788 -13.224   7.391  1.00  0.00     0.171 HD
BRANCH  22  25
HETATM   25  O   UNL     1      39.114 -11.845   7.023  1.00  0.00    -0.304 OA
BRANCH  25  26
HETATM   26  C   UNL     1      39.803 -10.607   7.271  1.00  0.00     0.176 C 
HETATM   27  C   UNL     1      40.526 -10.677   8.603  1.00  0.00     0.034 C 
ENDBRANCH  25  26
ENDBRANCH  22  25
ENDBRANCH   1  21
TORSDOF 7
ENDMDL
MODEL 6
REMARK VINA RESULT:      -7.0      4.757      7.794
REMARK  7 active torsions:
REMARK  status: ('A' for Active; 'I' for Inactive)
REMARK    1  A    between atoms: C_2  and  O_3 
REMARK    2  A    between atoms: O_3  and  C_4 
REMARK       I    between atoms: C_4  and  N_5 
REMARK    3  A    between atoms: N_5  and  C_6 
REMARK    4  A    between atoms: C_7  and  N_8 
REMARK    5  A    between atoms: C_11  and  N_12 
REMARK    6  A    between atoms: N_12  and  C_13 
REMARK    7  A    between atoms: C_13  and  C_14 
ROOT
HETATM    1  C   UNL     1      41.092 -16.849   1.155  1.00  0.00     0.080 A 
HETATM    2  C   UNL     1      40.111 -16.541   2.131  1.00  0.00     0.127 A 
HETATM    3  N   UNL     1      40.353 -16.908   3.396  1.00  0.00    -0.332 N 
HETATM    4  H   UNL     1      39.685 -16.657   4.116  1.00  0.00     0.168 HD
HETATM    5  C   UNL     1      41.435 -17.565   3.817  1.00  0.00     0.081 A 
HETATM    6  C   UNL     1      42.420 -17.895   2.897  1.00  0.00     0.044 A 
HETATM    7  C   UNL     1      42.253 -17.516   1.567  1.00  0.00     0.037 A 
ENDROOT
BRANCH   5   8
HETATM    8  N   UNL     1      41.455 -17.880   5.165  1.00  0.00    -0.275 NA
HETATM    9  H   UNL     1      42.403 -18.158   5.433  1.00  0.00     0.129 HD
BRANCH   8  10
HETATM   10  C   UNL     1      41.087 -16.768   6.057  1.00  0.00     0.132 C 
BRANCH  10  11
HETATM   11  C   UNL     1      42.295 -15.885   6.243  1.00  0.00    -0.045 A 
HETATM   12  C   UNL     1      42.309 -14.570   5.743  1.00  0.00     0.011 A 
HETATM   13  C   UNL     1      43.439 -13.765   5.903  1.00  0.00     0.043 A 
HETATM   14  C   UNL     1      44.553 -14.270   6.563  1.00  0.00     0.116 A 
HETATM   15  F   UNL     1      45.635 -13.497   6.715  1.00  0.00    -0.206 F 
HETATM   16  C   UNL     1      44.561 -15.565   7.064  1.00  0.00     0.043 A 
HETATM   17  C   UNL     1      43.436 -16.374   6.902  1.00  0.00     0.011 A 
ENDBRANCH  10  11
ENDBRANCH   8  10
ENDBRANCH   5   8
BRANCH   2  18
HETATM   18  N   UNL     1      39.009 -15.737   1.920  1.00  0.00    -0.384 N 
HETATM   19  H   UNL     1      38.633 -15.323   2.785  1.00  0.00     0.157 HD
HETATM   20  H   UNL     1      38.980 -15.071   1.160  1.00  0.00     0.157 HD
ENDBRANCH   2  18
BRANCH   1  21
HETATM   21  N   UNL     1      41.019 -16.555  -0.224  1.00  0.00    -0.299 N 
HETATM   22  C   UNL     1      41.273 -15.373  -0.860  1.00  0.00     0.365 C 
HETATM   23  O   UNL     1      41.600 -14.322  -0.330  1.00  0.00    -0.238 OA
HETATM   24  H   UNL     1      40.609 -17.238  -0.850  1.00  0.00     0.171 HD
BRANCH  22  25
HETATM   25  O   UNL     1      41.041 -15.542  -2.183  1.00  0.00    -0.304 OA
BRANCH  25  26
HETATM   26  C   UNL     1      39.922 -14.824  -2.731  1.00  0.00     0.176 C 
HETATM   27  C   UNL     1      40.418 -13.678  -3.595  1.00  0.00     0.034 C 
ENDBRANCH  25  26
ENDBRANCH  22  25
ENDBRANCH   1  21
TORSDOF 7
ENDMDL
MODEL 7
REMARK VINA RESULT:      -6.9      5.497      6.572
REMARK  7 active torsions:
REMARK  status: ('A' for Active; 'I' for Inactive)
REMARK    1  A    between atoms: C_2  and  O_3 
REMARK    2  A    between atoms: O_3  and  C_4 
REMARK       I    between atoms: C_4  and  N_5 
REMARK    3  A    between atoms: N_5  and  C_6 
REMARK    4  A    between atoms: C_7  and  N_8 
REMARK    5  A    between atoms: C_11  and  N_12 
REMARK    6  A    between atoms: N_12  and  C_13 
REMARK    7  A    between atoms: C_13  and  C_14 
ROOT
HETATM    1  C   UNL     1      40.207 -14.856   0.606  1.00  0.00     0.080 A 
HETATM    2  C   UNL     1      41.337 -15.161  -0.194  1.00  0.00     0.127 A 
HETATM    3  N   UNL     1      42.043 -16.255   0.116  1.00  0.00    -0.332 N 
HETATM    4  H   UNL     1      42.828 -16.515  -0.470  1.00  0.00     0.168 HD
HETATM    5  C   UNL     1      41.788 -17.078   1.136  1.00  0.00     0.081 A 
HETATM    6  C   UNL     1      40.696 -16.817   1.950  1.00  0.00     0.044 A 
HETATM    7  C   UNL     1      39.894 -15.713   1.670  1.00  0.00     0.037 A 
ENDROOT
BRANCH   5   8
HETATM    8  N   UNL     1      42.679 -18.126   1.293  1.00  0.00    -0.275 NA
HETATM    9  H   UNL     1      43.221 -18.240   0.432  1.00  0.00     0.129 HD
BRANCH   8  10
HETATM   10  C   UNL     1      43.660 -17.937   2.374  1.00  0.00     0.132 C 
BRANCH  10  11
HETATM   11  C   UNL     1      44.044 -19.291   2.914  1.00  0.00    -0.045 A 
HETATM   12  C   UNL     1      44.021 -20.429   2.087  1.00  0.00     0.011 A 
HETATM   13  C   UNL     1      44.359 -21.682   2.601  1.00  0.00     0.043 A 
HETATM   14  C   UNL     1      44.722 -21.802   3.937  1.00  0.00     0.116 A 
HETATM   15  F   UNL     1      45.046 -23.004   4.428  1.00  0.00    -0.206 F 
HETATM   16  C   UNL     1      44.751 -20.692   4.772  1.00  0.00     0.043 A 
HETATM   17  C   UNL     1      44.409 -19.438   4.263  1.00  0.00     0.011 A 
ENDBRANCH  10  11
ENDBRANCH   8  10
ENDBRANCH   5   8
BRANCH   2  18
HETATM   18  N   UNL     1      41.667 -14.525  -1.373  1.00  0.00    -0.384 N 
HETATM   19  H   UNL     1      41.111 -14.843  -2.179  1.00  0.00     0.157 HD
HETATM   20  H   UNL     1      41.815 -13.526  -1.410  1.00  0.00     0.157 HD
ENDBRANCH   2  18
BRANCH   1  21
HETATM   21  N   UNL     1      39.344 -13.750   0.447  1.00  0.00    -0.299 N 
HETATM   22  C   UNL     1      38.516 -13.457  -0.600  1.00  0.00     0.365 C 
HETATM   23  O   UNL     1      38.384 -14.110  -1.624  1.00  0.00    -0.238 OA
HETATM   24  H   UNL     1      39.404 -12.982   1.106  1.00  0.00     0.171 HD
BRANCH  22  25
HETATM   25  O   UNL     1      37.904 -12.277  -0.340  1.00  0.00    -0.304 OA
BRANCH  25  26
HETATM   26  C   UNL     1      37.130 -12.214   0.870  1.00  0.00     0.176 C 
HETATM   27  C   UNL     1      36.898 -10.765   1.259  1.00  0.00     0.034 C 
ENDBRANCH  25  26
ENDBRANCH  22  25
ENDBRANCH   1  21
TORSDOF 7
ENDMDL
MODEL 8
REMARK VINA RESULT:      -6.8      5.534      7.815
REMARK  7 active torsions:
REMARK  status: ('A' for Active; 'I' for Inactive)
REMARK    1  A    between atoms: C_2  and  O_3 
REMARK    2  A    between atoms: O_3  and  C_4 
REMARK       I    between atoms: C_4  and  N_5 
REMARK    3  A    between atoms: N_5  and  C_6 
REMARK    4  A    between atoms: C_7  and  N_8 
REMARK    5  A    between atoms: C_11  and  N_12 
REMARK    6  A    between atoms: N_12  and  C_13 
REMARK    7  A    between atoms: C_13  and  C_14 
ROOT
HETATM    1  C   UNL     1      42.758 -18.038   2.962  1.00  0.00     0.080 A 
HETATM    2  C   UNL     1      41.612 -17.326   3.399  1.00  0.00     0.127 A 
HETATM    3  N   UNL     1      40.985 -16.546   2.509  1.00  0.00    -0.332 N 
HETATM    4  H   UNL     1      40.139 -16.065   2.789  1.00  0.00     0.168 HD
HETATM    5  C   UNL     1      41.362 -16.362   1.242  1.00  0.00     0.081 A 
HETATM    6  C   UNL     1      42.480 -17.032   0.770  1.00  0.00     0.044 A 
HETATM    7  C   UNL     1      43.166 -17.887   1.630  1.00  0.00     0.037 A 
ENDROOT
BRANCH   5   8
HETATM    8  N   UNL     1      40.586 -15.476   0.513  1.00  0.00    -0.275 NA
HETATM    9  H   UNL     1      40.420 -14.634   1.072  1.00  0.00     0.129 HD
BRANCH   8  10
HETATM   10  C   UNL     1      41.201 -15.018  -0.743  1.00  0.00     0.132 C 
BRANCH  10  11
HETATM   11  C   UNL     1      40.144 -15.016  -1.820  1.00  0.00    -0.045 A 
HETATM   12  C   UNL     1      40.284 -15.819  -2.966  1.00  0.00     0.011 A 
HETATM   13  C   UNL     1      39.310 -15.797  -3.966  1.00  0.00     0.043 A 
HETATM   14  C   UNL     1      38.198 -14.976  -3.824  1.00  0.00     0.116 A 
HETATM   15  F   UNL     1      37.266 -14.956  -4.785  1.00  0.00    -0.206 F 
HETATM   16  C   UNL     1      38.040 -14.175  -2.701  1.00  0.00     0.043 A 
HETATM   17  C   UNL     1      39.013 -14.190  -1.701  1.00  0.00     0.011 A 
ENDBRANCH  10  11
ENDBRANCH   8  10
ENDBRANCH   5   8
BRANCH   2  18
HETATM   18  N   UNL     1      40.984 -17.505   4.615  1.00  0.00    -0.384 N 
HETATM   19  H   UNL     1      40.109 -16.971   4.706  1.00  0.00     0.157 HD
HETATM   20  H   UNL     1      40.891 -18.422   5.030  1.00  0.00     0.157 HD
ENDBRANCH   2  18
BRANCH   1  21
HETATM   21  N   UNL     1      43.556 -18.899   3.747  1.00  0.00    -0.299 N 
HETATM   22  C   UNL     1      44.170 -18.643   4.940  1.00  0.00     0.365 C 
HETATM   23  O   UNL     1      44.152 -17.586   5.552  1.00  0.00    -0.238 OA
HETATM   24  H   UNL     1      43.846 -19.789   3.358  1.00  0.00     0.171 HD
BRANCH  22  25
HETATM   25  O   UNL     1      44.859 -19.748   5.309  1.00  0.00    -0.304 OA
BRANCH  25  26
HETATM   26  C   UNL     1      44.866 -20.838   4.371  1.00  0.00     0.176 C 
HETATM   27  C   UNL     1      44.859 -22.160   5.116  1.00  0.00     0.034 C 
ENDBRANCH  25  26
ENDBRANCH  22  25
ENDBRANCH   1  21
TORSDOF 7
ENDMDL
MODEL 9
REMARK VINA RESULT:      -6.8      5.579      8.881
REMARK  7 active torsions:
REMARK  status: ('A' for Active; 'I' for Inactive)
REMARK    1  A    between atoms: C_2  and  O_3 
REMARK    2  A    between atoms: O_3  and  C_4 
REMARK       I    between atoms: C_4  and  N_5 
REMARK    3  A    between atoms: N_5  and  C_6 
REMARK    4  A    between atoms: C_7  and  N_8 
REMARK    5  A    between atoms: C_11  and  N_12 
REMARK    6  A    between atoms: N_12  and  C_13 
REMARK    7  A    between atoms: C_13  and  C_14 
ROOT
HETATM    1  C   UNL     1      41.646 -15.092   4.454  1.00  0.00     0.080 A 
HETATM    2  C   UNL     1      41.369 -15.543   5.769  1.00  0.00     0.127 A 
HETATM    3  N   UNL     1      42.271 -15.279   6.722  1.00  0.00    -0.332 N 
HETATM    4  H   UNL     1      42.071 -15.553   7.677  1.00  0.00     0.168 HD
HETATM    5  C   UNL     1      43.430 -14.644   6.536  1.00  0.00     0.081 A 
HETATM    6  C   UNL     1      43.748 -14.189   5.265  1.00  0.00     0.044 A 
HETATM    7  C   UNL     1      42.842 -14.398   4.227  1.00  0.00     0.037 A 
ENDROOT
BRANCH   5   8
HETATM    8  N   UNL     1      44.230 -14.519   7.660  1.00  0.00    -0.275 NA
HETATM    9  H   UNL     1      44.778 -15.376   7.780  1.00  0.00     0.129 HD
BRANCH   8  10
HETATM   10  C   UNL     1      45.202 -13.416   7.598  1.00  0.00     0.132 C 
BRANCH  10  11
HETATM   11  C   UNL     1      44.847 -12.406   8.660  1.00  0.00    -0.045 A 
HETATM   12  C   UNL     1      43.617 -11.726   8.623  1.00  0.00     0.011 A 
HETATM   13  C   UNL     1      43.304 -10.778   9.600  1.00  0.00     0.043 A 
HETATM   14  C   UNL     1      44.217 -10.509  10.613  1.00  0.00     0.116 A 
HETATM   15  F   UNL     1      43.916  -9.601  11.548  1.00  0.00    -0.206 F 
HETATM   16  C   UNL     1      45.438 -11.169  10.668  1.00  0.00     0.043 A 
HETATM   17  C   UNL     1      45.756 -12.114   9.691  1.00  0.00     0.011 A 
ENDBRANCH  10  11
ENDBRANCH   8  10
ENDBRANCH   5   8
BRANCH   2  18
HETATM   18  N   UNL     1      40.166 -16.075   6.187  1.00  0.00    -0.384 N 
HETATM   19  H   UNL     1      39.349 -15.662   5.715  1.00  0.00     0.157 HD
HETATM   20  H   UNL     1      40.044 -17.071   6.311  1.00  0.00     0.157 HD
ENDBRANCH   2  18
BRANCH   1  21
HETATM   21  N   UNL     1      40.829 -15.277   3.318  1.00  0.00    -0.299 N 
HETATM   22  C   UNL     1      39.836 -14.469   2.839  1.00  0.00     0.365 C 
HETATM   23  O   UNL     1      39.455 -13.420   3.334  1.00  0.00    -0.238 OA
HETATM   24  H   UNL     1      40.855 -16.168   2.835  1.00  0.00     0.171 HD
BRANCH  22  25
HETATM   25  O   UNL     1      39.297 -15.061   1.747  1.00  0.00    -0.304 OA
BRANCH  25  26
HETATM   26  C   UNL     1      38.865 -14.181   0.694  1.00  0.00     0.176 C 
HETATM   27  C   UNL     1      37.350 -14.090   0.687  1.00  0.00     0.034 C 
ENDBRANCH  25  26
ENDBRANCH  22  25
ENDBRANCH   1  21
TORSDOF 7
ENDMDL
MODEL 10
REMARK VINA RESULT:      -6.7      3.405      4.235
REMARK  7 active torsions:
REMARK  status: ('A' for Active; 'I' for Inactive)
REMARK    1  A    between atoms: C_2  and  O_3 
REMARK    2  A    between atoms: O_3  and  C_4 
REMARK       I    between atoms: C_4  and  N_5 
REMARK    3  A    between atoms: N_5  and  C_6 
REMARK    4  A    between atoms: C_7  and  N_8 
REMARK    5  A    between atoms: C_11  and  N_12 
REMARK    6  A    between atoms: N_12  and  C_13 
REMARK    7  A    between atoms: C_13  and  C_14 
ROOT
HETATM    1  C   UNL     1      40.944 -14.047   4.709  1.00  0.00     0.080 A 
HETATM    2  C   UNL     1      40.509 -15.152   3.935  1.00  0.00     0.127 A 
HETATM    3  N   UNL     1      41.003 -16.358   4.239  1.00  0.00    -0.332 N 
HETATM    4  H   UNL     1      40.671 -17.168   3.727  1.00  0.00     0.168 HD
HETATM    5  C   UNL     1      41.895 -16.610   5.199  1.00  0.00     0.081 A 
HETATM    6  C   UNL     1      42.354 -15.559   5.979  1.00  0.00     0.044 A 
HETATM    7  C   UNL     1      41.860 -14.278   5.744  1.00  0.00     0.037 A 
ENDROOT
BRANCH   5   8
HETATM    8  N   UNL     1      42.298 -17.930   5.308  1.00  0.00    -0.275 NA
HETATM    9  H   UNL     1      41.782 -18.497   4.629  1.00  0.00     0.129 HD
BRANCH   8  10
HETATM   10  C   UNL     1      43.725 -18.158   5.031  1.00  0.00     0.132 C 
BRANCH  10  11
HETATM   11  C   UNL     1      43.844 -19.230   3.977  1.00  0.00    -0.045 A 
HETATM   12  C   UNL     1      43.188 -19.097   2.740  1.00  0.00     0.011 A 
HETATM   13  C   UNL     1      43.287 -20.103   1.777  1.00  0.00     0.043 A 
HETATM   14  C   UNL     1      44.040 -21.240   2.046  1.00  0.00     0.116 A 
HETATM   15  F   UNL     1      44.134 -22.203   1.122  1.00  0.00    -0.206 F 
HETATM   16  C   UNL     1      44.696 -21.391   3.261  1.00  0.00     0.043 A 
HETATM   17  C   UNL     1      44.595 -20.390   4.228  1.00  0.00     0.011 A 
ENDBRANCH  10  11
ENDBRANCH   8  10
ENDBRANCH   5   8
BRANCH   2  18
HETATM   18  N   UNL     1      39.486 -15.118   3.011  1.00  0.00    -0.384 N 
HETATM   19  H   UNL     1      39.474 -15.933   2.382  1.00  0.00     0.157 HD
HETATM   20  H   UNL     1      38.546 -14.854   3.273  1.00  0.00     0.157 HD
ENDBRANCH   2  18
BRANCH   1  21
HETATM   21  N   UNL     1      40.547 -12.702   4.542  1.00  0.00    -0.299 N 
HETATM   22  C   UNL     1      39.507 -12.038   5.129  1.00  0.00     0.365 C 
HETATM   23  O   UNL     1      38.699 -12.510   5.914  1.00  0.00    -0.238 OA
HETATM   24  H   UNL     1      40.978 -12.151   3.808  1.00  0.00     0.171 HD
BRANCH  22  25
HETATM   25  O   UNL     1      39.483 -10.774   4.646  1.00  0.00    -0.304 OA
BRANCH  25  26
HETATM   26  C   UNL     1      40.645 -10.348   3.915  1.00  0.00     0.176 C 
HETATM   27  C   UNL     1      40.223  -9.587   2.671  1.00  0.00     0.034 C 
ENDBRANCH  25  26
ENDBRANCH  22  25
ENDBRANCH   1  21
TORSDOF 7
ENDMDL
