MODEL 1
REMARK VINA RESULT:      -9.5      0.000      0.000
REMARK  6 active torsions:
REMARK  status: ('A' for Active; 'I' for Inactive)
REMARK    1  A    between atoms: C_6  and  C_7 
REMARK    2  A    between atoms: C_10  and  O_11 
REMARK    3  A    between atoms: C_15  and  C_16 
REMARK    4  A    between atoms: C_16  and  C_17 
REMARK       I    between atoms: C_17  and  N_18 
REMARK    5  A    between atoms: N_18  and  C_19 
REMARK    6  A    between atoms: C_19  and  C_20 
ROOT
HETATM    1  C   UNL     1      43.313 -14.342   5.494  1.00  0.00     0.146 C 
ENDROOT
BRANCH   1   2
HETATM    2  C   UNL     1      42.040 -15.118   5.588  1.00  0.00     0.006 A 
HETATM    3  C   UNL     1      40.783 -14.575   5.804  1.00  0.00     0.033 A 
HETATM    4  C   UNL     1      40.320 -13.179   5.991  1.00  0.00     0.070 C 
HETATM    5  N   UNL     1      39.920 -15.629   5.823  1.00  0.00    -0.282 N 
HETATM    6  H   UNL     1      38.913 -15.614   5.951  1.00  0.00     0.189 HD
HETATM    7  N   UNL     1      40.516 -16.810   5.663  1.00  0.00    -0.173 NA
HETATM    8  C   UNL     1      41.819 -16.534   5.484  1.00  0.00     0.096 A 
BRANCH   8   9
HETATM    9  C   UNL     1      42.764 -17.640   5.259  1.00  0.00    -0.005 A 
HETATM   10  C   UNL     1      43.129 -18.071   3.980  1.00  0.00     0.016 A 
HETATM   11  C   UNL     1      44.020 -19.139   3.813  1.00  0.00     0.037 A 
HETATM   12  C   UNL     1      44.535 -19.819   4.917  1.00  0.00     0.068 A 
HETATM   13  C   UNL     1      44.182 -19.401   6.196  1.00  0.00     0.037 A 
HETATM   14  C   UNL     1      43.306 -18.321   6.361  1.00  0.00     0.016 A 
BRANCH  12  15
HETATM   15  O   UNL     1      45.374 -20.858   4.619  1.00  0.00    -0.356 OA
HETATM   16  C   UNL     1      44.993 -22.135   5.116  1.00  0.00     0.210 C 
ENDBRANCH  12  15
ENDBRANCH   8   9
ENDBRANCH   1   2
BRANCH   1  17
HETATM   17  C   UNL     1      44.158 -14.321   6.756  1.00  0.00     0.222 C 
HETATM   18  N   UNL     1      44.075 -13.187   7.527  1.00  0.00    -0.350 N 
HETATM   19  H   UNL     1      43.384 -12.477   7.316  1.00  0.00     0.163 HD
HETATM   20  O   UNL     1      44.936 -15.239   7.011  1.00  0.00    -0.273 OA
BRANCH  18  21
HETATM   21  C   UNL     1      45.025 -12.908   8.593  1.00  0.00     0.150 C 
HETATM   22  C   UNL     1      46.250 -12.213   8.003  1.00  0.00     0.040 C 
BRANCH  21  23
HETATM   23  C   UNL     1      44.361 -12.081   9.650  1.00  0.00     0.127 A 
HETATM   24  N   UNL     1      44.256 -10.766   9.687  1.00  0.00    -0.231 NA
HETATM   25  C   UNL     1      43.717 -10.469  10.913  1.00  0.00     0.085 A 
HETATM   26  C   UNL     1      43.445 -11.629  11.630  1.00  0.00     0.062 A 
HETATM   27  C   UNL     1      43.447  -9.221  11.495  1.00  0.00     0.034 A 
HETATM   28  N   UNL     1      43.843 -12.642  10.798  1.00  0.00    -0.341 N 
HETATM   29  C   UNL     1      42.900 -11.622  12.916  1.00  0.00     0.032 A 
HETATM   30  H   UNL     1      43.808 -13.633  11.000  1.00  0.00     0.167 HD
HETATM   31  C   UNL     1      42.642 -10.367  13.483  1.00  0.00     0.002 A 
HETATM   32  C   UNL     1      42.911  -9.185  12.787  1.00  0.00     0.002 A 
ENDBRANCH  21  23
ENDBRANCH  18  21
ENDBRANCH   1  17
TORSDOF 6
ENDMDL
MODEL 2
REMARK VINA RESULT:      -9.0      4.257      7.067
REMARK  6 active torsions:
REMARK  status: ('A' for Active; 'I' for Inactive)
REMARK    1  A    between atoms: C_6  and  C_7 
REMARK    2  A    between atoms: C_10  and  O_11 
REMARK    3  A    between atoms: C_15  and  C_16 
REMARK    4  A    between atoms: C_16  and  C_17 
REMARK       I    between atoms: C_17  and  N_18 
REMARK    5  A    between atoms: N_18  and  C_19 
REMARK    6  A    between atoms: C_19  and  C_20 
ROOT
HETATM    1  C   UNL     1      45.028 -19.462   5.089  1.00  0.00     0.146 C 
ENDROOT
BRANCH   1   2
HETATM    2  C   UNL     1      44.597 -20.420   4.026  1.00  0.00     0.006 A 
HETATM    3  C   UNL     1      44.782 -21.794   4.061  1.00  0.00     0.033 A 
HETATM    4  C   UNL     1      45.403 -22.690   5.067  1.00  0.00     0.070 C 
HETATM    5  N   UNL     1      44.249 -22.271   2.903  1.00  0.00    -0.282 N 
HETATM    6  H   UNL     1      44.196 -23.234   2.585  1.00  0.00     0.189 HD
HETATM    7  N   UNL     1      43.757 -21.320   2.109  1.00  0.00    -0.173 NA
HETATM    8  C   UNL     1      43.926 -20.168   2.781  1.00  0.00     0.096 A 
BRANCH   8   9
HETATM    9  C   UNL     1      43.464 -18.908   2.177  1.00  0.00    -0.005 A 
HETATM   10  C   UNL     1      44.329 -17.846   1.898  1.00  0.00     0.016 A 
HETATM   11  C   UNL     1      43.843 -16.657   1.337  1.00  0.00     0.037 A 
HETATM   12  C   UNL     1      42.482 -16.494   1.076  1.00  0.00     0.068 A 
HETATM   13  C   UNL     1      41.610 -17.544   1.347  1.00  0.00     0.037 A 
HETATM   14  C   UNL     1      42.100 -18.738   1.890  1.00  0.00     0.016 A 
BRANCH  12  15
HETATM   15  O   UNL     1      42.133 -15.280   0.552  1.00  0.00    -0.356 OA
HETATM   16  C   UNL     1      41.108 -15.293  -0.434  1.00  0.00     0.210 C 
ENDBRANCH  12  15
ENDBRANCH   8   9
ENDBRANCH   1   2
BRANCH   1  17
HETATM   17  C   UNL     1      43.911 -18.904   5.954  1.00  0.00     0.222 C 
HETATM   18  N   UNL     1      43.513 -17.617   5.684  1.00  0.00    -0.350 N 
HETATM   19  H   UNL     1      43.866 -17.137   4.865  1.00  0.00     0.163 HD
HETATM   20  O   UNL     1      43.463 -19.552   6.900  1.00  0.00    -0.273 OA
BRANCH  18  21
HETATM   21  C   UNL     1      42.671 -16.863   6.598  1.00  0.00     0.150 C 
HETATM   22  C   UNL     1      43.555 -16.113   7.592  1.00  0.00     0.040 C 
BRANCH  21  23
HETATM   23  C   UNL     1      41.788 -15.939   5.817  1.00  0.00     0.127 A 
HETATM   24  N   UNL     1      41.133 -16.211   4.705  1.00  0.00    -0.231 NA
HETATM   25  C   UNL     1      40.600 -15.018   4.284  1.00  0.00     0.085 A 
HETATM   26  C   UNL     1      40.899 -13.998   5.180  1.00  0.00     0.062 A 
HETATM   27  C   UNL     1      39.861 -14.726   3.128  1.00  0.00     0.034 A 
HETATM   28  N   UNL     1      41.637 -14.612   6.158  1.00  0.00    -0.341 N 
HETATM   29  C   UNL     1      40.489 -12.676   4.995  1.00  0.00     0.032 A 
HETATM   30  H   UNL     1      42.043 -14.167   6.971  1.00  0.00     0.167 HD
HETATM   31  C   UNL     1      39.757 -12.400   3.833  1.00  0.00     0.002 A 
HETATM   32  C   UNL     1      39.448 -13.406   2.913  1.00  0.00     0.002 A 
ENDBRANCH  21  23
ENDBRANCH  18  21
ENDBRANCH   1  17
TORSDOF 6
ENDMDL
MODEL 3
REMARK VINA RESULT:      -8.8      4.815      8.589
REMARK  6 active torsions:
REMARK  status: ('A' for Active; 'I' for Inactive)
REMARK    1  A    between atoms: C_6  and  C_7 
REMARK    2  A    between atoms: C_10  and  O_11 
REMARK    3  A    between atoms: C_15  and  C_16 
REMARK    4  A    between atoms: C_16  and  C_17 
REMARK       I    between atoms: C_17  and  N_18 
REMARK    5  A    between atoms: N_18  and  C_19 
REMARK    6  A    between atoms: C_19  and  C_20 
ROOT
HETATM    1  C   UNL     1      39.570 -16.271   2.020  1.00  0.00     0.146 C 
ENDROOT
BRANCH   1   2
HETATM    2  C   UNL     1      39.476 -14.838   2.432  1.00  0.00     0.006 A 
HETATM    3  C   UNL     1      38.710 -13.870   1.801  1.00  0.00     0.033 A 
HETATM    4  C   UNL     1      37.809 -13.923   0.624  1.00  0.00     0.070 C 
HETATM    5  N   UNL     1      38.920 -12.717   2.496  1.00  0.00    -0.282 N 
HETATM    6  H   UNL     1      38.519 -11.800   2.327  1.00  0.00     0.189 HD
HETATM    7  N   UNL     1      39.778 -12.852   3.507  1.00  0.00    -0.173 NA
HETATM    8  C   UNL     1      40.118 -14.152   3.519  1.00  0.00     0.096 A 
BRANCH   8   9
HETATM    9  C   UNL     1      41.055 -14.641   4.544  1.00  0.00    -0.005 A 
HETATM   10  C   UNL     1      42.319 -14.078   4.739  1.00  0.00     0.016 A 
HETATM   11  C   UNL     1      43.185 -14.586   5.716  1.00  0.00     0.037 A 
HETATM   12  C   UNL     1      42.820 -15.687   6.491  1.00  0.00     0.068 A 
HETATM   13  C   UNL     1      41.564 -16.258   6.309  1.00  0.00     0.037 A 
HETATM   14  C   UNL     1      40.693 -15.736   5.345  1.00  0.00     0.016 A 
BRANCH  12  15
HETATM   15  O   UNL     1      43.763 -16.102   7.390  1.00  0.00    -0.356 OA
HETATM   16  C   UNL     1      43.393 -17.186   8.234  1.00  0.00     0.210 C 
ENDBRANCH  12  15
ENDBRANCH   8   9
ENDBRANCH   1   2
BRANCH   1  17
HETATM   17  C   UNL     1      40.879 -16.676   1.365  1.00  0.00     0.222 C 
HETATM   18  N   UNL     1      41.794 -17.311   2.169  1.00  0.00    -0.350 N 
HETATM   19  H   UNL     1      41.534 -17.602   3.105  1.00  0.00     0.163 HD
HETATM   20  O   UNL     1      41.126 -16.362   0.201  1.00  0.00    -0.273 OA
BRANCH  18  21
HETATM   21  C   UNL     1      43.178 -17.497   1.765  1.00  0.00     0.150 C 
HETATM   22  C   UNL     1      43.991 -16.274   2.183  1.00  0.00     0.040 C 
BRANCH  21  23
HETATM   23  C   UNL     1      43.709 -18.761   2.366  1.00  0.00     0.127 A 
HETATM   24  N   UNL     1      43.820 -19.939   1.781  1.00  0.00    -0.231 NA
HETATM   25  C   UNL     1      44.202 -20.812   2.768  1.00  0.00     0.085 A 
HETATM   26  C   UNL     1      44.371 -20.150   3.978  1.00  0.00     0.062 A 
HETATM   27  C   UNL     1      44.406 -22.199   2.707  1.00  0.00     0.034 A 
HETATM   28  N   UNL     1      44.073 -18.843   3.693  1.00  0.00    -0.341 N 
HETATM   29  C   UNL     1      44.749 -20.797   5.157  1.00  0.00     0.032 A 
HETATM   30  H   UNL     1      44.074 -18.071   4.348  1.00  0.00     0.167 HD
HETATM   31  C   UNL     1      44.943 -22.182   5.079  1.00  0.00     0.002 A 
HETATM   32  C   UNL     1      44.775 -22.874   3.877  1.00  0.00     0.002 A 
ENDBRANCH  21  23
ENDBRANCH  18  21
ENDBRANCH   1  17
TORSDOF 6
ENDMDL
MODEL 4
REMARK VINA RESULT:      -8.8      1.813      2.267
REMARK  6 active torsions:
REMARK  status: ('A' for Active; 'I' for Inactive)
REMARK    1  A    between atoms: C_6  and  C_7 
REMARK    2  A    between atoms: C_10  and  O_11 
REMARK    3  A    between atoms: C_15  and  C_16 
REMARK    4  A    between atoms: C_16  and  C_17 
REMARK       I    between atoms: C_17  and  N_18 
REMARK    5  A    between atoms: N_18  and  C_19 
REMARK    6  A    between atoms: C_19  and  C_20 
ROOT
HETATM    1  C   UNL     1      41.916 -15.855   5.660  1.00  0.00     0.146 C 
ENDROOT
BRANCH   1   2
HETATM    2  C   UNL     1      42.315 -15.541   4.255  1.00  0.00     0.006 A 
HETATM    3  C   UNL     1      42.089 -14.337   3.605  1.00  0.00     0.033 A 
HETATM    4  C   UNL     1      41.443 -13.076   4.043  1.00  0.00     0.070 C 
HETATM    5  N   UNL     1      42.605 -14.485   2.354  1.00  0.00    -0.282 N 
HETATM    6  H   UNL     1      42.628 -13.807   1.599  1.00  0.00     0.189 HD
HETATM    7  N   UNL     1      43.124 -15.692   2.129  1.00  0.00    -0.173 NA
HETATM    8  C   UNL     1      42.992 -16.361   3.288  1.00  0.00     0.096 A 
BRANCH   8   9
HETATM    9  C   UNL     1      43.489 -17.743   3.381  1.00  0.00    -0.005 A 
HETATM   10  C   UNL     1      43.278 -18.689   2.375  1.00  0.00     0.016 A 
HETATM   11  C   UNL     1      43.756 -20.000   2.514  1.00  0.00     0.037 A 
HETATM   12  C   UNL     1      44.422 -20.398   3.673  1.00  0.00     0.068 A 
HETATM   13  C   UNL     1      44.641 -19.466   4.683  1.00  0.00     0.037 A 
HETATM   14  C   UNL     1      44.179 -18.152   4.534  1.00  0.00     0.016 A 
BRANCH  12  15
HETATM   15  O   UNL     1      44.815 -21.707   3.694  1.00  0.00    -0.356 OA
HETATM   16  C   UNL     1      44.951 -22.301   4.980  1.00  0.00     0.210 C 
ENDBRANCH  12  15
ENDBRANCH   8   9
ENDBRANCH   1   2
BRANCH   1  17
HETATM   17  C   UNL     1      42.979 -15.591   6.713  1.00  0.00     0.222 C 
HETATM   18  N   UNL     1      43.516 -14.327   6.735  1.00  0.00    -0.350 N 
HETATM   19  H   UNL     1      43.115 -13.593   6.162  1.00  0.00     0.163 HD
HETATM   20  O   UNL     1      43.388 -16.497   7.437  1.00  0.00    -0.273 OA
BRANCH  18  21
HETATM   21  C   UNL     1      44.724 -14.015   7.482  1.00  0.00     0.150 C 
HETATM   22  C   UNL     1      45.847 -13.678   6.503  1.00  0.00     0.040 C 
BRANCH  21  23
HETATM   23  C   UNL     1      44.447 -12.892   8.433  1.00  0.00     0.127 A 
HETATM   24  N   UNL     1      45.071 -12.634   9.567  1.00  0.00    -0.231 NA
HETATM   25  C   UNL     1      44.367 -11.614  10.157  1.00  0.00     0.085 A 
HETATM   26  C   UNL     1      43.311 -11.208   9.349  1.00  0.00     0.062 A 
HETATM   27  C   UNL     1      44.560 -10.994  11.400  1.00  0.00     0.034 A 
HETATM   28  N   UNL     1      43.396 -12.020   8.248  1.00  0.00    -0.341 N 
HETATM   29  C   UNL     1      42.422 -10.192   9.707  1.00  0.00     0.032 A 
HETATM   30  H   UNL     1      42.771 -12.018   7.452  1.00  0.00     0.167 HD
HETATM   31  C   UNL     1      42.628  -9.587  10.954  1.00  0.00     0.002 A 
HETATM   32  C   UNL     1      43.677  -9.980  11.789  1.00  0.00     0.002 A 
ENDBRANCH  21  23
ENDBRANCH  18  21
ENDBRANCH   1  17
TORSDOF 6
ENDMDL
MODEL 5
REMARK VINA RESULT:      -8.6      4.854      9.513
REMARK  6 active torsions:
REMARK  status: ('A' for Active; 'I' for Inactive)
REMARK    1  A    between atoms: C_6  and  C_7 
REMARK    2  A    between atoms: C_10  and  O_11 
REMARK    3  A    between atoms: C_15  and  C_16 
REMARK    4  A    between atoms: C_16  and  C_17 
REMARK       I    between atoms: C_17  and  N_18 
REMARK    5  A    between atoms: N_18  and  C_19 
REMARK    6  A    between atoms: C_19  and  C_20 
ROOT
HETATM    1  C   UNL     1      44.368 -18.810   1.865  1.00  0.00     0.146 C 
ENDROOT
BRANCH   1   2
HETATM    2  C   UNL     1      44.371 -19.869   2.919  1.00  0.00     0.006 A 
HETATM    3  C   UNL     1      44.388 -21.235   2.684  1.00  0.00     0.033 A 
HETATM    4  C   UNL     1      44.414 -22.030   1.433  1.00  0.00     0.070 C 
HETATM    5  N   UNL     1      44.380 -21.824   3.912  1.00  0.00    -0.282 N 
HETATM    6  H   UNL     1      44.394 -22.815   4.134  1.00  0.00     0.189 HD
HETATM    7  N   UNL     1      44.332 -20.956   4.921  1.00  0.00    -0.173 NA
HETATM    8  C   UNL     1      44.356 -19.739   4.350  1.00  0.00     0.096 A 
BRANCH   8   9
HETATM    9  C   UNL     1      44.332 -18.542   5.205  1.00  0.00    -0.005 A 
HETATM   10  C   UNL     1      45.251 -18.334   6.237  1.00  0.00     0.016 A 
HETATM   11  C   UNL     1      45.180 -17.186   7.038  1.00  0.00     0.037 A 
HETATM   12  C   UNL     1      44.170 -16.244   6.847  1.00  0.00     0.068 A 
HETATM   13  C   UNL     1      43.248 -16.436   5.823  1.00  0.00     0.037 A 
HETATM   14  C   UNL     1      43.333 -17.575   5.012  1.00  0.00     0.016 A 
BRANCH  12  15
HETATM   15  O   UNL     1      44.197 -15.183   7.710  1.00  0.00    -0.356 OA
HETATM   16  C   UNL     1      44.487 -13.914   7.137  1.00  0.00     0.210 C 
ENDBRANCH  12  15
ENDBRANCH   8   9
ENDBRANCH   1   2
BRANCH   1  17
HETATM   17  C   UNL     1      43.074 -18.025   1.733  1.00  0.00     0.222 C 
HETATM   18  N   UNL     1      43.198 -16.669   1.553  1.00  0.00    -0.350 N 
HETATM   19  H   UNL     1      44.109 -16.258   1.386  1.00  0.00     0.163 HD
HETATM   20  O   UNL     1      41.984 -18.578   1.875  1.00  0.00    -0.273 OA
BRANCH  18  21
HETATM   21  C   UNL     1      42.067 -15.766   1.696  1.00  0.00     0.150 C 
HETATM   22  C   UNL     1      42.457 -14.618   2.625  1.00  0.00     0.040 C 
BRANCH  21  23
HETATM   23  C   UNL     1      41.641 -15.280   0.345  1.00  0.00     0.127 A 
HETATM   24  N   UNL     1      41.373 -14.037  -0.008  1.00  0.00    -0.231 NA
HETATM   25  C   UNL     1      40.875 -14.111  -1.284  1.00  0.00     0.085 A 
HETATM   26  C   UNL     1      40.877 -15.423  -1.742  1.00  0.00     0.062 A 
HETATM   27  C   UNL     1      40.381 -13.093  -2.113  1.00  0.00     0.034 A 
HETATM   28  N   UNL     1      41.389 -16.146  -0.696  1.00  0.00    -0.341 N 
HETATM   29  C   UNL     1      40.415 -15.791  -3.008  1.00  0.00     0.032 A 
HETATM   30  H   UNL     1      41.520 -17.149  -0.668  1.00  0.00     0.167 HD
HETATM   31  C   UNL     1      39.919 -14.762  -3.820  1.00  0.00     0.002 A 
HETATM   32  C   UNL     1      39.901 -13.435  -3.382  1.00  0.00     0.002 A 
ENDBRANCH  21  23
ENDBRANCH  18  21
ENDBRANCH   1  17
TORSDOF 6
ENDMDL
MODEL 6
REMARK VINA RESULT:      -8.5      4.481      9.055
REMARK  6 active torsions:
REMARK  status: ('A' for Active; 'I' for Inactive)
REMARK    1  A    between atoms: C_6  and  C_7 
REMARK    2  A    between atoms: C_10  and  O_11 
REMARK    3  A    between atoms: C_15  and  C_16 
REMARK    4  A    between atoms: C_16  and  C_17 
REMARK       I    between atoms: C_17  and  N_18 
REMARK    5  A    between atoms: N_18  and  C_19 
REMARK    6  A    between atoms: C_19  and  C_20 
ROOT
HETATM    1  C   UNL     1      42.439 -13.714   1.913  1.00  0.00     0.146 C 
ENDROOT
BRANCH   1   2
HETATM    2  C   UNL     1      41.044 -14.239   1.794  1.00  0.00     0.006 A 
HETATM    3  C   UNL     1      40.588 -15.088   0.798  1.00  0.00     0.033 A 
HETATM    4  C   UNL     1      41.263 -15.708  -0.368  1.00  0.00     0.070 C 
HETATM    5  N   UNL     1      39.272 -15.308   1.069  1.00  0.00    -0.282 N 
HETATM    6  H   UNL     1      38.612 -15.885   0.557  1.00  0.00     0.189 HD
HETATM    7  N   UNL     1      38.830 -14.651   2.142  1.00  0.00    -0.173 NA
HETATM    8  C   UNL     1      39.902 -14.006   2.634  1.00  0.00     0.096 A 
BRANCH   8   9
HETATM    9  C   UNL     1      39.754 -13.188   3.849  1.00  0.00    -0.005 A 
HETATM   10  C   UNL     1      40.133 -13.644   5.115  1.00  0.00     0.016 A 
HETATM   11  C   UNL     1      39.958 -12.837   6.247  1.00  0.00     0.037 A 
HETATM   12  C   UNL     1      39.370 -11.577   6.142  1.00  0.00     0.068 A 
HETATM   13  C   UNL     1      38.989 -11.109   4.889  1.00  0.00     0.037 A 
HETATM   14  C   UNL     1      39.182 -11.909   3.756  1.00  0.00     0.016 A 
BRANCH  12  15
HETATM   15  O   UNL     1      39.233 -10.901   7.323  1.00  0.00    -0.356 OA
HETATM   16  C   UNL     1      39.177 -11.698   8.501  1.00  0.00     0.210 C 
ENDBRANCH  12  15
ENDBRANCH   8   9
ENDBRANCH   1   2
BRANCH   1  17
HETATM   17  C   UNL     1      43.298 -14.382   2.973  1.00  0.00     0.222 C 
HETATM   18  N   UNL     1      43.058 -15.716   3.202  1.00  0.00    -0.350 N 
HETATM   19  H   UNL     1      42.434 -16.233   2.593  1.00  0.00     0.163 HD
HETATM   20  O   UNL     1      44.095 -13.728   3.643  1.00  0.00    -0.273 OA
BRANCH  18  21
HETATM   21  C   UNL     1      43.593 -16.407   4.364  1.00  0.00     0.150 C 
HETATM   22  C   UNL     1      42.578 -16.332   5.503  1.00  0.00     0.040 C 
BRANCH  21  23
HETATM   23  C   UNL     1      43.926 -17.820   3.996  1.00  0.00     0.127 A 
HETATM   24  N   UNL     1      43.766 -18.398   2.821  1.00  0.00    -0.231 NA
HETATM   25  C   UNL     1      44.058 -19.725   3.015  1.00  0.00     0.085 A 
HETATM   26  C   UNL     1      44.447 -19.960   4.328  1.00  0.00     0.062 A 
HETATM   27  C   UNL     1      43.993 -20.797   2.113  1.00  0.00     0.034 A 
HETATM   28  N   UNL     1      44.377 -18.730   4.928  1.00  0.00    -0.341 N 
HETATM   29  C   UNL     1      44.794 -21.226   4.807  1.00  0.00     0.032 A 
HETATM   30  H   UNL     1      44.575 -18.524   5.898  1.00  0.00     0.167 HD
HETATM   31  C   UNL     1      44.718 -22.286   3.894  1.00  0.00     0.002 A 
HETATM   32  C   UNL     1      44.325 -22.078   2.570  1.00  0.00     0.002 A 
ENDBRANCH  21  23
ENDBRANCH  18  21
ENDBRANCH   1  17
TORSDOF 6
ENDMDL
MODEL 7
REMARK VINA RESULT:      -8.5      4.576      7.985
REMARK  6 active torsions:
REMARK  status: ('A' for Active; 'I' for Inactive)
REMARK    1  A    between atoms: C_6  and  C_7 
REMARK    2  A    between atoms: C_10  and  O_11 
REMARK    3  A    between atoms: C_15  and  C_16 
REMARK    4  A    between atoms: C_16  and  C_17 
REMARK       I    between atoms: C_17  and  N_18 
REMARK    5  A    between atoms: N_18  and  C_19 
REMARK    6  A    between atoms: C_19  and  C_20 
ROOT
HETATM    1  C   UNL     1      43.145 -14.865   5.068  1.00  0.00     0.146 C 
ENDROOT
BRANCH   1   2
HETATM    2  C   UNL     1      41.947 -15.628   5.534  1.00  0.00     0.006 A 
HETATM    3  C   UNL     1      40.721 -15.072   5.867  1.00  0.00     0.033 A 
HETATM    4  C   UNL     1      40.229 -13.673   5.868  1.00  0.00     0.070 C 
HETATM    5  N   UNL     1      39.928 -16.115   6.238  1.00  0.00    -0.282 N 
HETATM    6  H   UNL     1      38.959 -16.092   6.539  1.00  0.00     0.189 HD
HETATM    7  N   UNL     1      40.544 -17.296   6.198  1.00  0.00    -0.173 NA
HETATM    8  C   UNL     1      41.782 -17.040   5.739  1.00  0.00     0.096 A 
BRANCH   8   9
HETATM    9  C   UNL     1      42.727 -18.154   5.560  1.00  0.00    -0.005 A 
HETATM   10  C   UNL     1      43.190 -18.554   4.303  1.00  0.00     0.016 A 
HETATM   11  C   UNL     1      44.077 -19.632   4.179  1.00  0.00     0.037 A 
HETATM   12  C   UNL     1      44.491 -20.350   5.300  1.00  0.00     0.068 A 
HETATM   13  C   UNL     1      44.039 -19.963   6.558  1.00  0.00     0.037 A 
HETATM   14  C   UNL     1      43.167 -18.874   6.682  1.00  0.00     0.016 A 
BRANCH  12  15
HETATM   15  O   UNL     1      45.336 -21.393   5.041  1.00  0.00    -0.356 OA
HETATM   16  C   UNL     1      44.722 -22.641   4.741  1.00  0.00     0.210 C 
ENDBRANCH  12  15
ENDBRANCH   8   9
ENDBRANCH   1   2
BRANCH   1  17
HETATM   17  C   UNL     1      43.263 -14.695   3.564  1.00  0.00     0.222 C 
HETATM   18  N   UNL     1      42.639 -15.643   2.790  1.00  0.00    -0.350 N 
HETATM   19  H   UNL     1      42.028 -16.329   3.220  1.00  0.00     0.163 HD
HETATM   20  O   UNL     1      43.961 -13.803   3.082  1.00  0.00    -0.273 OA
BRANCH  18  21
HETATM   21  C   UNL     1      42.901 -15.771   1.366  1.00  0.00     0.150 C 
HETATM   22  C   UNL     1      43.101 -17.246   1.024  1.00  0.00     0.040 C 
BRANCH  21  23
HETATM   23  C   UNL     1      41.773 -15.160   0.593  1.00  0.00     0.127 A 
HETATM   24  N   UNL     1      40.682 -14.601   1.080  1.00  0.00    -0.231 NA
HETATM   25  C   UNL     1      39.882 -14.337  -0.004  1.00  0.00     0.085 A 
HETATM   26  C   UNL     1      40.514 -14.703  -1.187  1.00  0.00     0.062 A 
HETATM   27  C   UNL     1      38.588 -13.799  -0.052  1.00  0.00     0.034 A 
HETATM   28  N   UNL     1      41.724 -15.204  -0.784  1.00  0.00    -0.341 N 
HETATM   29  C   UNL     1      39.924 -14.554  -2.445  1.00  0.00     0.032 A 
HETATM   30  H   UNL     1      42.445 -15.584  -1.383  1.00  0.00     0.167 HD
HETATM   31  C   UNL     1      38.629 -14.021  -2.473  1.00  0.00     0.002 A 
HETATM   32  C   UNL     1      37.969 -13.650  -1.298  1.00  0.00     0.002 A 
ENDBRANCH  21  23
ENDBRANCH  18  21
ENDBRANCH   1  17
TORSDOF 6
ENDMDL
MODEL 8
REMARK VINA RESULT:      -8.5      5.119      8.970
REMARK  6 active torsions:
REMARK  status: ('A' for Active; 'I' for Inactive)
REMARK    1  A    between atoms: C_6  and  C_7 
REMARK    2  A    between atoms: C_10  and  O_11 
REMARK    3  A    between atoms: C_15  and  C_16 
REMARK    4  A    between atoms: C_16  and  C_17 
REMARK       I    between atoms: C_17  and  N_18 
REMARK    5  A    between atoms: N_18  and  C_19 
REMARK    6  A    between atoms: C_19  and  C_20 
ROOT
HETATM    1  C   UNL     1      42.279 -14.582   3.571  1.00  0.00     0.146 C 
ENDROOT
BRANCH   1   2
HETATM    2  C   UNL     1      41.530 -15.437   4.541  1.00  0.00     0.006 A 
HETATM    3  C   UNL     1      40.556 -14.989   5.420  1.00  0.00     0.033 A 
HETATM    4  C   UNL     1      39.980 -13.645   5.668  1.00  0.00     0.070 C 
HETATM    5  N   UNL     1      40.145 -16.088   6.113  1.00  0.00    -0.282 N 
HETATM    6  H   UNL     1      39.437 -16.145   6.838  1.00  0.00     0.189 HD
HETATM    7  N   UNL     1      40.789 -17.204   5.774  1.00  0.00    -0.173 NA
HETATM    8  C   UNL     1      41.629 -16.849   4.786  1.00  0.00     0.096 A 
BRANCH   8   9
HETATM    9  C   UNL     1      42.488 -17.873   4.169  1.00  0.00    -0.005 A 
HETATM   10  C   UNL     1      42.408 -18.206   2.815  1.00  0.00     0.016 A 
HETATM   11  C   UNL     1      43.235 -19.200   2.273  1.00  0.00     0.037 A 
HETATM   12  C   UNL     1      44.130 -19.902   3.080  1.00  0.00     0.068 A 
HETATM   13  C   UNL     1      44.222 -19.580   4.431  1.00  0.00     0.037 A 
HETATM   14  C   UNL     1      43.408 -18.574   4.966  1.00  0.00     0.016 A 
BRANCH  12  15
HETATM   15  O   UNL     1      44.860 -20.863   2.436  1.00  0.00    -0.356 OA
HETATM   16  C   UNL     1      44.118 -21.824   1.694  1.00  0.00     0.210 C 
ENDBRANCH  12  15
ENDBRANCH   8   9
ENDBRANCH   1   2
BRANCH   1  17
HETATM   17  C   UNL     1      41.469 -14.073   2.391  1.00  0.00     0.222 C 
HETATM   18  N   UNL     1      42.113 -13.217   1.531  1.00  0.00    -0.350 N 
HETATM   19  H   UNL     1      43.109 -13.056   1.625  1.00  0.00     0.163 HD
HETATM   20  O   UNL     1      40.275 -14.350   2.278  1.00  0.00    -0.273 OA
BRANCH  18  21
HETATM   21  C   UNL     1      41.394 -12.436   0.537  1.00  0.00     0.150 C 
HETATM   22  C   UNL     1      42.358 -11.449  -0.118  1.00  0.00     0.040 C 
BRANCH  21  23
HETATM   23  C   UNL     1      40.764 -13.357  -0.461  1.00  0.00     0.127 A 
HETATM   24  N   UNL     1      41.363 -14.289  -1.178  1.00  0.00    -0.231 NA
HETATM   25  C   UNL     1      40.415 -14.753  -2.055  1.00  0.00     0.085 A 
HETATM   26  C   UNL     1      39.195 -14.122  -1.845  1.00  0.00     0.062 A 
HETATM   27  C   UNL     1      40.532 -15.705  -3.079  1.00  0.00     0.034 A 
HETATM   28  N   UNL     1      39.435 -13.255  -0.812  1.00  0.00    -0.341 N 
HETATM   29  C   UNL     1      38.054 -14.395  -2.604  1.00  0.00     0.032 A 
HETATM   30  H   UNL     1      38.770 -12.612  -0.402  1.00  0.00     0.167 HD
HETATM   31  C   UNL     1      38.190 -15.344  -3.626  1.00  0.00     0.002 A 
HETATM   32  C   UNL     1      39.407 -15.989  -3.862  1.00  0.00     0.002 A 
ENDBRANCH  21  23
ENDBRANCH  18  21
ENDBRANCH   1  17
TORSDOF 6
ENDMDL
MODEL 9
REMARK VINA RESULT:      -8.4      5.044      8.196
REMARK  6 active torsions:
REMARK  status: ('A' for Active; 'I' for Inactive)
REMARK    1  A    between atoms: C_6  and  C_7 
REMARK    2  A    between atoms: C_10  and  O_11 
REMARK    3  A    between atoms: C_15  and  C_16 
REMARK    4  A    between atoms: C_16  and  C_17 
REMARK       I    between atoms: C_17  and  N_18 
REMARK    5  A    between atoms: N_18  and  C_19 
REMARK    6  A    between atoms: C_19  and  C_20 
ROOT
HETATM    1  C   UNL     1      42.836 -14.568   4.231  1.00  0.00     0.146 C 
ENDROOT
BRANCH   1   2
HETATM    2  C   UNL     1      41.833 -15.432   4.924  1.00  0.00     0.006 A 
HETATM    3  C   UNL     1      40.756 -14.975   5.667  1.00  0.00     0.033 A 
HETATM    4  C   UNL     1      40.277 -13.610   5.990  1.00  0.00     0.070 C 
HETATM    5  N   UNL     1      40.113 -16.089   6.116  1.00  0.00    -0.282 N 
HETATM    6  H   UNL     1      39.276 -16.144   6.687  1.00  0.00     0.189 HD
HETATM    7  N   UNL     1      40.699 -17.229   5.748  1.00  0.00    -0.173 NA
HETATM    8  C   UNL     1      41.744 -16.865   4.985  1.00  0.00     0.096 A 
BRANCH   8   9
HETATM    9  C   UNL     1      42.602 -17.907   4.398  1.00  0.00    -0.005 A 
HETATM   10  C   UNL     1      42.434 -18.372   3.091  1.00  0.00     0.016 A 
HETATM   11  C   UNL     1      43.265 -19.378   2.578  1.00  0.00     0.037 A 
HETATM   12  C   UNL     1      44.253 -19.961   3.370  1.00  0.00     0.068 A 
HETATM   13  C   UNL     1      44.433 -19.507   4.673  1.00  0.00     0.037 A 
HETATM   14  C   UNL     1      43.615 -18.489   5.178  1.00  0.00     0.016 A 
BRANCH  12  15
HETATM   15  O   UNL     1      44.978 -20.948   2.760  1.00  0.00    -0.356 OA
HETATM   16  C   UNL     1      44.245 -21.849   1.938  1.00  0.00     0.210 C 
ENDBRANCH  12  15
ENDBRANCH   8   9
ENDBRANCH   1   2
BRANCH   1  17
HETATM   17  C   UNL     1      42.949 -14.776   2.731  1.00  0.00     0.222 C 
HETATM   18  N   UNL     1      41.935 -14.256   1.963  1.00  0.00    -0.350 N 
HETATM   19  H   UNL     1      41.234 -13.657   2.384  1.00  0.00     0.163 HD
HETATM   20  O   UNL     1      43.858 -15.454   2.254  1.00  0.00    -0.273 OA
BRANCH  18  21
HETATM   21  C   UNL     1      41.761 -14.618   0.566  1.00  0.00     0.150 C 
HETATM   22  C   UNL     1      40.318 -15.063   0.339  1.00  0.00     0.040 C 
BRANCH  21  23
HETATM   23  C   UNL     1      42.139 -13.458  -0.302  1.00  0.00     0.127 A 
HETATM   24  N   UNL     1      42.448 -12.235   0.089  1.00  0.00    -0.231 NA
HETATM   25  C   UNL     1      42.560 -11.494  -1.060  1.00  0.00     0.085 A 
HETATM   26  C   UNL     1      42.357 -12.286  -2.184  1.00  0.00     0.062 A 
HETATM   27  C   UNL     1      42.816 -10.124  -1.220  1.00  0.00     0.034 A 
HETATM   28  N   UNL     1      42.112 -13.536  -1.678  1.00  0.00    -0.341 N 
HETATM   29  C   UNL     1      42.404 -11.788  -3.489  1.00  0.00     0.032 A 
HETATM   30  H   UNL     1      41.902 -14.369  -2.212  1.00  0.00     0.167 HD
HETATM   31  C   UNL     1      42.655 -10.417  -3.629  1.00  0.00     0.002 A 
HETATM   32  C   UNL     1      42.857  -9.596  -2.516  1.00  0.00     0.002 A 
ENDBRANCH  21  23
ENDBRANCH  18  21
ENDBRANCH   1  17
TORSDOF 6
ENDMDL
MODEL 10
REMARK VINA RESULT:      -8.4      4.948      9.520
REMARK  6 active torsions:
REMARK  status: ('A' for Active; 'I' for Inactive)
REMARK    1  A    between atoms: C_6  and  C_7 
REMARK    2  A    between atoms: C_10  and  O_11 
REMARK    3  A    between atoms: C_15  and  C_16 
REMARK    4  A    between atoms: C_16  and  C_17 
REMARK       I    between atoms: C_17  and  N_18 
REMARK    5  A    between atoms: N_18  and  C_19 
REMARK    6  A    between atoms: C_19  and  C_20 
ROOT
HETATM    1  C   UNL     1      44.216 -18.494   2.976  1.00  0.00     0.146 C 
ENDROOT
BRANCH   1   2
HETATM    2  C   UNL     1      43.961 -18.860   4.402  1.00  0.00     0.006 A 
HETATM    3  C   UNL     1      44.382 -20.027   5.020  1.00  0.00     0.033 A 
HETATM    4  C   UNL     1      45.156 -21.192   4.526  1.00  0.00     0.070 C 
HETATM    5  N   UNL     1      43.934 -19.952   6.304  1.00  0.00    -0.282 N 
HETATM    6  H   UNL     1      44.060 -20.625   7.054  1.00  0.00     0.189 HD
HETATM    7  N   UNL     1      43.237 -18.846   6.563  1.00  0.00    -0.173 NA
HETATM    8  C   UNL     1      43.258 -18.133   5.424  1.00  0.00     0.096 A 
BRANCH   8   9
HETATM    9  C   UNL     1      42.581 -16.827   5.380  1.00  0.00    -0.005 A 
HETATM   10  C   UNL     1      43.212 -15.666   4.925  1.00  0.00     0.016 A 
HETATM   11  C   UNL     1      42.533 -14.440   4.916  1.00  0.00     0.037 A 
HETATM   12  C   UNL     1      41.226 -14.343   5.393  1.00  0.00     0.068 A 
HETATM   13  C   UNL     1      40.584 -15.491   5.848  1.00  0.00     0.037 A 
HETATM   14  C   UNL     1      41.258 -16.719   5.839  1.00  0.00     0.016 A 
BRANCH  12  15
HETATM   15  O   UNL     1      40.686 -13.088   5.354  1.00  0.00    -0.356 OA
HETATM   16  C   UNL     1      39.419 -12.929   5.982  1.00  0.00     0.210 C 
ENDBRANCH  12  15
ENDBRANCH   8   9
ENDBRANCH   1   2
BRANCH   1  17
HETATM   17  C   UNL     1      42.987 -18.451   2.085  1.00  0.00     0.222 C 
HETATM   18  N   UNL     1      42.572 -17.207   1.676  1.00  0.00    -0.350 N 
HETATM   19  H   UNL     1      43.148 -16.393   1.860  1.00  0.00     0.163 HD
HETATM   20  O   UNL     1      42.356 -19.476   1.830  1.00  0.00    -0.273 OA
BRANCH  18  21
HETATM   21  C   UNL     1      41.269 -16.989   1.069  1.00  0.00     0.150 C 
HETATM   22  C   UNL     1      40.267 -16.606   2.156  1.00  0.00     0.040 C 
BRANCH  21  23
HETATM   23  C   UNL     1      41.381 -15.938   0.008  1.00  0.00     0.127 A 
HETATM   24  N   UNL     1      41.860 -14.716   0.142  1.00  0.00    -0.231 NA
HETATM   25  C   UNL     1      41.609 -14.084  -1.050  1.00  0.00     0.085 A 
HETATM   26  C   UNL     1      41.000 -14.949  -1.951  1.00  0.00     0.062 A 
HETATM   27  C   UNL     1      41.857 -12.756  -1.429  1.00  0.00     0.034 A 
HETATM   28  N   UNL     1      40.885 -16.128  -1.264  1.00  0.00    -0.341 N 
HETATM   29  C   UNL     1      40.623 -14.566  -3.241  1.00  0.00     0.032 A 
HETATM   30  H   UNL     1      40.468 -16.984  -1.607  1.00  0.00     0.167 HD
HETATM   31  C   UNL     1      40.873 -13.235  -3.601  1.00  0.00     0.002 A 
HETATM   32  C   UNL     1      41.479 -12.343  -2.712  1.00  0.00     0.002 A 
ENDBRANCH  21  23
ENDBRANCH  18  21
ENDBRANCH   1  17
TORSDOF 6
ENDMDL
