MODEL 1
REMARK VINA RESULT:      -9.3      0.000      0.000
REMARK  10 active torsions:
REMARK  status: ('A' for Active; 'I' for Inactive)
REMARK    1  A    between atoms: C_8  and  C_9 
REMARK    2  A    between atoms: N_14  and  C_15 
REMARK    3  A    between atoms: C_15  and  C_16 
REMARK    4  A    between atoms: C_16  and  C_17 
REMARK    5  A    between atoms: C_20  and  O_21 
REMARK    6  A    between atoms: C_27  and  N_28 
REMARK    7  A    between atoms: N_28  and  C_29 
REMARK    8  A    between atoms: C_29  and  C_30 
REMARK    9  A    between atoms: C_30  and  O_31 
REMARK   10  A    between atoms: C_30  and  C_32 
ROOT
HETATM    1  C   UNL     1      44.458 -17.538   6.748  1.00  0.00     0.052 C 
HETATM    2  C   UNL     1      44.105 -16.102   6.514  1.00  0.00    -0.015 A 
HETATM    3  C   UNL     1      43.155 -15.792   5.390  1.00  0.00     0.144 A 
HETATM    4  N   UNL     1      42.774 -16.746   4.601  1.00  0.00    -0.217 NA
HETATM    5  N   UNL     1      42.732 -14.479   5.265  1.00  0.00    -0.272 N 
HETATM    6  C   UNL     1      41.800 -14.150   4.294  1.00  0.00     0.266 C 
HETATM    7  O   UNL     1      41.399 -13.004   4.079  1.00  0.00    -0.267 OA
HETATM    8  C   UNL     1      41.272 -15.280   3.475  1.00  0.00     0.074 C 
HETATM    9  C   UNL     1      41.854 -16.493   3.623  1.00  0.00     0.121 C 
HETATM   10  C   UNL     1      43.249 -13.478   6.079  1.00  0.00     0.102 A 
HETATM   11  C   UNL     1      44.139 -13.740   7.041  1.00  0.00     0.018 A 
HETATM   12  C   UNL     1      44.558 -15.096   7.278  1.00  0.00     0.012 A 
ENDROOT
BRANCH   8  13
HETATM   13  C   UNL     1      40.156 -15.003   2.576  1.00  0.00     0.045 C 
HETATM   14  C   UNL     1      40.263 -14.518   1.330  1.00  0.00     0.077 A 
HETATM   15  S   UNL     1      41.705 -14.147   0.469  1.00  0.00    -0.055 SA
HETATM   16  C   UNL     1      39.076 -14.163   0.509  1.00  0.00     0.266 A 
HETATM   17  C   UNL     1      40.834 -13.353  -0.831  1.00  0.00     0.148 A 
HETATM   18  S   UNL     1      41.625 -12.564  -2.071  1.00  0.00    -0.052 SA
HETATM   19  N   UNL     1      39.474 -13.493  -0.635  1.00  0.00    -0.298 N 
HETATM   20  O   UNL     1      37.925 -14.406   0.843  1.00  0.00    -0.266 OA
BRANCH  19  21
HETATM   21  C   UNL     1      38.455 -12.986  -1.556  1.00  0.00     0.138 C 
BRANCH  21  22
HETATM   22  C   UNL     1      38.255 -13.917  -2.758  1.00  0.00     0.059 C 
BRANCH  22  23
HETATM   23  C   UNL     1      37.054 -13.531  -3.584  1.00  0.00    -0.057 A 
HETATM   24  C   UNL     1      36.402 -14.485  -4.376  1.00  0.00     0.010 A 
HETATM   25  C   UNL     1      35.290 -14.127  -5.139  1.00  0.00     0.037 A 
HETATM   26  C   UNL     1      34.797 -12.821  -5.111  1.00  0.00     0.068 A 
HETATM   27  C   UNL     1      35.444 -11.867  -4.327  1.00  0.00     0.037 A 
HETATM   28  C   UNL     1      36.567 -12.219  -3.569  1.00  0.00     0.010 A 
BRANCH  26  29
HETATM   29  O   UNL     1      33.696 -12.608  -5.894  1.00  0.00    -0.356 OA
HETATM   30  C   UNL     1      32.746 -11.666  -5.411  1.00  0.00     0.210 C 
ENDBRANCH  26  29
ENDBRANCH  22  23
ENDBRANCH  21  22
ENDBRANCH  19  21
ENDBRANCH   8  13
BRANCH   9  31
HETATM   31  N   UNL     1      41.517 -17.597   2.848  1.00  0.00    -0.274 NA
HETATM   32  H   UNL     1      41.653 -18.433   3.423  1.00  0.00     0.129 HD
BRANCH  31  33
HETATM   33  C   UNL     1      41.960 -17.798   1.462  1.00  0.00     0.130 C 
BRANCH  33  34
HETATM   34  C   UNL     1      43.446 -18.235   1.406  1.00  0.00     0.164 C 
BRANCH  34  35
HETATM   35  O   UNL     1      44.289 -17.164   1.857  1.00  0.00    -0.390 OA
HETATM   36  H   UNL     1      44.441 -16.565   1.103  1.00  0.00     0.210 HD
ENDBRANCH  34  35
BRANCH  34  37
HETATM   37  C   UNL     1      43.841 -19.491   2.161  1.00  0.00    -0.029 A 
HETATM   38  C   UNL     1      43.588 -20.790   1.698  1.00  0.00     0.010 A 
HETATM   39  C   UNL     1      43.988 -21.908   2.438  1.00  0.00     0.001 A 
HETATM   40  C   UNL     1      44.648 -21.744   3.653  1.00  0.00     0.000 A 
HETATM   41  C   UNL     1      44.906 -20.463   4.132  1.00  0.00     0.001 A 
HETATM   42  C   UNL     1      44.505 -19.348   3.393  1.00  0.00     0.010 A 
ENDBRANCH  34  37
ENDBRANCH  33  34
ENDBRANCH  31  33
ENDBRANCH   9  31
TORSDOF 10
ENDMDL
MODEL 2
REMARK VINA RESULT:      -9.3      2.107      5.470
REMARK  10 active torsions:
REMARK  status: ('A' for Active; 'I' for Inactive)
REMARK    1  A    between atoms: C_8  and  C_9 
REMARK    2  A    between atoms: N_14  and  C_15 
REMARK    3  A    between atoms: C_15  and  C_16 
REMARK    4  A    between atoms: C_16  and  C_17 
REMARK    5  A    between atoms: C_20  and  O_21 
REMARK    6  A    between atoms: C_27  and  N_28 
REMARK    7  A    between atoms: N_28  and  C_29 
REMARK    8  A    between atoms: C_29  and  C_30 
REMARK    9  A    between atoms: C_30  and  O_31 
REMARK   10  A    between atoms: C_30  and  C_32 
ROOT
HETATM    1  C   UNL     1      44.400 -19.342   6.610  1.00  0.00     0.052 C 
HETATM    2  C   UNL     1      44.266 -19.447   5.123  1.00  0.00    -0.015 A 
HETATM    3  C   UNL     1      43.768 -18.238   4.380  1.00  0.00     0.144 A 
HETATM    4  N   UNL     1      43.366 -17.204   5.049  1.00  0.00    -0.217 NA
HETATM    5  N   UNL     1      43.773 -18.300   2.996  1.00  0.00    -0.272 N 
HETATM    6  C   UNL     1      43.394 -17.189   2.260  1.00  0.00     0.266 C 
HETATM    7  O   UNL     1      43.324 -17.165   1.029  1.00  0.00    -0.267 OA
HETATM    8  C   UNL     1      43.057 -15.963   3.041  1.00  0.00     0.074 C 
HETATM    9  C   UNL     1      42.983 -16.072   4.388  1.00  0.00     0.121 C 
HETATM   10  C   UNL     1      44.122 -19.469   2.331  1.00  0.00     0.102 A 
HETATM   11  C   UNL     1      44.508 -20.567   2.990  1.00  0.00     0.018 A 
HETATM   12  C   UNL     1      44.605 -20.543   4.425  1.00  0.00     0.012 A 
ENDROOT
BRANCH   8  13
HETATM   13  C   UNL     1      42.839 -14.725   2.299  1.00  0.00     0.045 C 
HETATM   14  C   UNL     1      41.648 -14.259   1.896  1.00  0.00     0.077 A 
HETATM   15  S   UNL     1      40.100 -14.953   2.179  1.00  0.00    -0.055 SA
HETATM   16  C   UNL     1      41.512 -13.042   1.055  1.00  0.00     0.266 A 
HETATM   17  C   UNL     1      39.301 -13.849   1.074  1.00  0.00     0.148 A 
HETATM   18  S   UNL     1      37.682 -13.998   0.694  1.00  0.00    -0.052 SA
HETATM   19  N   UNL     1      40.206 -12.914   0.613  1.00  0.00    -0.298 N 
HETATM   20  O   UNL     1      42.446 -12.302   0.778  1.00  0.00    -0.266 OA
BRANCH  19  21
HETATM   21  C   UNL     1      39.864 -11.818  -0.295  1.00  0.00     0.138 C 
BRANCH  21  22
HETATM   22  C   UNL     1      40.296 -12.112  -1.737  1.00  0.00     0.059 C 
BRANCH  22  23
HETATM   23  C   UNL     1      39.246 -12.881  -2.500  1.00  0.00    -0.057 A 
HETATM   24  C   UNL     1      38.028 -12.274  -2.835  1.00  0.00     0.010 A 
HETATM   25  C   UNL     1      37.058 -12.985  -3.542  1.00  0.00     0.037 A 
HETATM   26  C   UNL     1      37.290 -14.302  -3.943  1.00  0.00     0.068 A 
HETATM   27  C   UNL     1      38.499 -14.911  -3.610  1.00  0.00     0.037 A 
HETATM   28  C   UNL     1      39.471 -14.205  -2.891  1.00  0.00     0.010 A 
BRANCH  26  29
HETATM   29  O   UNL     1      36.264 -14.878  -4.639  1.00  0.00    -0.356 OA
HETATM   30  C   UNL     1      35.302 -13.994  -5.202  1.00  0.00     0.210 C 
ENDBRANCH  26  29
ENDBRANCH  22  23
ENDBRANCH  21  22
ENDBRANCH  19  21
ENDBRANCH   8  13
BRANCH   9  31
HETATM   31  N   UNL     1      42.582 -15.028   5.214  1.00  0.00    -0.274 NA
HETATM   32  H   UNL     1      41.705 -14.657   4.841  1.00  0.00     0.129 HD
BRANCH  31  33
HETATM   33  C   UNL     1      43.477 -13.967   5.693  1.00  0.00     0.130 C 
BRANCH  33  34
HETATM   34  C   UNL     1      44.083 -14.325   7.075  1.00  0.00     0.164 C 
BRANCH  34  35
HETATM   35  O   UNL     1      44.860 -15.529   6.971  1.00  0.00    -0.390 OA
HETATM   36  H   UNL     1      44.725 -15.895   6.078  1.00  0.00     0.210 HD
ENDBRANCH  34  35
BRANCH  34  37
HETATM   37  C   UNL     1      44.935 -13.276   7.765  1.00  0.00    -0.029 A 
HETATM   38  C   UNL     1      46.227 -12.924   7.346  1.00  0.00     0.010 A 
HETATM   39  C   UNL     1      46.957 -11.939   8.019  1.00  0.00     0.001 A 
HETATM   40  C   UNL     1      46.407 -11.290   9.122  1.00  0.00     0.000 A 
HETATM   41  C   UNL     1      45.129 -11.628   9.556  1.00  0.00     0.001 A 
HETATM   42  C   UNL     1      44.401 -12.612   8.884  1.00  0.00     0.010 A 
ENDBRANCH  34  37
ENDBRANCH  33  34
ENDBRANCH  31  33
ENDBRANCH   9  31
TORSDOF 10
ENDMDL
MODEL 3
REMARK VINA RESULT:      -9.2      2.113      2.629
REMARK  10 active torsions:
REMARK  status: ('A' for Active; 'I' for Inactive)
REMARK    1  A    between atoms: C_8  and  C_9 
REMARK    2  A    between atoms: N_14  and  C_15 
REMARK    3  A    between atoms: C_15  and  C_16 
REMARK    4  A    between atoms: C_16  and  C_17 
REMARK    5  A    between atoms: C_20  and  O_21 
REMARK    6  A    between atoms: C_27  and  N_28 
REMARK    7  A    between atoms: N_28  and  C_29 
REMARK    8  A    between atoms: C_29  and  C_30 
REMARK    9  A    between atoms: C_30  and  O_31 
REMARK   10  A    between atoms: C_30  and  C_32 
ROOT
HETATM    1  C   UNL     1      44.496 -17.322   6.646  1.00  0.00     0.052 C 
HETATM    2  C   UNL     1      44.071 -15.903   6.432  1.00  0.00    -0.015 A 
HETATM    3  C   UNL     1      43.068 -15.631   5.344  1.00  0.00     0.144 A 
HETATM    4  N   UNL     1      42.702 -16.598   4.565  1.00  0.00    -0.217 NA
HETATM    5  N   UNL     1      42.582 -14.338   5.242  1.00  0.00    -0.272 N 
HETATM    6  C   UNL     1      41.603 -14.048   4.306  1.00  0.00     0.266 C 
HETATM    7  O   UNL     1      41.143 -12.920   4.112  1.00  0.00    -0.267 OA
HETATM    8  C   UNL     1      41.096 -15.197   3.501  1.00  0.00     0.074 C 
HETATM    9  C   UNL     1      41.736 -16.384   3.622  1.00  0.00     0.121 C 
HETATM   10  C   UNL     1      43.083 -13.317   6.041  1.00  0.00     0.102 A 
HETATM   11  C   UNL     1      44.018 -13.543   6.970  1.00  0.00     0.018 A 
HETATM   12  C   UNL     1      44.506 -14.879   7.184  1.00  0.00     0.012 A 
ENDROOT
BRANCH   8  13
HETATM   13  C   UNL     1      39.937 -14.968   2.644  1.00  0.00     0.045 C 
HETATM   14  C   UNL     1      39.983 -14.571   1.364  1.00  0.00     0.077 A 
HETATM   15  S   UNL     1      41.381 -14.280   0.405  1.00  0.00    -0.055 SA
HETATM   16  C   UNL     1      38.758 -14.257   0.584  1.00  0.00     0.266 A 
HETATM   17  C   UNL     1      40.451 -13.566  -0.900  1.00  0.00     0.148 A 
HETATM   18  S   UNL     1      41.183 -12.875  -2.231  1.00  0.00    -0.052 SA
HETATM   19  N   UNL     1      39.102 -13.674  -0.624  1.00  0.00    -0.298 N 
HETATM   20  O   UNL     1      37.624 -14.461   0.993  1.00  0.00    -0.266 OA
BRANCH  19  21
HETATM   21  C   UNL     1      38.041 -13.217  -1.523  1.00  0.00     0.138 C 
BRANCH  21  22
HETATM   22  C   UNL     1      37.851 -11.696  -1.458  1.00  0.00     0.059 C 
BRANCH  22  23
HETATM   23  C   UNL     1      36.481 -11.314  -0.957  1.00  0.00    -0.057 A 
HETATM   24  C   UNL     1      36.196 -11.339   0.414  1.00  0.00     0.010 A 
HETATM   25  C   UNL     1      34.929 -10.985   0.878  1.00  0.00     0.037 A 
HETATM   26  C   UNL     1      33.931 -10.582  -0.012  1.00  0.00     0.068 A 
HETATM   27  C   UNL     1      34.209 -10.558  -1.378  1.00  0.00     0.037 A 
HETATM   28  C   UNL     1      35.475 -10.924  -1.848  1.00  0.00     0.010 A 
BRANCH  26  29
HETATM   29  O   UNL     1      32.741 -10.250   0.574  1.00  0.00    -0.356 OA
HETATM   30  C   UNL     1      32.596 -10.579   1.950  1.00  0.00     0.210 C 
ENDBRANCH  26  29
ENDBRANCH  22  23
ENDBRANCH  21  22
ENDBRANCH  19  21
ENDBRANCH   8  13
BRANCH   9  31
HETATM   31  N   UNL     1      41.422 -17.499   2.854  1.00  0.00    -0.274 NA
HETATM   32  H   UNL     1      41.535 -18.326   3.447  1.00  0.00     0.129 HD
BRANCH  31  33
HETATM   33  C   UNL     1      41.909 -17.723   1.487  1.00  0.00     0.130 C 
BRANCH  33  34
HETATM   34  C   UNL     1      43.413 -18.100   1.483  1.00  0.00     0.164 C 
BRANCH  34  35
HETATM   35  O   UNL     1      44.193 -17.006   1.992  1.00  0.00    -0.390 OA
HETATM   36  H   UNL     1      43.743 -16.178   1.746  1.00  0.00     0.210 HD
ENDBRANCH  34  35
BRANCH  34  37
HETATM   37  C   UNL     1      43.828 -19.356   2.226  1.00  0.00    -0.029 A 
HETATM   38  C   UNL     1      44.415 -19.349   3.500  1.00  0.00     0.010 A 
HETATM   39  C   UNL     1      44.764 -20.544   4.137  1.00  0.00     0.001 A 
HETATM   40  C   UNL     1      44.532 -21.766   3.511  1.00  0.00     0.000 A 
HETATM   41  C   UNL     1      43.954 -21.795   2.246  1.00  0.00     0.001 A 
HETATM   42  C   UNL     1      43.606 -20.601   1.610  1.00  0.00     0.010 A 
ENDBRANCH  34  37
ENDBRANCH  33  34
ENDBRANCH  31  33
ENDBRANCH   9  31
TORSDOF 10
ENDMDL
MODEL 4
REMARK VINA RESULT:      -9.1      2.797      6.023
REMARK  10 active torsions:
REMARK  status: ('A' for Active; 'I' for Inactive)
REMARK    1  A    between atoms: C_8  and  C_9 
REMARK    2  A    between atoms: N_14  and  C_15 
REMARK    3  A    between atoms: C_15  and  C_16 
REMARK    4  A    between atoms: C_16  and  C_17 
REMARK    5  A    between atoms: C_20  and  O_21 
REMARK    6  A    between atoms: C_27  and  N_28 
REMARK    7  A    between atoms: N_28  and  C_29 
REMARK    8  A    between atoms: C_29  and  C_30 
REMARK    9  A    between atoms: C_30  and  O_31 
REMARK   10  A    between atoms: C_30  and  C_32 
ROOT
HETATM    1  C   UNL     1      44.834 -21.732   5.484  1.00  0.00     0.052 C 
HETATM    2  C   UNL     1      44.454 -21.389   4.077  1.00  0.00    -0.015 A 
HETATM    3  C   UNL     1      44.045 -19.971   3.792  1.00  0.00     0.144 A 
HETATM    4  N   UNL     1      43.922 -19.136   4.774  1.00  0.00    -0.217 NA
HETATM    5  N   UNL     1      43.823 -19.632   2.467  1.00  0.00    -0.272 N 
HETATM    6  C   UNL     1      43.516 -18.321   2.138  1.00  0.00     0.266 C 
HETATM    7  O   UNL     1      43.260 -17.936   0.995  1.00  0.00    -0.267 OA
HETATM    8  C   UNL     1      43.504 -17.343   3.264  1.00  0.00     0.074 C 
HETATM    9  C   UNL     1      43.625 -17.827   4.523  1.00  0.00     0.121 C 
HETATM   10  C   UNL     1      43.874 -20.591   1.462  1.00  0.00     0.102 A 
HETATM   11  C   UNL     1      44.179 -21.867   1.720  1.00  0.00     0.018 A 
HETATM   12  C   UNL     1      44.501 -22.268   3.063  1.00  0.00     0.012 A 
ENDROOT
BRANCH   8  13
HETATM   13  C   UNL     1      43.373 -15.928   2.932  1.00  0.00     0.045 C 
HETATM   14  C   UNL     1      42.227 -15.305   2.620  1.00  0.00     0.077 A 
HETATM   15  S   UNL     1      40.645 -15.979   2.575  1.00  0.00    -0.055 SA
HETATM   16  C   UNL     1      42.185 -13.883   2.192  1.00  0.00     0.266 A 
HETATM   17  C   UNL     1      39.958 -14.552   1.821  1.00  0.00     0.148 A 
HETATM   18  S   UNL     1      38.370 -14.500   1.312  1.00  0.00    -0.052 SA
HETATM   19  N   UNL     1      40.919 -13.564   1.731  1.00  0.00    -0.298 N 
HETATM   20  O   UNL     1      43.155 -13.138   2.219  1.00  0.00    -0.266 OA
BRANCH  19  21
HETATM   21  C   UNL     1      40.673 -12.226   1.190  1.00  0.00     0.138 C 
BRANCH  21  22
HETATM   22  C   UNL     1      41.421 -11.995  -0.129  1.00  0.00     0.059 C 
BRANCH  22  23
HETATM   23  C   UNL     1      40.974 -12.944  -1.212  1.00  0.00    -0.057 A 
HETATM   24  C   UNL     1      39.793 -12.700  -1.925  1.00  0.00     0.010 A 
HETATM   25  C   UNL     1      39.380 -13.578  -2.928  1.00  0.00     0.037 A 
HETATM   26  C   UNL     1      40.143 -14.701  -3.249  1.00  0.00     0.068 A 
HETATM   27  C   UNL     1      41.317 -14.951  -2.541  1.00  0.00     0.037 A 
HETATM   28  C   UNL     1      41.729 -14.079  -1.526  1.00  0.00     0.010 A 
BRANCH  26  29
HETATM   29  O   UNL     1      39.633 -15.471  -4.258  1.00  0.00    -0.356 OA
HETATM   30  C   UNL     1      38.234 -15.721  -4.221  1.00  0.00     0.210 C 
ENDBRANCH  26  29
ENDBRANCH  22  23
ENDBRANCH  21  22
ENDBRANCH  19  21
ENDBRANCH   8  13
BRANCH   9  31
HETATM   31  N   UNL     1      43.530 -17.028   5.656  1.00  0.00    -0.274 NA
HETATM   32  H   UNL     1      43.980 -17.529   6.427  1.00  0.00     0.129 HD
BRANCH  31  33
HETATM   33  C   UNL     1      42.303 -16.341   6.081  1.00  0.00     0.130 C 
BRANCH  33  34
HETATM   34  C   UNL     1      42.577 -14.848   6.396  1.00  0.00     0.164 C 
BRANCH  34  35
HETATM   35  O   UNL     1      43.892 -14.486   5.946  1.00  0.00    -0.390 OA
HETATM   36  H   UNL     1      43.857 -14.373   4.979  1.00  0.00     0.210 HD
ENDBRANCH  34  35
BRANCH  34  37
HETATM   37  C   UNL     1      41.599 -13.822   5.855  1.00  0.00    -0.029 A 
HETATM   38  C   UNL     1      40.229 -14.068   5.680  1.00  0.00     0.010 A 
HETATM   39  C   UNL     1      39.377 -13.074   5.187  1.00  0.00     0.001 A 
HETATM   40  C   UNL     1      39.882 -11.818   4.860  1.00  0.00     0.000 A 
HETATM   41  C   UNL     1      41.238 -11.554   5.022  1.00  0.00     0.001 A 
HETATM   42  C   UNL     1      42.088 -12.547   5.514  1.00  0.00     0.010 A 
ENDBRANCH  34  37
ENDBRANCH  33  34
ENDBRANCH  31  33
ENDBRANCH   9  31
TORSDOF 10
ENDMDL
MODEL 5
REMARK VINA RESULT:      -9.0      4.342      9.314
REMARK  10 active torsions:
REMARK  status: ('A' for Active; 'I' for Inactive)
REMARK    1  A    between atoms: C_8  and  C_9 
REMARK    2  A    between atoms: N_14  and  C_15 
REMARK    3  A    between atoms: C_15  and  C_16 
REMARK    4  A    between atoms: C_16  and  C_17 
REMARK    5  A    between atoms: C_20  and  O_21 
REMARK    6  A    between atoms: C_27  and  N_28 
REMARK    7  A    between atoms: N_28  and  C_29 
REMARK    8  A    between atoms: C_29  and  C_30 
REMARK    9  A    between atoms: C_30  and  O_31 
REMARK   10  A    between atoms: C_30  and  C_32 
ROOT
HETATM    1  C   UNL     1      40.775  -8.767   0.479  1.00  0.00     0.052 C 
HETATM    2  C   UNL     1      39.837  -9.026   1.616  1.00  0.00    -0.015 A 
HETATM    3  C   UNL     1      39.882 -10.383   2.263  1.00  0.00     0.144 A 
HETATM    4  N   UNL     1      40.633 -11.305   1.749  1.00  0.00    -0.217 NA
HETATM    5  N   UNL     1      39.107 -10.569   3.396  1.00  0.00    -0.272 N 
HETATM    6  C   UNL     1      39.166 -11.776   4.074  1.00  0.00     0.266 C 
HETATM    7  O   UNL     1      38.481 -12.048   5.063  1.00  0.00    -0.267 OA
HETATM    8  C   UNL     1      40.131 -12.784   3.547  1.00  0.00     0.074 C 
HETATM    9  C   UNL     1      40.742 -12.518   2.369  1.00  0.00     0.121 C 
HETATM   10  C   UNL     1      38.245  -9.577   3.847  1.00  0.00     0.102 A 
HETATM   11  C   UNL     1      38.158  -8.389   3.239  1.00  0.00     0.018 A 
HETATM   12  C   UNL     1      38.996  -8.101   2.107  1.00  0.00     0.012 A 
ENDROOT
BRANCH   8  13
HETATM   13  C   UNL     1      40.359 -13.986   4.342  1.00  0.00     0.045 C 
HETATM   14  C   UNL     1      41.359 -14.161   5.219  1.00  0.00     0.077 A 
HETATM   15  S   UNL     1      42.577 -13.029   5.660  1.00  0.00    -0.055 SA
HETATM   16  C   UNL     1      41.589 -15.451   5.918  1.00  0.00     0.266 A 
HETATM   17  C   UNL     1      43.496 -14.227   6.553  1.00  0.00     0.148 A 
HETATM   18  S   UNL     1      44.990 -13.881   7.213  1.00  0.00    -0.052 SA
HETATM   19  N   UNL     1      42.798 -15.418   6.590  1.00  0.00    -0.298 N 
HETATM   20  O   UNL     1      40.820 -16.401   5.857  1.00  0.00    -0.266 OA
BRANCH  19  21
HETATM   21  C   UNL     1      43.259 -16.618   7.291  1.00  0.00     0.138 C 
BRANCH  21  22
HETATM   22  C   UNL     1      44.590 -17.134   6.729  1.00  0.00     0.059 C 
BRANCH  22  23
HETATM   23  C   UNL     1      44.514 -18.587   6.331  1.00  0.00    -0.057 A 
HETATM   24  C   UNL     1      45.111 -19.028   5.143  1.00  0.00     0.010 A 
HETATM   25  C   UNL     1      45.042 -20.372   4.775  1.00  0.00     0.037 A 
HETATM   26  C   UNL     1      44.395 -21.301   5.592  1.00  0.00     0.068 A 
HETATM   27  C   UNL     1      43.797 -20.867   6.774  1.00  0.00     0.037 A 
HETATM   28  C   UNL     1      43.854 -19.518   7.140  1.00  0.00     0.010 A 
BRANCH  26  29
HETATM   29  O   UNL     1      44.412 -22.586   5.122  1.00  0.00    -0.356 OA
HETATM   30  C   UNL     1      44.695 -22.753   3.739  1.00  0.00     0.210 C 
ENDBRANCH  26  29
ENDBRANCH  22  23
ENDBRANCH  21  22
ENDBRANCH  19  21
ENDBRANCH   8  13
BRANCH   9  31
HETATM   31  N   UNL     1      41.583 -13.420   1.728  1.00  0.00    -0.274 NA
HETATM   32  H   UNL     1      42.544 -13.091   1.854  1.00  0.00     0.129 HD
BRANCH  31  33
HETATM   33  C   UNL     1      41.350 -13.950   0.379  1.00  0.00     0.130 C 
BRANCH  33  34
HETATM   34  C   UNL     1      40.799 -15.399   0.434  1.00  0.00     0.164 C 
BRANCH  34  35
HETATM   35  O   UNL     1      40.515 -15.864  -0.895  1.00  0.00    -0.390 OA
HETATM   36  H   UNL     1      39.835 -16.559  -0.829  1.00  0.00     0.210 HD
ENDBRANCH  34  35
BRANCH  34  37
HETATM   37  C   UNL     1      41.646 -16.450   1.126  1.00  0.00    -0.029 A 
HETATM   38  C   UNL     1      41.331 -17.005   2.375  1.00  0.00     0.010 A 
HETATM   39  C   UNL     1      42.149 -17.980   2.955  1.00  0.00     0.001 A 
HETATM   40  C   UNL     1      43.295 -18.417   2.295  1.00  0.00     0.000 A 
HETATM   41  C   UNL     1      43.628 -17.877   1.057  1.00  0.00     0.001 A 
HETATM   42  C   UNL     1      42.811 -16.902   0.479  1.00  0.00     0.010 A 
ENDBRANCH  34  37
ENDBRANCH  33  34
ENDBRANCH  31  33
ENDBRANCH   9  31
TORSDOF 10
ENDMDL
MODEL 6
REMARK VINA RESULT:      -9.0      4.003      9.734
REMARK  10 active torsions:
REMARK  status: ('A' for Active; 'I' for Inactive)
REMARK    1  A    between atoms: C_8  and  C_9 
REMARK    2  A    between atoms: N_14  and  C_15 
REMARK    3  A    between atoms: C_15  and  C_16 
REMARK    4  A    between atoms: C_16  and  C_17 
REMARK    5  A    between atoms: C_20  and  O_21 
REMARK    6  A    between atoms: C_27  and  N_28 
REMARK    7  A    between atoms: N_28  and  C_29 
REMARK    8  A    between atoms: C_29  and  C_30 
REMARK    9  A    between atoms: C_30  and  O_31 
REMARK   10  A    between atoms: C_30  and  C_32 
ROOT
HETATM    1  C   UNL     1      40.352 -15.924  -2.922  1.00  0.00     0.052 C 
HETATM    2  C   UNL     1      40.994 -14.611  -2.597  1.00  0.00    -0.015 A 
HETATM    3  C   UNL     1      41.123 -14.239  -1.146  1.00  0.00     0.144 A 
HETATM    4  N   UNL     1      40.580 -14.996  -0.246  1.00  0.00    -0.217 NA
HETATM    5  N   UNL     1      41.834 -13.087  -0.850  1.00  0.00    -0.272 N 
HETATM    6  C   UNL     1      42.048 -12.736   0.473  1.00  0.00     0.266 C 
HETATM    7  O   UNL     1      42.629 -11.708   0.831  1.00  0.00    -0.267 OA
HETATM    8  C   UNL     1      41.527 -13.684   1.501  1.00  0.00     0.074 C 
HETATM    9  C   UNL     1      40.753 -14.710   1.079  1.00  0.00     0.121 C 
HETATM   10  C   UNL     1      42.313 -12.260  -1.859  1.00  0.00     0.102 A 
HETATM   11  C   UNL     1      42.148 -12.557  -3.152  1.00  0.00     0.018 A 
HETATM   12  C   UNL     1      41.490 -13.780  -3.527  1.00  0.00     0.012 A 
ENDROOT
BRANCH   8  13
HETATM   13  C   UNL     1      41.897 -13.446   2.893  1.00  0.00     0.045 C 
HETATM   14  C   UNL     1      41.330 -12.541   3.704  1.00  0.00     0.077 A 
HETATM   15  S   UNL     1      40.021 -11.484   3.345  1.00  0.00    -0.055 SA
HETATM   16  C   UNL     1      41.828 -12.283   5.080  1.00  0.00     0.266 A 
HETATM   17  C   UNL     1      40.229 -10.573   4.830  1.00  0.00     0.148 A 
HETATM   18  S   UNL     1      39.336  -9.201   5.156  1.00  0.00    -0.052 SA
HETATM   19  N   UNL     1      41.204 -11.165   5.608  1.00  0.00    -0.298 N 
HETATM   20  O   UNL     1      42.693 -12.954   5.624  1.00  0.00    -0.266 OA
BRANCH  19  21
HETATM   21  C   UNL     1      41.600 -10.686   6.933  1.00  0.00     0.138 C 
BRANCH  21  22
HETATM   22  C   UNL     1      40.508 -10.936   7.982  1.00  0.00     0.059 C 
BRANCH  22  23
HETATM   23  C   UNL     1      41.039 -10.841   9.390  1.00  0.00    -0.057 A 
HETATM   24  C   UNL     1      40.179 -11.000  10.484  1.00  0.00     0.010 A 
HETATM   25  C   UNL     1      40.670 -10.914  11.787  1.00  0.00     0.037 A 
HETATM   26  C   UNL     1      42.027 -10.687  12.022  1.00  0.00     0.068 A 
HETATM   27  C   UNL     1      42.888 -10.525  10.937  1.00  0.00     0.037 A 
HETATM   28  C   UNL     1      42.396 -10.600   9.629  1.00  0.00     0.010 A 
BRANCH  26  29
HETATM   29  O   UNL     1      42.379 -10.638  13.343  1.00  0.00    -0.356 OA
HETATM   30  C   UNL     1      43.106  -9.491  13.765  1.00  0.00     0.210 C 
ENDBRANCH  26  29
ENDBRANCH  22  23
ENDBRANCH  21  22
ENDBRANCH  19  21
ENDBRANCH   8  13
BRANCH   9  31
HETATM   31  N   UNL     1      40.131 -15.600   1.947  1.00  0.00    -0.274 NA
HETATM   32  H   UNL     1      39.963 -15.107   2.828  1.00  0.00     0.129 HD
BRANCH  31  33
HETATM   33  C   UNL     1      40.568 -16.986   2.160  1.00  0.00     0.130 C 
BRANCH  33  34
HETATM   34  C   UNL     1      41.512 -17.094   3.385  1.00  0.00     0.164 C 
BRANCH  34  35
HETATM   35  O   UNL     1      40.740 -17.243   4.586  1.00  0.00    -0.390 OA
HETATM   36  H   UNL     1      39.984 -16.630   4.534  1.00  0.00     0.210 HD
ENDBRANCH  34  35
BRANCH  34  37
HETATM   37  C   UNL     1      42.566 -18.185   3.368  1.00  0.00    -0.029 A 
HETATM   38  C   UNL     1      43.332 -18.545   4.487  1.00  0.00     0.010 A 
HETATM   39  C   UNL     1      44.281 -19.570   4.409  1.00  0.00     0.001 A 
HETATM   40  C   UNL     1      44.480 -20.252   3.211  1.00  0.00     0.000 A 
HETATM   41  C   UNL     1      43.732 -19.908   2.088  1.00  0.00     0.001 A 
HETATM   42  C   UNL     1      42.786 -18.885   2.167  1.00  0.00     0.010 A 
ENDBRANCH  34  37
ENDBRANCH  33  34
ENDBRANCH  31  33
ENDBRANCH   9  31
TORSDOF 10
ENDMDL
MODEL 7
REMARK VINA RESULT:      -8.8      6.478     10.098
REMARK  10 active torsions:
REMARK  status: ('A' for Active; 'I' for Inactive)
REMARK    1  A    between atoms: C_8  and  C_9 
REMARK    2  A    between atoms: N_14  and  C_15 
REMARK    3  A    between atoms: C_15  and  C_16 
REMARK    4  A    between atoms: C_16  and  C_17 
REMARK    5  A    between atoms: C_20  and  O_21 
REMARK    6  A    between atoms: C_27  and  N_28 
REMARK    7  A    between atoms: N_28  and  C_29 
REMARK    8  A    between atoms: C_29  and  C_30 
REMARK    9  A    between atoms: C_30  and  O_31 
REMARK   10  A    between atoms: C_30  and  C_32 
ROOT
HETATM    1  C   UNL     1      42.087  -9.300  15.648  1.00  0.00     0.052 C 
HETATM    2  C   UNL     1      40.925  -8.759  14.876  1.00  0.00    -0.015 A 
HETATM    3  C   UNL     1      40.717  -9.273  13.478  1.00  0.00     0.144 A 
HETATM    4  N   UNL     1      41.601 -10.062  12.955  1.00  0.00    -0.217 NA
HETATM    5  N   UNL     1      39.567  -8.868  12.820  1.00  0.00    -0.272 N 
HETATM    6  C   UNL     1      39.288  -9.369  11.559  1.00  0.00     0.266 C 
HETATM    7  O   UNL     1      38.315  -9.033  10.880  1.00  0.00    -0.267 OA
HETATM    8  C   UNL     1      40.249 -10.376  11.020  1.00  0.00     0.074 C 
HETATM    9  C   UNL     1      41.389 -10.596  11.715  1.00  0.00     0.121 C 
HETATM   10  C   UNL     1      38.702  -7.943  13.392  1.00  0.00     0.102 A 
HETATM   11  C   UNL     1      38.914  -7.438  14.611  1.00  0.00     0.018 A 
HETATM   12  C   UNL     1      40.046  -7.879  15.381  1.00  0.00     0.012 A 
ENDROOT
BRANCH   8  13
HETATM   13  C   UNL     1      39.889 -11.063   9.784  1.00  0.00     0.045 C 
HETATM   14  C   UNL     1      40.274 -10.700   8.552  1.00  0.00     0.077 A 
HETATM   15  S   UNL     1      41.304  -9.393   8.117  1.00  0.00    -0.055 SA
HETATM   16  C   UNL     1      39.784 -11.388   7.329  1.00  0.00     0.266 A 
HETATM   17  C   UNL     1      40.958  -9.568   6.406  1.00  0.00     0.148 A 
HETATM   18  S   UNL     1      41.539  -8.489   5.273  1.00  0.00    -0.052 SA
HETATM   19  N   UNL     1      40.167 -10.681   6.202  1.00  0.00    -0.298 N 
HETATM   20  O   UNL     1      39.109 -12.407   7.350  1.00  0.00    -0.266 OA
BRANCH  19  21
HETATM   21  C   UNL     1      39.726 -11.145   4.885  1.00  0.00     0.138 C 
BRANCH  21  22
HETATM   22  C   UNL     1      40.911 -11.490   3.974  1.00  0.00     0.059 C 
BRANCH  22  23
HETATM   23  C   UNL     1      41.389 -12.906   4.173  1.00  0.00    -0.057 A 
HETATM   24  C   UNL     1      40.500 -13.900   4.604  1.00  0.00     0.010 A 
HETATM   25  C   UNL     1      40.942 -15.211   4.787  1.00  0.00     0.037 A 
HETATM   26  C   UNL     1      42.269 -15.558   4.526  1.00  0.00     0.068 A 
HETATM   27  C   UNL     1      43.158 -14.572   4.099  1.00  0.00     0.037 A 
HETATM   28  C   UNL     1      42.721 -13.254   3.925  1.00  0.00     0.010 A 
BRANCH  26  29
HETATM   29  O   UNL     1      42.567 -16.876   4.732  1.00  0.00    -0.356 OA
HETATM   30  C   UNL     1      41.465 -17.767   4.847  1.00  0.00     0.210 C 
ENDBRANCH  26  29
ENDBRANCH  22  23
ENDBRANCH  21  22
ENDBRANCH  19  21
ENDBRANCH   8  13
BRANCH   9  31
HETATM   31  N   UNL     1      42.402 -11.435  11.266  1.00  0.00    -0.274 NA
HETATM   32  H   UNL     1      42.542 -12.159  11.976  1.00  0.00     0.129 HD
BRANCH  31  33
HETATM   33  C   UNL     1      43.670 -10.963  10.695  1.00  0.00     0.130 C 
BRANCH  33  34
HETATM   34  C   UNL     1      44.711 -12.109  10.618  1.00  0.00     0.164 C 
BRANCH  34  35
HETATM   35  O   UNL     1      44.209 -13.272  11.294  1.00  0.00    -0.390 OA
HETATM   36  H   UNL     1      43.861 -12.988  12.159  1.00  0.00     0.210 HD
ENDBRANCH  34  35
BRANCH  34  37
HETATM   37  C   UNL     1      45.188 -12.538   9.242  1.00  0.00    -0.029 A 
HETATM   38  C   UNL     1      46.388 -12.101   8.663  1.00  0.00     0.010 A 
HETATM   39  C   UNL     1      46.776 -12.543   7.394  1.00  0.00     0.001 A 
HETATM   40  C   UNL     1      45.970 -13.429   6.683  1.00  0.00     0.000 A 
HETATM   41  C   UNL     1      44.774 -13.872   7.238  1.00  0.00     0.001 A 
HETATM   42  C   UNL     1      44.387 -13.429   8.505  1.00  0.00     0.010 A 
ENDBRANCH  34  37
ENDBRANCH  33  34
ENDBRANCH  31  33
ENDBRANCH   9  31
TORSDOF 10
ENDMDL
MODEL 8
REMARK VINA RESULT:      -8.7      3.409      9.736
REMARK  10 active torsions:
REMARK  status: ('A' for Active; 'I' for Inactive)
REMARK    1  A    between atoms: C_8  and  C_9 
REMARK    2  A    between atoms: N_14  and  C_15 
REMARK    3  A    between atoms: C_15  and  C_16 
REMARK    4  A    between atoms: C_16  and  C_17 
REMARK    5  A    between atoms: C_20  and  O_21 
REMARK    6  A    between atoms: C_27  and  N_28 
REMARK    7  A    between atoms: N_28  and  C_29 
REMARK    8  A    between atoms: C_29  and  C_30 
REMARK    9  A    between atoms: C_30  and  O_31 
REMARK   10  A    between atoms: C_30  and  C_32 
ROOT
HETATM    1  C   UNL     1      41.609 -14.927  -2.988  1.00  0.00     0.052 C 
HETATM    2  C   UNL     1      40.316 -14.520  -2.352  1.00  0.00    -0.015 A 
HETATM    3  C   UNL     1      40.239 -14.546  -0.851  1.00  0.00     0.144 A 
HETATM    4  N   UNL     1      41.234 -15.023  -0.173  1.00  0.00    -0.217 NA
HETATM    5  N   UNL     1      39.087 -14.042  -0.269  1.00  0.00    -0.272 N 
HETATM    6  C   UNL     1      38.992 -13.973   1.112  1.00  0.00     0.266 C 
HETATM    7  O   UNL     1      37.991 -13.583   1.718  1.00  0.00    -0.267 OA
HETATM    8  C   UNL     1      40.196 -14.406   1.879  1.00  0.00     0.074 C 
HETATM    9  C   UNL     1      41.209 -14.983   1.192  1.00  0.00     0.121 C 
HETATM   10  C   UNL     1      38.010 -13.633  -1.046  1.00  0.00     0.102 A 
HETATM   11  C   UNL     1      38.052 -13.665  -2.382  1.00  0.00     0.018 A 
HETATM   12  C   UNL     1      39.249 -14.099  -3.050  1.00  0.00     0.012 A 
ENDROOT
BRANCH   8  13
HETATM   13  C   UNL     1      40.203 -14.170   3.320  1.00  0.00     0.045 C 
HETATM   14  C   UNL     1      40.368 -12.978   3.911  1.00  0.00     0.077 A 
HETATM   15  S   UNL     1      40.563 -11.447   3.151  1.00  0.00    -0.055 SA
HETATM   16  C   UNL     1      40.468 -12.828   5.386  1.00  0.00     0.266 A 
HETATM   17  C   UNL     1      40.980 -10.649   4.656  1.00  0.00     0.148 A 
HETATM   18  S   UNL     1      41.464  -9.052   4.704  1.00  0.00    -0.052 SA
HETATM   19  N   UNL     1      40.847 -11.535   5.706  1.00  0.00    -0.298 N 
HETATM   20  O   UNL     1      40.276 -13.743   6.174  1.00  0.00    -0.266 OA
BRANCH  19  21
HETATM   21  C   UNL     1      41.075 -11.186   7.110  1.00  0.00     0.138 C 
BRANCH  21  22
HETATM   22  C   UNL     1      42.550 -11.336   7.504  1.00  0.00     0.059 C 
BRANCH  22  23
HETATM   23  C   UNL     1      42.803 -10.917   8.931  1.00  0.00    -0.057 A 
HETATM   24  C   UNL     1      44.050 -11.149   9.527  1.00  0.00     0.010 A 
HETATM   25  C   UNL     1      44.285 -10.760  10.846  1.00  0.00     0.037 A 
HETATM   26  C   UNL     1      43.290 -10.119  11.586  1.00  0.00     0.068 A 
HETATM   27  C   UNL     1      42.047  -9.888  10.999  1.00  0.00     0.037 A 
HETATM   28  C   UNL     1      41.804 -10.287   9.680  1.00  0.00     0.010 A 
BRANCH  26  29
HETATM   29  O   UNL     1      43.654  -9.779  12.861  1.00  0.00    -0.356 OA
HETATM   30  C   UNL     1      42.713 -10.064  13.888  1.00  0.00     0.210 C 
ENDBRANCH  26  29
ENDBRANCH  22  23
ENDBRANCH  21  22
ENDBRANCH  19  21
ENDBRANCH   8  13
BRANCH   9  31
HETATM   31  N   UNL     1      42.337 -15.515   1.806  1.00  0.00    -0.274 NA
HETATM   32  H   UNL     1      43.094 -14.833   1.709  1.00  0.00     0.129 HD
BRANCH  31  33
HETATM   33  C   UNL     1      42.804 -16.894   1.619  1.00  0.00     0.130 C 
BRANCH  33  34
HETATM   34  C   UNL     1      43.194 -17.543   2.972  1.00  0.00     0.164 C 
BRANCH  34  35
HETATM   35  O   UNL     1      42.104 -17.429   3.901  1.00  0.00    -0.390 OA
HETATM   36  H   UNL     1      42.156 -18.182   4.516  1.00  0.00     0.210 HD
ENDBRANCH  34  35
BRANCH  34  37
HETATM   37  C   UNL     1      43.644 -18.992   2.956  1.00  0.00    -0.029 A 
HETATM   38  C   UNL     1      44.392 -19.586   3.984  1.00  0.00     0.010 A 
HETATM   39  C   UNL     1      44.767 -20.932   3.914  1.00  0.00     0.001 A 
HETATM   40  C   UNL     1      44.400 -21.706   2.815  1.00  0.00     0.000 A 
HETATM   41  C   UNL     1      43.661 -21.135   1.784  1.00  0.00     0.001 A 
HETATM   42  C   UNL     1      43.289 -19.791   1.854  1.00  0.00     0.010 A 
ENDBRANCH  34  37
ENDBRANCH  33  34
ENDBRANCH  31  33
ENDBRANCH   9  31
TORSDOF 10
ENDMDL
MODEL 9
REMARK VINA RESULT:      -8.6      3.751      9.391
REMARK  10 active torsions:
REMARK  status: ('A' for Active; 'I' for Inactive)
REMARK    1  A    between atoms: C_8  and  C_9 
REMARK    2  A    between atoms: N_14  and  C_15 
REMARK    3  A    between atoms: C_15  and  C_16 
REMARK    4  A    between atoms: C_16  and  C_17 
REMARK    5  A    between atoms: C_20  and  O_21 
REMARK    6  A    between atoms: C_27  and  N_28 
REMARK    7  A    between atoms: N_28  and  C_29 
REMARK    8  A    between atoms: C_29  and  C_30 
REMARK    9  A    between atoms: C_30  and  O_31 
REMARK   10  A    between atoms: C_30  and  C_32 
ROOT
HETATM    1  C   UNL     1      39.704  -9.910  -0.293  1.00  0.00     0.052 C 
HETATM    2  C   UNL     1      39.180  -9.856   1.108  1.00  0.00    -0.015 A 
HETATM    3  C   UNL     1      39.277 -11.106   1.937  1.00  0.00     0.144 A 
HETATM    4  N   UNL     1      39.694 -12.202   1.387  1.00  0.00    -0.217 NA
HETATM    5  N   UNL     1      38.911 -11.010   3.270  1.00  0.00    -0.272 N 
HETATM    6  C   UNL     1      39.051 -12.111   4.099  1.00  0.00     0.266 C 
HETATM    7  O   UNL     1      38.711 -12.133   5.285  1.00  0.00    -0.267 OA
HETATM    8  C   UNL     1      39.653 -13.329   3.483  1.00  0.00     0.074 C 
HETATM    9  C   UNL     1      39.858 -13.326   2.146  1.00  0.00     0.121 C 
HETATM   10  C   UNL     1      38.378  -9.834   3.785  1.00  0.00     0.102 A 
HETATM   11  C   UNL     1      38.234  -8.737   3.035  1.00  0.00     0.018 A 
HETATM   12  C   UNL     1      38.671  -8.745   1.664  1.00  0.00     0.012 A 
ENDROOT
BRANCH   8  13
HETATM   13  C   UNL     1      39.989 -14.441   4.368  1.00  0.00     0.045 C 
HETATM   14  C   UNL     1      41.088 -14.521   5.132  1.00  0.00     0.077 A 
HETATM   15  S   UNL     1      42.334 -13.349   5.304  1.00  0.00    -0.055 SA
HETATM   16  C   UNL     1      41.416 -15.731   5.930  1.00  0.00     0.266 A 
HETATM   17  C   UNL     1      43.369 -14.445   6.201  1.00  0.00     0.148 A 
HETATM   18  S   UNL     1      44.925 -14.031   6.639  1.00  0.00    -0.052 SA
HETATM   19  N   UNL     1      42.696 -15.626   6.446  1.00  0.00    -0.298 N 
HETATM   20  O   UNL     1      40.658 -16.682   6.060  1.00  0.00    -0.266 OA
BRANCH  19  21
HETATM   21  C   UNL     1      43.252 -16.745   7.209  1.00  0.00     0.138 C 
BRANCH  21  22
HETATM   22  C   UNL     1      44.577 -17.241   6.615  1.00  0.00     0.059 C 
BRANCH  22  23
HETATM   23  C   UNL     1      44.365 -18.162   5.440  1.00  0.00    -0.057 A 
HETATM   24  C   UNL     1      43.856 -17.665   4.233  1.00  0.00     0.010 A 
HETATM   25  C   UNL     1      43.661 -18.517   3.146  1.00  0.00     0.037 A 
HETATM   26  C   UNL     1      43.987 -19.871   3.235  1.00  0.00     0.068 A 
HETATM   27  C   UNL     1      44.492 -20.372   4.435  1.00  0.00     0.037 A 
HETATM   28  C   UNL     1      44.678 -19.522   5.531  1.00  0.00     0.010 A 
BRANCH  26  29
HETATM   29  O   UNL     1      43.760 -20.592   2.095  1.00  0.00    -0.356 OA
HETATM   30  C   UNL     1      44.376 -21.871   2.018  1.00  0.00     0.210 C 
ENDBRANCH  26  29
ENDBRANCH  22  23
ENDBRANCH  21  22
ENDBRANCH  19  21
ENDBRANCH   8  13
BRANCH   9  31
HETATM   31  N   UNL     1      40.320 -14.433   1.445  1.00  0.00    -0.274 NA
HETATM   32  H   UNL     1      40.158 -15.259   2.028  1.00  0.00     0.129 HD
BRANCH  31  33
HETATM   33  C   UNL     1      41.612 -14.489   0.748  1.00  0.00     0.130 C 
BRANCH  33  34
HETATM   34  C   UNL     1      41.418 -14.554  -0.789  1.00  0.00     0.164 C 
BRANCH  34  35
HETATM   35  O   UNL     1      40.048 -14.854  -1.097  1.00  0.00    -0.390 OA
HETATM   36  H   UNL     1      39.882 -14.580  -2.017  1.00  0.00     0.210 HD
ENDBRANCH  34  35
BRANCH  34  37
HETATM   37  C   UNL     1      41.825 -13.339  -1.603  1.00  0.00    -0.029 A 
HETATM   38  C   UNL     1      41.549 -13.191  -2.970  1.00  0.00     0.010 A 
HETATM   39  C   UNL     1      41.942 -12.040  -3.661  1.00  0.00     0.001 A 
HETATM   40  C   UNL     1      42.617 -11.019  -2.997  1.00  0.00     0.000 A 
HETATM   41  C   UNL     1      42.904 -11.148  -1.641  1.00  0.00     0.001 A 
HETATM   42  C   UNL     1      42.512 -12.298  -0.952  1.00  0.00     0.010 A 
ENDBRANCH  34  37
ENDBRANCH  33  34
ENDBRANCH  31  33
ENDBRANCH   9  31
TORSDOF 10
ENDMDL
MODEL 10
REMARK VINA RESULT:      -8.5      3.750      9.436
REMARK  10 active torsions:
REMARK  status: ('A' for Active; 'I' for Inactive)
REMARK    1  A    between atoms: C_8  and  C_9 
REMARK    2  A    between atoms: N_14  and  C_15 
REMARK    3  A    between atoms: C_15  and  C_16 
REMARK    4  A    between atoms: C_16  and  C_17 
REMARK    5  A    between atoms: C_20  and  O_21 
REMARK    6  A    between atoms: C_27  and  N_28 
REMARK    7  A    between atoms: N_28  and  C_29 
REMARK    8  A    between atoms: C_29  and  C_30 
REMARK    9  A    between atoms: C_30  and  O_31 
REMARK   10  A    between atoms: C_30  and  C_32 
ROOT
HETATM    1  C   UNL     1      42.878 -19.449   2.154  1.00  0.00     0.052 C 
HETATM    2  C   UNL     1      43.429 -18.886   3.427  1.00  0.00    -0.015 A 
HETATM    3  C   UNL     1      42.737 -17.688   4.016  1.00  0.00     0.144 A 
HETATM    4  N   UNL     1      41.779 -17.120   3.354  1.00  0.00    -0.217 NA
HETATM    5  N   UNL     1      43.171 -17.256   5.259  1.00  0.00    -0.272 N 
HETATM    6  C   UNL     1      42.521 -16.203   5.882  1.00  0.00     0.266 C 
HETATM    7  O   UNL     1      42.862 -15.722   6.965  1.00  0.00    -0.267 OA
HETATM    8  C   UNL     1      41.338 -15.640   5.167  1.00  0.00     0.074 C 
HETATM    9  C   UNL     1      41.093 -16.078   3.910  1.00  0.00     0.121 C 
HETATM   10  C   UNL     1      44.267 -17.842   5.880  1.00  0.00     0.102 A 
HETATM   11  C   UNL     1      44.922 -18.870   5.332  1.00  0.00     0.018 A 
HETATM   12  C   UNL     1      44.472 -19.420   4.081  1.00  0.00     0.012 A 
ENDROOT
BRANCH   8  13
HETATM   13  C   UNL     1      40.519 -14.662   5.876  1.00  0.00     0.045 C 
HETATM   14  C   UNL     1      40.485 -13.346   5.622  1.00  0.00     0.077 A 
HETATM   15  S   UNL     1      41.338 -12.491   4.398  1.00  0.00    -0.055 SA
HETATM   16  C   UNL     1      39.703 -12.395   6.454  1.00  0.00     0.266 A 
HETATM   17  C   UNL     1      40.891 -10.925   5.050  1.00  0.00     0.148 A 
HETATM   18  S   UNL     1      41.498  -9.502   4.424  1.00  0.00    -0.052 SA
HETATM   19  N   UNL     1      40.015 -11.092   6.104  1.00  0.00    -0.298 N 
HETATM   20  O   UNL     1      38.933 -12.743   7.338  1.00  0.00    -0.266 OA
BRANCH  19  21
HETATM   21  C   UNL     1      39.409  -9.988   6.851  1.00  0.00     0.138 C 
BRANCH  21  22
HETATM   22  C   UNL     1      40.458  -9.171   7.616  1.00  0.00     0.059 C 
BRANCH  22  23
HETATM   23  C   UNL     1      40.867  -9.835   8.907  1.00  0.00    -0.057 A 
HETATM   24  C   UNL     1      42.222  -9.982   9.230  1.00  0.00     0.010 A 
HETATM   25  C   UNL     1      42.600 -10.596  10.425  1.00  0.00     0.037 A 
HETATM   26  C   UNL     1      41.637 -11.054  11.325  1.00  0.00     0.068 A 
HETATM   27  C   UNL     1      40.287 -10.912  11.008  1.00  0.00     0.037 A 
HETATM   28  C   UNL     1      39.904 -10.308   9.805  1.00  0.00     0.010 A 
BRANCH  26  29
HETATM   29  O   UNL     1      42.141 -11.623  12.462  1.00  0.00    -0.356 OA
HETATM   30  C   UNL     1      42.489 -10.734  13.517  1.00  0.00     0.210 C 
ENDBRANCH  26  29
ENDBRANCH  22  23
ENDBRANCH  21  22
ENDBRANCH  19  21
ENDBRANCH   8  13
BRANCH   9  31
HETATM   31  N   UNL     1      40.082 -15.559   3.108  1.00  0.00    -0.274 NA
HETATM   32  H   UNL     1      39.201 -15.657   3.619  1.00  0.00     0.129 HD
BRANCH  31  33
HETATM   33  C   UNL     1      39.932 -15.854   1.678  1.00  0.00     0.130 C 
BRANCH  33  34
HETATM   34  C   UNL     1      40.728 -14.845   0.811  1.00  0.00     0.164 C 
BRANCH  34  35
HETATM   35  O   UNL     1      42.137 -15.086   0.949  1.00  0.00    -0.390 OA
HETATM   36  H   UNL     1      42.284 -16.047   0.884  1.00  0.00     0.210 HD
ENDBRANCH  34  35
BRANCH  34  37
HETATM   37  C   UNL     1      40.408 -14.782  -0.671  1.00  0.00    -0.029 A 
HETATM   38  C   UNL     1      39.462 -13.908  -1.227  1.00  0.00     0.010 A 
HETATM   39  C   UNL     1      39.221 -13.891  -2.605  1.00  0.00     0.001 A 
HETATM   40  C   UNL     1      39.923 -14.747  -3.449  1.00  0.00     0.000 A 
HETATM   41  C   UNL     1      40.864 -15.624  -2.918  1.00  0.00     0.001 A 
HETATM   42  C   UNL     1      41.103 -15.641  -1.543  1.00  0.00     0.010 A 
ENDBRANCH  34  37
ENDBRANCH  33  34
ENDBRANCH  31  33
ENDBRANCH   9  31
TORSDOF 10
ENDMDL
