MODEL 1
REMARK VINA RESULT:      -8.2      0.000      0.000
REMARK  8 active torsions:
REMARK  status: ('A' for Active; 'I' for Inactive)
REMARK    1  A    between atoms: C_2  and  C_3 
REMARK    2  A    between atoms: C_3  and  C_4 
REMARK       I    between atoms: C_4  and  N_5 
REMARK    3  A    between atoms: N_8  and  C_9 
REMARK    4  A    between atoms: C_12  and  N_13 
REMARK    5  A    between atoms: N_13  and  C_14 
REMARK    6  A    between atoms: C_14  and  N_15 
REMARK       I    between atoms: N_15  and  C_16 
REMARK    7  A    between atoms: C_16  and  C_17 
REMARK    8  A    between atoms: C_21  and  O_22 
ROOT
HETATM    1  C   UNL     1      42.126 -15.291   5.515  1.00  0.00     0.030 A 
HETATM    2  C   UNL     1      40.725 -15.217   5.574  1.00  0.00     0.031 A 
HETATM    3  C   UNL     1      40.035 -14.005   5.733  1.00  0.00     0.032 A 
HETATM    4  C   UNL     1      40.720 -12.801   5.804  1.00  0.00     0.034 A 
HETATM    5  C   UNL     1      42.104 -12.830   5.653  1.00  0.00     0.032 A 
HETATM    6  C   UNL     1      42.791 -14.054   5.529  1.00  0.00     0.031 A 
ENDROOT
BRANCH   4   7
HETATM    7  N   UNL     1      40.083 -11.549   5.939  1.00  0.00    -0.333 N 
HETATM    8  H   UNL     1      39.169 -11.469   5.492  1.00  0.00     0.168 HD
BRANCH   7   9
HETATM    9  C   UNL     1      40.543 -10.382   6.498  1.00  0.00     0.179 C 
HETATM   10  S   UNL     1      40.794  -8.892   5.775  1.00  0.00    -0.040 SA
BRANCH   9  11
HETATM   11  N   UNL     1      40.802 -10.429   7.855  1.00  0.00    -0.299 N 
HETATM   12  C   UNL     1      39.961 -10.765   8.906  1.00  0.00     0.257 C 
HETATM   13  O   UNL     1      38.764 -10.995   8.797  1.00  0.00    -0.267 OA
HETATM   14  H   UNL     1      41.783 -10.286   8.057  1.00  0.00     0.171 HD
BRANCH  12  15
HETATM   15  C   UNL     1      40.630 -10.848  10.230  1.00  0.00     0.034 A 
HETATM   16  C   UNL     1      42.006 -10.624  10.304  1.00  0.00     0.044 A 
HETATM   17  C   UNL     1      42.642 -10.639  11.549  1.00  0.00     0.068 A 
HETATM   18 CL   UNL     1      44.341 -10.317  11.589  1.00  0.00    -0.081 Cl
HETATM   19  C   UNL     1      41.919 -10.893  12.729  1.00  0.00     0.089 A 
HETATM   20  C   UNL     1      40.546 -11.148  12.636  1.00  0.00     0.039 A 
HETATM   21  C   UNL     1      39.904 -11.128  11.393  1.00  0.00     0.020 A 
BRANCH  19  22
HETATM   22  O   UNL     1      42.624 -10.875  13.904  1.00  0.00    -0.354 OA
HETATM   23  C   UNL     1      42.246  -9.925  14.891  1.00  0.00     0.210 C 
ENDBRANCH  19  22
ENDBRANCH  12  15
ENDBRANCH   9  11
ENDBRANCH   7   9
ENDBRANCH   4   7
BRANCH   1  24
HETATM   24  N   UNL     1      42.784 -16.524   5.362  1.00  0.00    -0.378 N 
HETATM   25  C   UNL     1      42.839 -17.089   3.992  1.00  0.00     0.143 C 
HETATM   26  C   UNL     1      43.949 -18.148   3.881  1.00  0.00     0.145 C 
HETATM   27  N   UNL     1      43.849 -19.201   4.893  1.00  0.00    -0.349 N 
HETATM   28  C   UNL     1      44.471 -20.439   4.781  1.00  0.00     0.219 C 
HETATM   29  C   UNL     1      43.608 -18.714   6.256  1.00  0.00     0.145 C 
HETATM   30  O   UNL     1      44.534 -21.222   5.732  1.00  0.00    -0.273 OA
HETATM   31  C   UNL     1      42.564 -17.585   6.374  1.00  0.00     0.143 C 
BRANCH  28  32
HETATM   32  C   UNL     1      45.076 -20.851   3.447  1.00  0.00     0.103 C 
BRANCH  32  33
HETATM   33  C   UNL     1      44.390 -22.074   2.843  1.00  0.00     0.005 C 
HETATM   34  C   UNL     1      44.025 -21.904   1.378  1.00  0.00     0.005 C 
ENDBRANCH  32  33
ENDBRANCH  28  32
ENDBRANCH   1  24
TORSDOF 8
ENDMDL
MODEL 2
REMARK VINA RESULT:      -8.0      3.753     10.358
REMARK  8 active torsions:
REMARK  status: ('A' for Active; 'I' for Inactive)
REMARK    1  A    between atoms: C_2  and  C_3 
REMARK    2  A    between atoms: C_3  and  C_4 
REMARK       I    between atoms: C_4  and  N_5 
REMARK    3  A    between atoms: N_8  and  C_9 
REMARK    4  A    between atoms: C_12  and  N_13 
REMARK    5  A    between atoms: N_13  and  C_14 
REMARK    6  A    between atoms: C_14  and  N_15 
REMARK       I    between atoms: N_15  and  C_16 
REMARK    7  A    between atoms: C_16  and  C_17 
REMARK    8  A    between atoms: C_21  and  O_22 
ROOT
HETATM    1  C   UNL     1      40.057 -12.694   5.799  1.00  0.00     0.030 A 
HETATM    2  C   UNL     1      40.411 -14.050   5.888  1.00  0.00     0.031 A 
HETATM    3  C   UNL     1      40.313 -14.933   4.801  1.00  0.00     0.032 A 
HETATM    4  C   UNL     1      39.890 -14.485   3.557  1.00  0.00     0.034 A 
HETATM    5  C   UNL     1      39.622 -13.126   3.412  1.00  0.00     0.032 A 
HETATM    6  C   UNL     1      39.689 -12.255   4.517  1.00  0.00     0.031 A 
ENDROOT
BRANCH   4   7
HETATM    7  N   UNL     1      39.794 -15.316   2.422  1.00  0.00    -0.333 N 
HETATM    8  H   UNL     1      38.882 -15.744   2.264  1.00  0.00     0.168 HD
BRANCH   7   9
HETATM    9  C   UNL     1      40.768 -15.719   1.540  1.00  0.00     0.179 C 
HETATM   10  S   UNL     1      41.102 -15.147   0.002  1.00  0.00    -0.040 SA
BRANCH   9  11
HETATM   11  N   UNL     1      41.615 -16.711   1.997  1.00  0.00    -0.299 N 
HETATM   12  C   UNL     1      42.865 -16.606   2.589  1.00  0.00     0.257 C 
HETATM   13  O   UNL     1      43.490 -15.561   2.722  1.00  0.00    -0.267 OA
HETATM   14  H   UNL     1      41.180 -17.624   1.965  1.00  0.00     0.171 HD
BRANCH  12  15
HETATM   15  C   UNL     1      43.423 -17.889   3.088  1.00  0.00     0.034 A 
HETATM   16  C   UNL     1      43.426 -18.997   2.239  1.00  0.00     0.044 A 
HETATM   17  C   UNL     1      44.001 -20.196   2.671  1.00  0.00     0.068 A 
HETATM   18 CL   UNL     1      44.014 -21.526   1.566  1.00  0.00    -0.081 Cl
HETATM   19  C   UNL     1      44.562 -20.309   3.956  1.00  0.00     0.089 A 
HETATM   20  C   UNL     1      44.522 -19.200   4.808  1.00  0.00     0.039 A 
HETATM   21  C   UNL     1      43.954 -17.996   4.379  1.00  0.00     0.020 A 
BRANCH  19  22
HETATM   22  O   UNL     1      45.115 -21.519   4.287  1.00  0.00    -0.354 OA
HETATM   23  C   UNL     1      44.712 -22.121   5.510  1.00  0.00     0.210 C 
ENDBRANCH  19  22
ENDBRANCH  12  15
ENDBRANCH   9  11
ENDBRANCH   7   9
ENDBRANCH   4   7
BRANCH   1  24
HETATM   24  N   UNL     1      40.160 -11.841   6.912  1.00  0.00    -0.378 N 
HETATM   25  C   UNL     1      41.529 -11.478   7.353  1.00  0.00     0.143 C 
HETATM   26  C   UNL     1      41.504 -10.217   8.234  1.00  0.00     0.145 C 
HETATM   27  N   UNL     1      40.583 -10.320   9.367  1.00  0.00    -0.349 N 
HETATM   28  C   UNL     1      40.652  -9.507  10.493  1.00  0.00     0.219 C 
HETATM   29  C   UNL     1      39.257 -10.850   9.028  1.00  0.00     0.145 C 
HETATM   30  O   UNL     1      39.748  -9.481  11.332  1.00  0.00    -0.273 OA
HETATM   31  C   UNL     1      39.261 -12.059   8.070  1.00  0.00     0.143 C 
BRANCH  28  32
HETATM   32  C   UNL     1      41.882  -8.638  10.710  1.00  0.00     0.103 C 
BRANCH  32  33
HETATM   33  C   UNL     1      42.741  -9.115  11.878  1.00  0.00     0.005 C 
HETATM   34  C   UNL     1      43.817 -10.109  11.475  1.00  0.00     0.005 C 
ENDBRANCH  32  33
ENDBRANCH  28  32
ENDBRANCH   1  24
TORSDOF 8
ENDMDL
MODEL 3
REMARK VINA RESULT:      -8.0      1.481      1.652
REMARK  8 active torsions:
REMARK  status: ('A' for Active; 'I' for Inactive)
REMARK    1  A    between atoms: C_2  and  C_3 
REMARK    2  A    between atoms: C_3  and  C_4 
REMARK       I    between atoms: C_4  and  N_5 
REMARK    3  A    between atoms: N_8  and  C_9 
REMARK    4  A    between atoms: C_12  and  N_13 
REMARK    5  A    between atoms: N_13  and  C_14 
REMARK    6  A    between atoms: C_14  and  N_15 
REMARK       I    between atoms: N_15  and  C_16 
REMARK    7  A    between atoms: C_16  and  C_17 
REMARK    8  A    between atoms: C_21  and  O_22 
ROOT
HETATM    1  C   UNL     1      42.381 -15.322   5.607  1.00  0.00     0.030 A 
HETATM    2  C   UNL     1      40.982 -15.205   5.628  1.00  0.00     0.031 A 
HETATM    3  C   UNL     1      40.326 -13.986   5.861  1.00  0.00     0.032 A 
HETATM    4  C   UNL     1      41.046 -12.815   6.048  1.00  0.00     0.034 A 
HETATM    5  C   UNL     1      42.433 -12.880   5.938  1.00  0.00     0.032 A 
HETATM    6  C   UNL     1      43.084 -14.114   5.739  1.00  0.00     0.031 A 
ENDROOT
BRANCH   4   7
HETATM    7  N   UNL     1      40.446 -11.557   6.261  1.00  0.00    -0.333 N 
HETATM    8  H   UNL     1      39.508 -11.445   5.874  1.00  0.00     0.168 HD
BRANCH   7   9
HETATM    9  C   UNL     1      40.963 -10.418   6.829  1.00  0.00     0.179 C 
HETATM   10  S   UNL     1      41.395  -8.976   6.095  1.00  0.00    -0.040 SA
BRANCH   9  11
HETATM   11  N   UNL     1      41.117 -10.450   8.202  1.00  0.00    -0.299 N 
HETATM   12  C   UNL     1      42.266 -10.608   8.962  1.00  0.00     0.257 C 
HETATM   13  O   UNL     1      43.377 -10.853   8.507  1.00  0.00    -0.267 OA
HETATM   14  H   UNL     1      40.257 -10.224   8.684  1.00  0.00     0.171 HD
BRANCH  12  15
HETATM   15  C   UNL     1      42.068 -10.444  10.425  1.00  0.00     0.034 A 
HETATM   16  C   UNL     1      40.920  -9.794  10.879  1.00  0.00     0.044 A 
HETATM   17  C   UNL     1      40.687  -9.683  12.253  1.00  0.00     0.068 A 
HETATM   18 CL   UNL     1      39.229  -8.903  12.762  1.00  0.00    -0.081 Cl
HETATM   19  C   UNL     1      41.602 -10.201  13.188  1.00  0.00     0.089 A 
HETATM   20  C   UNL     1      42.765 -10.822  12.718  1.00  0.00     0.039 A 
HETATM   21  C   UNL     1      43.000 -10.941  11.344  1.00  0.00     0.020 A 
BRANCH  19  22
HETATM   22  O   UNL     1      41.284 -10.058  14.513  1.00  0.00    -0.354 OA
HETATM   23  C   UNL     1      42.255  -9.473  15.370  1.00  0.00     0.210 C 
ENDBRANCH  19  22
ENDBRANCH  12  15
ENDBRANCH   9  11
ENDBRANCH   7   9
ENDBRANCH   4   7
BRANCH   1  24
HETATM   24  N   UNL     1      43.004 -16.561   5.377  1.00  0.00    -0.378 N 
HETATM   25  C   UNL     1      42.956 -17.090   3.992  1.00  0.00     0.143 C 
HETATM   26  C   UNL     1      44.036 -18.164   3.778  1.00  0.00     0.145 C 
HETATM   27  N   UNL     1      43.985 -19.242   4.767  1.00  0.00    -0.349 N 
HETATM   28  C   UNL     1      44.574 -20.487   4.581  1.00  0.00     0.219 C 
HETATM   29  C   UNL     1      43.846 -18.789   6.155  1.00  0.00     0.145 C 
HETATM   30  O   UNL     1      44.688 -21.297   5.505  1.00  0.00    -0.273 OA
HETATM   31  C   UNL     1      42.833 -17.646   6.373  1.00  0.00     0.143 C 
BRANCH  28  32
HETATM   32  C   UNL     1      45.080 -20.873   3.198  1.00  0.00     0.103 C 
BRANCH  32  33
HETATM   33  C   UNL     1      44.373 -22.104   2.636  1.00  0.00     0.005 C 
HETATM   34  C   UNL     1      43.547 -21.816   1.393  1.00  0.00     0.005 C 
ENDBRANCH  32  33
ENDBRANCH  28  32
ENDBRANCH   1  24
TORSDOF 8
ENDMDL
MODEL 4
REMARK VINA RESULT:      -7.9      3.197     10.266
REMARK  8 active torsions:
REMARK  status: ('A' for Active; 'I' for Inactive)
REMARK    1  A    between atoms: C_2  and  C_3 
REMARK    2  A    between atoms: C_3  and  C_4 
REMARK       I    between atoms: C_4  and  N_5 
REMARK    3  A    between atoms: N_8  and  C_9 
REMARK    4  A    between atoms: C_12  and  N_13 
REMARK    5  A    between atoms: N_13  and  C_14 
REMARK    6  A    between atoms: C_14  and  N_15 
REMARK       I    between atoms: N_15  and  C_16 
REMARK    7  A    between atoms: C_16  and  C_17 
REMARK    8  A    between atoms: C_21  and  O_22 
ROOT
HETATM    1  C   UNL     1      40.556 -11.843   6.082  1.00  0.00     0.030 A 
HETATM    2  C   UNL     1      40.889 -11.223   4.866  1.00  0.00     0.031 A 
HETATM    3  C   UNL     1      40.805 -11.881   3.630  1.00  0.00     0.032 A 
HETATM    4  C   UNL     1      40.344 -13.188   3.550  1.00  0.00     0.034 A 
HETATM    5  C   UNL     1      39.916 -13.799   4.725  1.00  0.00     0.032 A 
HETATM    6  C   UNL     1      40.037 -13.143   5.966  1.00  0.00     0.031 A 
ENDROOT
BRANCH   4   7
HETATM    7  N   UNL     1      40.213 -13.894   2.336  1.00  0.00    -0.333 N 
HETATM    8  H   UNL     1      39.256 -14.099   2.047  1.00  0.00     0.168 HD
BRANCH   7   9
HETATM    9  C   UNL     1      41.178 -14.437   1.523  1.00  0.00     0.179 C 
HETATM   10  S   UNL     1      41.673 -13.947   0.000  1.00  0.00    -0.040 SA
BRANCH   9  11
HETATM   11  N   UNL     1      41.863 -15.517   2.047  1.00  0.00    -0.299 N 
HETATM   12  C   UNL     1      41.394 -16.768   2.419  1.00  0.00     0.257 C 
HETATM   13  O   UNL     1      40.215 -17.098   2.430  1.00  0.00    -0.267 OA
HETATM   14  H   UNL     1      42.863 -15.364   2.050  1.00  0.00     0.171 HD
BRANCH  12  15
HETATM   15  C   UNL     1      42.453 -17.735   2.808  1.00  0.00     0.034 A 
HETATM   16  C   UNL     1      43.136 -17.538   4.008  1.00  0.00     0.044 A 
HETATM   17  C   UNL     1      44.093 -18.470   4.419  1.00  0.00     0.068 A 
HETATM   18 CL   UNL     1      44.883 -18.198   5.935  1.00  0.00    -0.081 Cl
HETATM   19  C   UNL     1      44.392 -19.597   3.633  1.00  0.00     0.089 A 
HETATM   20  C   UNL     1      43.723 -19.765   2.415  1.00  0.00     0.039 A 
HETATM   21  C   UNL     1      42.759 -18.839   2.002  1.00  0.00     0.020 A 
BRANCH  19  22
HETATM   22  O   UNL     1      45.335 -20.463   4.122  1.00  0.00    -0.354 OA
HETATM   23  C   UNL     1      44.881 -21.658   4.744  1.00  0.00     0.210 C 
ENDBRANCH  19  22
ENDBRANCH  12  15
ENDBRANCH   9  11
ENDBRANCH   7   9
ENDBRANCH   4   7
BRANCH   1  24
HETATM   24  N   UNL     1      40.660 -11.154   7.302  1.00  0.00    -0.378 N 
HETATM   25  C   UNL     1      42.014 -11.047   7.899  1.00  0.00     0.143 C 
HETATM   26  C   UNL     1      42.067  -9.912   8.935  1.00  0.00     0.145 C 
HETATM   27  N   UNL     1      41.033 -10.018   9.966  1.00  0.00    -0.349 N 
HETATM   28  C   UNL     1      41.096  -9.367  11.192  1.00  0.00     0.219 C 
HETATM   29  C   UNL     1      39.689 -10.309   9.452  1.00  0.00     0.145 C 
HETATM   30  O   UNL     1      40.124  -9.314  11.950  1.00  0.00    -0.273 OA
HETATM   31  C   UNL     1      39.629 -11.381   8.344  1.00  0.00     0.143 C 
BRANCH  28  32
HETATM   32  C   UNL     1      42.402  -8.715  11.622  1.00  0.00     0.103 C 
BRANCH  32  33
HETATM   33  C   UNL     1      43.260  -9.632  12.489  1.00  0.00     0.005 C 
HETATM   34  C   UNL     1      43.249  -9.262  13.963  1.00  0.00     0.005 C 
ENDBRANCH  32  33
ENDBRANCH  28  32
ENDBRANCH   1  24
TORSDOF 8
ENDMDL
MODEL 5
REMARK VINA RESULT:      -7.9      1.152      1.571
REMARK  8 active torsions:
REMARK  status: ('A' for Active; 'I' for Inactive)
REMARK    1  A    between atoms: C_2  and  C_3 
REMARK    2  A    between atoms: C_3  and  C_4 
REMARK       I    between atoms: C_4  and  N_5 
REMARK    3  A    between atoms: N_8  and  C_9 
REMARK    4  A    between atoms: C_12  and  N_13 
REMARK    5  A    between atoms: N_13  and  C_14 
REMARK    6  A    between atoms: C_14  and  N_15 
REMARK       I    between atoms: N_15  and  C_16 
REMARK    7  A    between atoms: C_16  and  C_17 
REMARK    8  A    between atoms: C_21  and  O_22 
ROOT
HETATM    1  C   UNL     1      41.473 -13.891   5.113  1.00  0.00     0.030 A 
HETATM    2  C   UNL     1      42.025 -12.641   4.787  1.00  0.00     0.031 A 
HETATM    3  C   UNL     1      41.369 -11.429   5.051  1.00  0.00     0.032 A 
HETATM    4  C   UNL     1      40.138 -11.412   5.692  1.00  0.00     0.034 A 
HETATM    5  C   UNL     1      39.607 -12.629   6.113  1.00  0.00     0.032 A 
HETATM    6  C   UNL     1      40.257 -13.843   5.813  1.00  0.00     0.031 A 
ENDROOT
BRANCH   4   7
HETATM    7  N   UNL     1      39.440 -10.228   6.007  1.00  0.00    -0.333 N 
HETATM    8  H   UNL     1      38.529 -10.121   5.560  1.00  0.00     0.168 HD
BRANCH   7   9
HETATM    9  C   UNL     1      39.836  -9.143   6.751  1.00  0.00     0.179 C 
HETATM   10  S   UNL     1      39.901  -7.528   6.311  1.00  0.00    -0.040 SA
BRANCH   9  11
HETATM   11  N   UNL     1      40.198  -9.413   8.057  1.00  0.00    -0.299 N 
HETATM   12  C   UNL     1      39.532 -10.147   9.028  1.00  0.00     0.257 C 
HETATM   13  O   UNL     1      38.410 -10.620   8.900  1.00  0.00    -0.267 OA
HETATM   14  H   UNL     1      41.135  -9.092   8.264  1.00  0.00     0.171 HD
BRANCH  12  15
HETATM   15  C   UNL     1      40.298 -10.349  10.285  1.00  0.00     0.034 A 
HETATM   16  C   UNL     1      41.656 -10.660  10.202  1.00  0.00     0.044 A 
HETATM   17  C   UNL     1      42.406 -10.794  11.374  1.00  0.00     0.068 A 
HETATM   18 CL   UNL     1      44.093 -11.142  11.215  1.00  0.00    -0.081 Cl
HETATM   19  C   UNL     1      41.810 -10.636  12.639  1.00  0.00     0.089 A 
HETATM   20  C   UNL     1      40.440 -10.356  12.707  1.00  0.00     0.039 A 
HETATM   21  C   UNL     1      39.686 -10.214  11.537  1.00  0.00     0.020 A 
BRANCH  19  22
HETATM   22  O   UNL     1      42.626 -10.773  13.731  1.00  0.00    -0.354 OA
HETATM   23  C   UNL     1      42.374  -9.943  14.857  1.00  0.00     0.210 C 
ENDBRANCH  19  22
ENDBRANCH  12  15
ENDBRANCH   9  11
ENDBRANCH   7   9
ENDBRANCH   4   7
BRANCH   1  24
HETATM   24  N   UNL     1      42.157 -15.085   4.826  1.00  0.00    -0.378 N 
HETATM   25  C   UNL     1      41.685 -15.863   3.655  1.00  0.00     0.143 C 
HETATM   26  C   UNL     1      42.766 -16.850   3.182  1.00  0.00     0.145 C 
HETATM   27  N   UNL     1      43.258 -17.726   4.246  1.00  0.00    -0.349 N 
HETATM   28  C   UNL     1      43.929 -18.921   4.014  1.00  0.00     0.219 C 
HETATM   29  C   UNL     1      43.573 -17.038   5.504  1.00  0.00     0.145 C 
HETATM   30  O   UNL     1      44.504 -19.530   4.919  1.00  0.00    -0.273 OA
HETATM   31  C   UNL     1      42.543 -15.978   5.946  1.00  0.00     0.143 C 
BRANCH  28  32
HETATM   32  C   UNL     1      43.941 -19.507   2.609  1.00  0.00     0.103 C 
BRANCH  32  33
HETATM   33  C   UNL     1      44.648 -20.858   2.541  1.00  0.00     0.005 C 
HETATM   34  C   UNL     1      43.919 -21.884   1.690  1.00  0.00     0.005 C 
ENDBRANCH  32  33
ENDBRANCH  28  32
ENDBRANCH   1  24
TORSDOF 8
ENDMDL
MODEL 6
REMARK VINA RESULT:      -7.7      5.756      9.521
REMARK  8 active torsions:
REMARK  status: ('A' for Active; 'I' for Inactive)
REMARK    1  A    between atoms: C_2  and  C_3 
REMARK    2  A    between atoms: C_3  and  C_4 
REMARK       I    between atoms: C_4  and  N_5 
REMARK    3  A    between atoms: N_8  and  C_9 
REMARK    4  A    between atoms: C_12  and  N_13 
REMARK    5  A    between atoms: N_13  and  C_14 
REMARK    6  A    between atoms: C_14  and  N_15 
REMARK       I    between atoms: N_15  and  C_16 
REMARK    7  A    between atoms: C_16  and  C_17 
REMARK    8  A    between atoms: C_21  and  O_22 
ROOT
HETATM    1  C   UNL     1      40.648 -13.278   2.264  1.00  0.00     0.030 A 
HETATM    2  C   UNL     1      40.245 -14.305   3.133  1.00  0.00     0.031 A 
HETATM    3  C   UNL     1      40.815 -14.494   4.402  1.00  0.00     0.032 A 
HETATM    4  C   UNL     1      41.794 -13.632   4.876  1.00  0.00     0.034 A 
HETATM    5  C   UNL     1      42.147 -12.547   4.079  1.00  0.00     0.032 A 
HETATM    6  C   UNL     1      41.595 -12.386   2.793  1.00  0.00     0.031 A 
ENDROOT
BRANCH   4   7
HETATM    7  N   UNL     1      42.386 -13.754   6.151  1.00  0.00    -0.333 N 
HETATM    8  H   UNL     1      41.892 -13.288   6.912  1.00  0.00     0.168 HD
BRANCH   7   9
HETATM    9  C   UNL     1      43.582 -14.323   6.516  1.00  0.00     0.179 C 
HETATM   10  S   UNL     1      44.772 -13.719   7.529  1.00  0.00    -0.040 SA
BRANCH   9  11
HETATM   11  N   UNL     1      43.824 -15.585   6.009  1.00  0.00    -0.299 N 
HETATM   12  C   UNL     1      43.159 -16.779   6.247  1.00  0.00     0.257 C 
HETATM   13  O   UNL     1      42.260 -16.927   7.064  1.00  0.00    -0.267 OA
HETATM   14  H   UNL     1      44.536 -15.572   5.289  1.00  0.00     0.171 HD
BRANCH  12  15
HETATM   15  C   UNL     1      43.612 -17.917   5.405  1.00  0.00     0.034 A 
HETATM   16  C   UNL     1      43.371 -17.875   4.032  1.00  0.00     0.044 A 
HETATM   17  C   UNL     1      43.842 -18.908   3.216  1.00  0.00     0.068 A 
HETATM   18 CL   UNL     1      43.551 -18.788   1.516  1.00  0.00    -0.081 Cl
HETATM   19  C   UNL     1      44.542 -20.000   3.761  1.00  0.00     0.089 A 
HETATM   20  C   UNL     1      44.748 -20.044   5.145  1.00  0.00     0.039 A 
HETATM   21  C   UNL     1      44.284 -19.010   5.965  1.00  0.00     0.020 A 
BRANCH  19  22
HETATM   22  O   UNL     1      44.978 -20.958   2.884  1.00  0.00    -0.354 OA
HETATM   23  C   UNL     1      44.421 -22.262   2.993  1.00  0.00     0.210 C 
ENDBRANCH  19  22
ENDBRANCH  12  15
ENDBRANCH   9  11
ENDBRANCH   7   9
ENDBRANCH   4   7
BRANCH   1  24
HETATM   24  N   UNL     1      40.059 -13.124   0.997  1.00  0.00    -0.378 N 
HETATM   25  C   UNL     1      39.260 -14.264   0.486  1.00  0.00     0.143 C 
HETATM   26  C   UNL     1      38.317 -13.809  -0.641  1.00  0.00     0.145 C 
HETATM   27  N   UNL     1      39.005 -13.106  -1.725  1.00  0.00    -0.349 N 
HETATM   28  C   UNL     1      38.470 -12.938  -2.997  1.00  0.00     0.219 C 
HETATM   29  C   UNL     1      39.956 -12.081  -1.279  1.00  0.00     0.145 C 
HETATM   30  O   UNL     1      38.980 -12.174  -3.820  1.00  0.00    -0.273 OA
HETATM   31  C   UNL     1      40.847 -12.489  -0.087  1.00  0.00     0.143 C 
BRANCH  28  32
HETATM   32  C   UNL     1      37.233 -13.730  -3.395  1.00  0.00     0.103 C 
BRANCH  32  33
HETATM   33  C   UNL     1      37.570 -14.988  -4.190  1.00  0.00     0.005 C 
HETATM   34  C   UNL     1      38.960 -15.532  -3.906  1.00  0.00     0.005 C 
ENDBRANCH  32  33
ENDBRANCH  28  32
ENDBRANCH   1  24
TORSDOF 8
ENDMDL
MODEL 7
REMARK VINA RESULT:      -7.5      7.605     11.185
REMARK  8 active torsions:
REMARK  status: ('A' for Active; 'I' for Inactive)
REMARK    1  A    between atoms: C_2  and  C_3 
REMARK    2  A    between atoms: C_3  and  C_4 
REMARK       I    between atoms: C_4  and  N_5 
REMARK    3  A    between atoms: N_8  and  C_9 
REMARK    4  A    between atoms: C_12  and  N_13 
REMARK    5  A    between atoms: N_13  and  C_14 
REMARK    6  A    between atoms: C_14  and  N_15 
REMARK       I    between atoms: N_15  and  C_16 
REMARK    7  A    between atoms: C_16  and  C_17 
REMARK    8  A    between atoms: C_21  and  O_22 
ROOT
HETATM    1  C   UNL     1      39.512 -13.684  -1.319  1.00  0.00     0.030 A 
HETATM    2  C   UNL     1      40.493 -14.687  -1.255  1.00  0.00     0.031 A 
HETATM    3  C   UNL     1      41.443 -14.756  -0.224  1.00  0.00     0.032 A 
HETATM    4  C   UNL     1      41.429 -13.838   0.817  1.00  0.00     0.034 A 
HETATM    5  C   UNL     1      40.411 -12.888   0.833  1.00  0.00     0.032 A 
HETATM    6  C   UNL     1      39.484 -12.805  -0.224  1.00  0.00     0.031 A 
ENDROOT
BRANCH   4   7
HETATM    7  N   UNL     1      42.339 -13.869   1.894  1.00  0.00    -0.333 N 
HETATM    8  H   UNL     1      43.297 -13.595   1.670  1.00  0.00     0.168 HD
BRANCH   7   9
HETATM    9  C   UNL     1      42.163 -14.303   3.185  1.00  0.00     0.179 C 
HETATM   10  S   UNL     1      41.417 -13.524   4.468  1.00  0.00    -0.040 SA
BRANCH   9  11
HETATM   11  N   UNL     1      42.633 -15.573   3.460  1.00  0.00    -0.299 N 
HETATM   12  C   UNL     1      42.151 -16.805   3.043  1.00  0.00     0.257 C 
HETATM   13  O   UNL     1      41.119 -16.973   2.406  1.00  0.00    -0.267 OA
HETATM   14  H   UNL     1      43.513 -15.551   3.959  1.00  0.00     0.171 HD
BRANCH  12  15
HETATM   15  C   UNL     1      43.005 -17.961   3.418  1.00  0.00     0.034 A 
HETATM   16  C   UNL     1      43.057 -18.354   4.756  1.00  0.00     0.044 A 
HETATM   17  C   UNL     1      43.807 -19.476   5.118  1.00  0.00     0.068 A 
HETATM   18 CL   UNL     1      43.806 -19.943   6.783  1.00  0.00    -0.081 Cl
HETATM   19  C   UNL     1      44.527 -20.209   4.156  1.00  0.00     0.089 A 
HETATM   20  C   UNL     1      44.492 -19.784   2.822  1.00  0.00     0.039 A 
HETATM   21  C   UNL     1      43.737 -18.665   2.454  1.00  0.00     0.020 A 
BRANCH  19  22
HETATM   22  O   UNL     1      45.223 -21.301   4.601  1.00  0.00    -0.354 OA
HETATM   23  C   UNL     1      44.675 -22.588   4.347  1.00  0.00     0.210 C 
ENDBRANCH  19  22
ENDBRANCH  12  15
ENDBRANCH   9  11
ENDBRANCH   7   9
ENDBRANCH   4   7
BRANCH   1  24
HETATM   24  N   UNL     1      38.582 -13.643  -2.372  1.00  0.00    -0.378 N 
HETATM   25  C   UNL     1      37.700 -12.452  -2.440  1.00  0.00     0.143 C 
HETATM   26  C   UNL     1      37.088 -12.305  -3.844  1.00  0.00     0.145 C 
HETATM   27  N   UNL     1      36.400 -13.510  -4.307  1.00  0.00    -0.349 N 
HETATM   28  C   UNL     1      35.464 -13.518  -5.335  1.00  0.00     0.219 C 
HETATM   29  C   UNL     1      37.147 -14.756  -4.099  1.00  0.00     0.145 C 
HETATM   30  O   UNL     1      35.056 -14.570  -5.833  1.00  0.00    -0.273 OA
HETATM   31  C   UNL     1      37.846 -14.880  -2.729  1.00  0.00     0.143 C 
BRANCH  28  32
HETATM   32  C   UNL     1      34.913 -12.197  -5.850  1.00  0.00     0.103 C 
BRANCH  32  33
HETATM   33  C   UNL     1      33.421 -12.033  -5.571  1.00  0.00     0.005 C 
HETATM   34  C   UNL     1      33.015 -12.451  -4.168  1.00  0.00     0.005 C 
ENDBRANCH  32  33
ENDBRANCH  28  32
ENDBRANCH   1  24
TORSDOF 8
ENDMDL
MODEL 8
REMARK VINA RESULT:      -7.4      5.890     10.153
REMARK  8 active torsions:
REMARK  status: ('A' for Active; 'I' for Inactive)
REMARK    1  A    between atoms: C_2  and  C_3 
REMARK    2  A    between atoms: C_3  and  C_4 
REMARK       I    between atoms: C_4  and  N_5 
REMARK    3  A    between atoms: N_8  and  C_9 
REMARK    4  A    between atoms: C_12  and  N_13 
REMARK    5  A    between atoms: N_13  and  C_14 
REMARK    6  A    between atoms: C_14  and  N_15 
REMARK       I    between atoms: N_15  and  C_16 
REMARK    7  A    between atoms: C_16  and  C_17 
REMARK    8  A    between atoms: C_21  and  O_22 
ROOT
HETATM    1  C   UNL     1      40.427 -13.319   2.169  1.00  0.00     0.030 A 
HETATM    2  C   UNL     1      41.625 -12.693   2.551  1.00  0.00     0.031 A 
HETATM    3  C   UNL     1      42.232 -12.912   3.797  1.00  0.00     0.032 A 
HETATM    4  C   UNL     1      41.684 -13.804   4.708  1.00  0.00     0.034 A 
HETATM    5  C   UNL     1      40.550 -14.513   4.322  1.00  0.00     0.032 A 
HETATM    6  C   UNL     1      39.927 -14.260   3.083  1.00  0.00     0.031 A 
ENDROOT
BRANCH   4   7
HETATM    7  N   UNL     1      42.260 -14.087   5.964  1.00  0.00    -0.333 N 
HETATM    8  H   UNL     1      41.725 -13.774   6.775  1.00  0.00     0.168 HD
BRANCH   7   9
HETATM    9  C   UNL     1      43.481 -14.636   6.271  1.00  0.00     0.179 C 
HETATM   10  S   UNL     1      44.681 -14.045   7.280  1.00  0.00    -0.040 SA
BRANCH   9  11
HETATM   11  N   UNL     1      43.746 -15.865   5.697  1.00  0.00    -0.299 N 
HETATM   12  C   UNL     1      43.037 -17.054   5.781  1.00  0.00     0.257 C 
HETATM   13  O   UNL     1      42.058 -17.235   6.494  1.00  0.00    -0.267 OA
HETATM   14  H   UNL     1      44.525 -15.821   5.053  1.00  0.00     0.171 HD
BRANCH  12  15
HETATM   15  C   UNL     1      43.546 -18.141   4.905  1.00  0.00     0.034 A 
HETATM   16  C   UNL     1      43.974 -19.332   5.492  1.00  0.00     0.044 A 
HETATM   17  C   UNL     1      44.400 -20.388   4.681  1.00  0.00     0.068 A 
HETATM   18 CL   UNL     1      44.883 -21.856   5.457  1.00  0.00    -0.081 Cl
HETATM   19  C   UNL     1      44.420 -20.263   3.280  1.00  0.00     0.089 A 
HETATM   20  C   UNL     1      44.018 -19.051   2.706  1.00  0.00     0.039 A 
HETATM   21  C   UNL     1      43.585 -17.993   3.514  1.00  0.00     0.020 A 
BRANCH  19  22
HETATM   22  O   UNL     1      44.839 -21.354   2.565  1.00  0.00    -0.354 OA
HETATM   23  C   UNL     1      43.981 -21.854   1.549  1.00  0.00     0.210 C 
ENDBRANCH  19  22
ENDBRANCH  12  15
ENDBRANCH   9  11
ENDBRANCH   7   9
ENDBRANCH   4   7
BRANCH   1  24
HETATM   24  N   UNL     1      39.843 -13.069   0.915  1.00  0.00    -0.378 N 
HETATM   25  C   UNL     1      39.305 -11.706   0.686  1.00  0.00     0.143 C 
HETATM   26  C   UNL     1      39.137 -11.430  -0.818  1.00  0.00     0.145 C 
HETATM   27  N   UNL     1      38.341 -12.445  -1.509  1.00  0.00    -0.349 N 
HETATM   28  C   UNL     1      37.734 -12.242  -2.743  1.00  0.00     0.219 C 
HETATM   29  C   UNL     1      38.704 -13.829  -1.183  1.00  0.00     0.145 C 
HETATM   30  O   UNL     1      37.245 -13.172  -3.387  1.00  0.00    -0.273 OA
HETATM   31  C   UNL     1      38.967 -14.102   0.312  1.00  0.00     0.143 C 
BRANCH  28  32
HETATM   32  C   UNL     1      37.655 -10.832  -3.310  1.00  0.00     0.103 C 
BRANCH  32  33
HETATM   33  C   UNL     1      38.359 -10.700  -4.658  1.00  0.00     0.005 C 
HETATM   34  C   UNL     1      39.876 -10.704  -4.554  1.00  0.00     0.005 C 
ENDBRANCH  32  33
ENDBRANCH  28  32
ENDBRANCH   1  24
TORSDOF 8
ENDMDL
MODEL 9
REMARK VINA RESULT:      -7.4      8.484     12.393
REMARK  8 active torsions:
REMARK  status: ('A' for Active; 'I' for Inactive)
REMARK    1  A    between atoms: C_2  and  C_3 
REMARK    2  A    between atoms: C_3  and  C_4 
REMARK       I    between atoms: C_4  and  N_5 
REMARK    3  A    between atoms: N_8  and  C_9 
REMARK    4  A    between atoms: C_12  and  N_13 
REMARK    5  A    between atoms: N_13  and  C_14 
REMARK    6  A    between atoms: C_14  and  N_15 
REMARK       I    between atoms: N_15  and  C_16 
REMARK    7  A    between atoms: C_16  and  C_17 
REMARK    8  A    between atoms: C_21  and  O_22 
ROOT
HETATM    1  C   UNL     1      38.571 -13.876  -2.926  1.00  0.00     0.030 A 
HETATM    2  C   UNL     1      38.518 -13.838  -1.523  1.00  0.00     0.031 A 
HETATM    3  C   UNL     1      39.542 -14.349  -0.711  1.00  0.00     0.032 A 
HETATM    4  C   UNL     1      40.691 -14.889  -1.271  1.00  0.00     0.034 A 
HETATM    5  C   UNL     1      40.817 -14.855  -2.657  1.00  0.00     0.032 A 
HETATM    6  C   UNL     1      39.769 -14.373  -3.465  1.00  0.00     0.031 A 
ENDROOT
BRANCH   4   7
HETATM    7  N   UNL     1      41.765 -15.395  -0.509  1.00  0.00    -0.333 N 
HETATM    8  H   UNL     1      42.320 -16.123  -0.959  1.00  0.00     0.168 HD
BRANCH   7   9
HETATM    9  C   UNL     1      42.128 -15.128   0.789  1.00  0.00     0.179 C 
HETATM   10  S   UNL     1      42.009 -13.692   1.644  1.00  0.00    -0.040 SA
BRANCH   9  11
HETATM   11  N   UNL     1      42.629 -16.199   1.503  1.00  0.00    -0.299 N 
HETATM   12  C   UNL     1      42.120 -17.481   1.651  1.00  0.00     0.257 C 
HETATM   13  O   UNL     1      41.037 -17.857   1.222  1.00  0.00    -0.267 OA
HETATM   14  H   UNL     1      43.549 -16.007   1.877  1.00  0.00     0.171 HD
BRANCH  12  15
HETATM   15  C   UNL     1      43.012 -18.420   2.380  1.00  0.00     0.034 A 
HETATM   16  C   UNL     1      43.440 -18.080   3.664  1.00  0.00     0.044 A 
HETATM   17  C   UNL     1      44.230 -18.978   4.388  1.00  0.00     0.068 A 
HETATM   18 CL   UNL     1      44.701 -18.525   5.989  1.00  0.00    -0.081 Cl
HETATM   19  C   UNL     1      44.614 -20.214   3.836  1.00  0.00     0.089 A 
HETATM   20  C   UNL     1      44.204 -20.527   2.535  1.00  0.00     0.039 A 
HETATM   21  C   UNL     1      43.408 -19.635   1.808  1.00  0.00     0.020 A 
BRANCH  19  22
HETATM   22  O   UNL     1      45.377 -21.035   4.624  1.00  0.00    -0.354 OA
HETATM   23  C   UNL     1      44.756 -22.183   5.187  1.00  0.00     0.210 C 
ENDBRANCH  19  22
ENDBRANCH  12  15
ENDBRANCH   9  11
ENDBRANCH   7   9
ENDBRANCH   4   7
BRANCH   1  24
HETATM   24  N   UNL     1      37.523 -13.362  -3.708  1.00  0.00    -0.378 N 
HETATM   25  C   UNL     1      36.793 -12.191  -3.165  1.00  0.00     0.143 C 
HETATM   26  C   UNL     1      36.025 -11.459  -4.279  1.00  0.00     0.145 C 
HETATM   27  N   UNL     1      35.139 -12.336  -5.045  1.00  0.00    -0.349 N 
HETATM   28  C   UNL     1      34.082 -11.877  -5.823  1.00  0.00     0.219 C 
HETATM   29  C   UNL     1      35.748 -13.605  -5.460  1.00  0.00     0.145 C 
HETATM   30  O   UNL     1      33.485 -12.616  -6.610  1.00  0.00    -0.273 OA
HETATM   31  C   UNL     1      36.599 -14.307  -4.382  1.00  0.00     0.143 C 
BRANCH  28  32
HETATM   32  C   UNL     1      33.636 -10.428  -5.691  1.00  0.00     0.103 C 
BRANCH  32  33
HETATM   33  C   UNL     1      32.283 -10.291  -4.997  1.00  0.00     0.005 C 
HETATM   34  C   UNL     1      32.313 -10.677  -3.527  1.00  0.00     0.005 C 
ENDBRANCH  32  33
ENDBRANCH  28  32
ENDBRANCH   1  24
TORSDOF 8
ENDMDL
MODEL 10
REMARK VINA RESULT:      -7.2      7.199      8.408
REMARK  8 active torsions:
REMARK  status: ('A' for Active; 'I' for Inactive)
REMARK    1  A    between atoms: C_2  and  C_3 
REMARK    2  A    between atoms: C_3  and  C_4 
REMARK       I    between atoms: C_4  and  N_5 
REMARK    3  A    between atoms: N_8  and  C_9 
REMARK    4  A    between atoms: C_12  and  N_13 
REMARK    5  A    between atoms: N_13  and  C_14 
REMARK    6  A    between atoms: C_14  and  N_15 
REMARK       I    between atoms: N_15  and  C_16 
REMARK    7  A    between atoms: C_16  and  C_17 
REMARK    8  A    between atoms: C_21  and  O_22 
ROOT
HETATM    1  C   UNL     1      40.303 -15.474   1.235  1.00  0.00     0.030 A 
HETATM    2  C   UNL     1      40.592 -14.897  -0.012  1.00  0.00     0.031 A 
HETATM    3  C   UNL     1      39.702 -14.038  -0.676  1.00  0.00     0.032 A 
HETATM    4  C   UNL     1      38.491 -13.685  -0.099  1.00  0.00     0.034 A 
HETATM    5  C   UNL     1      38.216 -14.163   1.180  1.00  0.00     0.032 A 
HETATM    6  C   UNL     1      39.099 -15.053   1.823  1.00  0.00     0.031 A 
ENDROOT
BRANCH   4   7
HETATM    7  N   UNL     1      37.567 -12.807  -0.703  1.00  0.00    -0.333 N 
HETATM    8  H   UNL     1      36.893 -13.242  -1.333  1.00  0.00     0.168 HD
BRANCH   7   9
HETATM    9  C   UNL     1      37.489 -11.436  -0.651  1.00  0.00     0.179 C 
HETATM   10  S   UNL     1      38.383 -10.296  -1.491  1.00  0.00    -0.040 SA
BRANCH   9  11
HETATM   11  N   UNL     1      36.514 -10.923   0.183  1.00  0.00    -0.299 N 
HETATM   12  C   UNL     1      35.164 -10.714  -0.056  1.00  0.00     0.257 C 
HETATM   13  O   UNL     1      34.612 -10.873  -1.137  1.00  0.00    -0.267 OA
HETATM   14  H   UNL     1      36.857 -10.785   1.125  1.00  0.00     0.171 HD
BRANCH  12  15
HETATM   15  C   UNL     1      34.386 -10.279   1.133  1.00  0.00     0.034 A 
HETATM   16  C   UNL     1      33.112 -10.811   1.335  1.00  0.00     0.044 A 
HETATM   17  C   UNL     1      32.390 -10.460   2.479  1.00  0.00     0.068 A 
HETATM   18 CL   UNL     1      30.833 -11.179   2.701  1.00  0.00    -0.081 Cl
HETATM   19  C   UNL     1      32.921  -9.562   3.424  1.00  0.00     0.089 A 
HETATM   20  C   UNL     1      34.186  -9.011   3.191  1.00  0.00     0.039 A 
HETATM   21  C   UNL     1      34.915  -9.364   2.051  1.00  0.00     0.020 A 
BRANCH  19  22
HETATM   22  O   UNL     1      32.147  -9.286   4.520  1.00  0.00    -0.354 OA
HETATM   23  C   UNL     1      32.674  -9.601   5.802  1.00  0.00     0.210 C 
ENDBRANCH  19  22
ENDBRANCH  12  15
ENDBRANCH   9  11
ENDBRANCH   7   9
ENDBRANCH   4   7
BRANCH   1  24
HETATM   24  N   UNL     1      41.215 -16.336   1.867  1.00  0.00    -0.378 N 
HETATM   25  C   UNL     1      41.785 -17.429   1.043  1.00  0.00     0.143 C 
HETATM   26  C   UNL     1      43.072 -17.982   1.681  1.00  0.00     0.145 C 
HETATM   27  N   UNL     1      42.897 -18.395   3.074  1.00  0.00    -0.349 N 
HETATM   28  C   UNL     1      43.765 -19.254   3.738  1.00  0.00     0.219 C 
HETATM   29  C   UNL     1      42.172 -17.430   3.908  1.00  0.00     0.145 C 
HETATM   30  O   UNL     1      43.705 -19.421   4.959  1.00  0.00    -0.273 OA
HETATM   31  C   UNL     1      40.930 -16.796   3.248  1.00  0.00     0.143 C 
BRANCH  28  32
HETATM   32  C   UNL     1      44.806 -20.025   2.940  1.00  0.00     0.103 C 
BRANCH  32  33
HETATM   33  C   UNL     1      44.473 -21.509   2.817  1.00  0.00     0.005 C 
HETATM   34  C   UNL     1      43.700 -21.856   1.555  1.00  0.00     0.005 C 
ENDBRANCH  32  33
ENDBRANCH  28  32
ENDBRANCH   1  24
TORSDOF 8
ENDMDL
