MODEL 1
REMARK VINA RESULT:      -9.1      0.000      0.000
REMARK  3 active torsions:
REMARK  status: ('A' for Active; 'I' for Inactive)
REMARK    1  A    between atoms: N_3  and  C_4 
REMARK    2  A    between atoms: C_6  and  C_7 
REMARK       I    between atoms: C_7  and  N_8 
REMARK    3  A    between atoms: N_8  and  C_9 
ROOT
HETATM    1  C   UNL     1      41.972 -13.224   5.182  1.00  0.00     0.072 C 
HETATM    2  C   UNL     1      42.409 -14.705   5.180  1.00  0.00     0.149 C 
HETATM    3  N   UNL     1      43.226 -15.069   6.365  1.00  0.00    -0.267 N 
HETATM    4  C   UNL     1      43.182 -16.355   6.901  1.00  0.00     0.326 C 
HETATM    5  O   UNL     1      43.878 -16.776   7.824  1.00  0.00    -0.247 OA
HETATM    6  N   UNL     1      42.284 -17.221   6.350  1.00  0.00    -0.334 N 
HETATM    7  O   UNL     1      43.178 -14.897   3.971  1.00  0.00    -0.319 OA
HETATM    8  C   UNL     1      43.169 -16.150   3.420  1.00  0.00     0.080 A 
HETATM    9  C   UNL     1      42.404 -17.202   3.933  1.00  0.00    -0.002 A 
HETATM   10  C   UNL     1      43.951 -16.338   2.283  1.00  0.00     0.037 A 
HETATM   11  C   UNL     1      43.985 -17.586   1.658  1.00  0.00     0.003 A 
HETATM   12  C   UNL     1      43.243 -18.646   2.177  1.00  0.00     0.001 A 
HETATM   13  C   UNL     1      42.457 -18.457   3.315  1.00  0.00     0.012 A 
HETATM   14  C   UNL     1      41.106 -15.517   5.152  1.00  0.00     0.092 C 
HETATM   15  C   UNL     1      41.550 -16.958   5.144  1.00  0.00     0.127 C 
HETATM   16  H   UNL     1      42.385 -18.172   6.681  1.00  0.00     0.165 HD
ENDROOT
BRANCH   3  17
HETATM   17  C   UNL     1      44.184 -14.145   6.895  1.00  0.00     0.043 A 
HETATM   18  C   UNL     1      43.874 -13.284   7.955  1.00  0.00     0.047 A 
HETATM   19  C   UNL     1      44.840 -12.394   8.447  1.00  0.00     0.034 A 
HETATM   20  C   UNL     1      46.135 -12.395   7.917  1.00  0.00     0.017 A 
HETATM   21  C   UNL     1      46.449 -13.241   6.859  1.00  0.00     0.003 A 
HETATM   22  C   UNL     1      45.474 -14.096   6.343  1.00  0.00     0.030 A 
BRANCH  19  23
HETATM   23  C   UNL     1      44.529 -11.405   9.513  1.00  0.00     0.252 C 
HETATM   24  N   UNL     1      43.395 -11.670  10.254  1.00  0.00    -0.352 N 
HETATM   25  H   UNL     1      42.795 -12.419   9.932  1.00  0.00     0.163 HD
HETATM   26  O   UNL     1      45.223 -10.404   9.636  1.00  0.00    -0.268 OA
BRANCH  24  27
HETATM   27  C   UNL     1      42.807 -10.725  11.184  1.00  0.00     0.084 C 
HETATM   28  C   UNL     1      41.340 -10.979  11.534  1.00  0.00     0.025 C 
HETATM   29  C   UNL     1      41.172 -10.241  12.853  1.00  0.00     0.002 C 
HETATM   30  C   UNL     1      42.457 -10.566  13.599  1.00  0.00     0.002 C 
HETATM   31  C   UNL     1      43.545 -10.612  12.527  1.00  0.00     0.025 C 
ENDBRANCH  24  27
ENDBRANCH  19  23
ENDBRANCH   3  17
TORSDOF 3
ENDMDL
MODEL 2
REMARK VINA RESULT:      -9.1      5.845      8.966
REMARK  3 active torsions:
REMARK  status: ('A' for Active; 'I' for Inactive)
REMARK    1  A    between atoms: N_3  and  C_4 
REMARK    2  A    between atoms: C_6  and  C_7 
REMARK       I    between atoms: C_7  and  N_8 
REMARK    3  A    between atoms: N_8  and  C_9 
ROOT
HETATM    1  C   UNL     1      41.902 -12.232  -0.253  1.00  0.00     0.072 C 
HETATM    2  C   UNL     1      40.677 -13.150  -0.463  1.00  0.00     0.149 C 
HETATM    3  N   UNL     1      40.291 -13.890   0.765  1.00  0.00    -0.267 N 
HETATM    4  C   UNL     1      38.961 -14.226   1.013  1.00  0.00     0.326 C 
HETATM    5  O   UNL     1      38.553 -14.905   1.954  1.00  0.00    -0.247 OA
HETATM    6  N   UNL     1      38.033 -13.756   0.131  1.00  0.00    -0.334 N 
HETATM    7  O   UNL     1      41.045 -14.081  -1.506  1.00  0.00    -0.319 OA
HETATM    8  C   UNL     1      40.033 -14.572  -2.286  1.00  0.00     0.080 A 
HETATM    9  C   UNL     1      38.704 -14.160  -2.158  1.00  0.00    -0.002 A 
HETATM   10  C   UNL     1      40.391 -15.505  -3.258  1.00  0.00     0.037 A 
HETATM   11  C   UNL     1      39.416 -16.044  -4.099  1.00  0.00     0.003 A 
HETATM   12  C   UNL     1      38.084 -15.654  -3.962  1.00  0.00     0.001 A 
HETATM   13  C   UNL     1      37.726 -14.718  -2.991  1.00  0.00     0.012 A 
HETATM   14  C   UNL     1      39.541 -12.221  -0.914  1.00  0.00     0.092 C 
HETATM   15  C   UNL     1      38.357 -13.132  -1.120  1.00  0.00     0.127 C 
HETATM   16  H   UNL     1      37.107 -14.138   0.280  1.00  0.00     0.165 HD
ENDROOT
BRANCH   3  17
HETATM   17  C   UNL     1      41.296 -14.398   1.651  1.00  0.00     0.043 A 
HETATM   18  C   UNL     1      42.059 -15.529   1.335  1.00  0.00     0.047 A 
HETATM   19  C   UNL     1      43.034 -15.995   2.230  1.00  0.00     0.034 A 
HETATM   20  C   UNL     1      43.287 -15.305   3.420  1.00  0.00     0.017 A 
HETATM   21  C   UNL     1      42.528 -14.185   3.745  1.00  0.00     0.003 A 
HETATM   22  C   UNL     1      41.529 -13.748   2.874  1.00  0.00     0.030 A 
BRANCH  19  23
HETATM   23  C   UNL     1      43.807 -17.238   1.972  1.00  0.00     0.252 C 
HETATM   24  N   UNL     1      43.564 -18.279   2.845  1.00  0.00    -0.352 N 
HETATM   25  H   UNL     1      43.001 -18.078   3.662  1.00  0.00     0.163 HD
HETATM   26  O   UNL     1      44.643 -17.261   1.078  1.00  0.00    -0.268 OA
BRANCH  24  27
HETATM   27  C   UNL     1      44.367 -19.486   2.896  1.00  0.00     0.084 C 
HETATM   28  C   UNL     1      44.402 -20.193   4.252  1.00  0.00     0.025 C 
HETATM   29  C   UNL     1      44.811 -21.611   3.887  1.00  0.00     0.002 C 
HETATM   30  C   UNL     1      44.009 -21.891   2.626  1.00  0.00     0.002 C 
HETATM   31  C   UNL     1      43.962 -20.561   1.875  1.00  0.00     0.025 C 
ENDBRANCH  24  27
ENDBRANCH  19  23
ENDBRANCH   3  17
TORSDOF 3
ENDMDL
MODEL 3
REMARK VINA RESULT:      -9.0      3.922      7.574
REMARK  3 active torsions:
REMARK  status: ('A' for Active; 'I' for Inactive)
REMARK    1  A    between atoms: N_3  and  C_4 
REMARK    2  A    between atoms: C_6  and  C_7 
REMARK       I    between atoms: C_7  and  N_8 
REMARK    3  A    between atoms: N_8  and  C_9 
ROOT
HETATM    1  C   UNL     1      40.401 -15.897   5.982  1.00  0.00     0.072 C 
HETATM    2  C   UNL     1      41.905 -16.226   5.855  1.00  0.00     0.149 C 
HETATM    3  N   UNL     1      42.749 -15.017   5.680  1.00  0.00    -0.267 N 
HETATM    4  C   UNL     1      44.053 -14.975   6.170  1.00  0.00     0.326 C 
HETATM    5  O   UNL     1      44.856 -14.057   6.005  1.00  0.00    -0.247 OA
HETATM    6  N   UNL     1      44.473 -16.049   6.899  1.00  0.00    -0.334 N 
HETATM    7  O   UNL     1      42.033 -17.089   4.702  1.00  0.00    -0.319 OA
HETATM    8  C   UNL     1      43.070 -17.982   4.706  1.00  0.00     0.080 A 
HETATM    9  C   UNL     1      43.941 -18.132   5.788  1.00  0.00    -0.002 A 
HETATM   10  C   UNL     1      43.213 -18.777   3.571  1.00  0.00     0.037 A 
HETATM   11  C   UNL     1      44.242 -19.718   3.504  1.00  0.00     0.003 A 
HETATM   12  C   UNL     1      45.129 -19.858   4.571  1.00  0.00     0.001 A 
HETATM   13  C   UNL     1      44.984 -19.064   5.709  1.00  0.00     0.012 A 
HETATM   14  C   UNL     1      42.275 -16.961   7.151  1.00  0.00     0.092 C 
HETATM   15  C   UNL     1      43.741 -17.280   7.008  1.00  0.00     0.127 C 
HETATM   16  H   UNL     1      45.461 -16.029   7.115  1.00  0.00     0.165 HD
ENDROOT
BRANCH   3  17
HETATM   17  C   UNL     1      42.289 -13.922   4.880  1.00  0.00     0.043 A 
HETATM   18  C   UNL     1      42.299 -13.972   3.480  1.00  0.00     0.047 A 
HETATM   19  C   UNL     1      41.839 -12.877   2.732  1.00  0.00     0.034 A 
HETATM   20  C   UNL     1      41.322 -11.749   3.376  1.00  0.00     0.017 A 
HETATM   21  C   UNL     1      41.317 -11.688   4.766  1.00  0.00     0.003 A 
HETATM   22  C   UNL     1      41.813 -12.760   5.509  1.00  0.00     0.030 A 
BRANCH  19  23
HETATM   23  C   UNL     1      41.910 -12.855   1.247  1.00  0.00     0.252 C 
HETATM   24  N   UNL     1      41.230 -13.871   0.606  1.00  0.00    -0.352 N 
HETATM   25  H   UNL     1      40.864 -14.620   1.181  1.00  0.00     0.163 HD
HETATM   26  O   UNL     1      42.596 -12.014   0.683  1.00  0.00    -0.268 OA
BRANCH  24  27
HETATM   27  C   UNL     1      41.355 -14.149  -0.812  1.00  0.00     0.084 C 
HETATM   28  C   UNL     1      41.211 -15.619  -1.206  1.00  0.00     0.025 C 
HETATM   29  C   UNL     1      40.843 -15.543  -2.680  1.00  0.00     0.002 C 
HETATM   30  C   UNL     1      39.858 -14.386  -2.732  1.00  0.00     0.002 C 
HETATM   31  C   UNL     1      40.364 -13.379  -1.699  1.00  0.00     0.025 C 
ENDBRANCH  24  27
ENDBRANCH  19  23
ENDBRANCH   3  17
TORSDOF 3
ENDMDL
MODEL 4
REMARK VINA RESULT:      -8.5      3.841      7.079
REMARK  3 active torsions:
REMARK  status: ('A' for Active; 'I' for Inactive)
REMARK    1  A    between atoms: N_3  and  C_4 
REMARK    2  A    between atoms: C_6  and  C_7 
REMARK       I    between atoms: C_7  and  N_8 
REMARK    3  A    between atoms: N_8  and  C_9 
ROOT
HETATM    1  C   UNL     1      40.349 -15.911   6.000  1.00  0.00     0.072 C 
HETATM    2  C   UNL     1      41.845 -16.269   5.862  1.00  0.00     0.149 C 
HETATM    3  N   UNL     1      42.721 -15.073   5.775  1.00  0.00    -0.267 N 
HETATM    4  C   UNL     1      44.021 -15.096   6.276  1.00  0.00     0.326 C 
HETATM    5  O   UNL     1      44.847 -14.190   6.179  1.00  0.00    -0.247 OA
HETATM    6  N   UNL     1      44.408 -16.227   6.933  1.00  0.00    -0.334 N 
HETATM    7  O   UNL     1      41.962 -17.056   4.654  1.00  0.00    -0.319 OA
HETATM    8  C   UNL     1      42.977 -17.972   4.605  1.00  0.00     0.080 A 
HETATM    9  C   UNL     1      43.835 -18.217   5.681  1.00  0.00    -0.002 A 
HETATM   10  C   UNL     1      43.111 -18.692   3.420  1.00  0.00     0.037 A 
HETATM   11  C   UNL     1      44.116 -19.653   3.297  1.00  0.00     0.003 A 
HETATM   12  C   UNL     1      44.991 -19.886   4.358  1.00  0.00     0.001 A 
HETATM   13  C   UNL     1      44.855 -19.167   5.546  1.00  0.00     0.012 A 
HETATM   14  C   UNL     1      42.186 -17.099   7.108  1.00  0.00     0.092 C 
HETATM   15  C   UNL     1      43.645 -17.444   6.954  1.00  0.00     0.127 C 
HETATM   16  H   UNL     1      45.394 -16.246   7.157  1.00  0.00     0.165 HD
ENDROOT
BRANCH   3  17
HETATM   17  C   UNL     1      42.295 -13.915   5.047  1.00  0.00     0.043 A 
HETATM   18  C   UNL     1      42.340 -13.861   3.648  1.00  0.00     0.047 A 
HETATM   19  C   UNL     1      41.913 -12.708   2.972  1.00  0.00     0.034 A 
HETATM   20  C   UNL     1      41.393 -11.623   3.686  1.00  0.00     0.017 A 
HETATM   21  C   UNL     1      41.353 -11.665   5.076  1.00  0.00     0.003 A 
HETATM   22  C   UNL     1      41.817 -12.796   5.749  1.00  0.00     0.030 A 
BRANCH  19  23
HETATM   23  C   UNL     1      42.022 -12.577   1.495  1.00  0.00     0.252 C 
HETATM   24  N   UNL     1      42.094 -11.284   1.018  1.00  0.00    -0.352 N 
HETATM   25  H   UNL     1      41.926 -10.536   1.679  1.00  0.00     0.163 HD
HETATM   26  O   UNL     1      41.974 -13.577   0.791  1.00  0.00    -0.268 OA
BRANCH  24  27
HETATM   27  C   UNL     1      41.985 -10.942  -0.387  1.00  0.00     0.084 C 
HETATM   28  C   UNL     1      41.141  -9.705  -0.696  1.00  0.00     0.025 C 
HETATM   29  C   UNL     1      41.637  -9.288  -2.072  1.00  0.00     0.002 C 
HETATM   30  C   UNL     1      43.142  -9.480  -1.972  1.00  0.00     0.002 C 
HETATM   31  C   UNL     1      43.333 -10.715  -1.091  1.00  0.00     0.025 C 
ENDBRANCH  24  27
ENDBRANCH  19  23
ENDBRANCH   3  17
TORSDOF 3
ENDMDL
MODEL 5
REMARK VINA RESULT:      -8.5      5.870      9.074
REMARK  3 active torsions:
REMARK  status: ('A' for Active; 'I' for Inactive)
REMARK    1  A    between atoms: N_3  and  C_4 
REMARK    2  A    between atoms: C_6  and  C_7 
REMARK       I    between atoms: C_7  and  N_8 
REMARK    3  A    between atoms: N_8  and  C_9 
ROOT
HETATM    1  C   UNL     1      42.582 -12.410  -1.156  1.00  0.00     0.072 C 
HETATM    2  C   UNL     1      41.115 -12.886  -1.242  1.00  0.00     0.149 C 
HETATM    3  N   UNL     1      40.485 -13.064   0.091  1.00  0.00    -0.267 N 
HETATM    4  C   UNL     1      39.120 -12.849   0.274  1.00  0.00     0.326 C 
HETATM    5  O   UNL     1      38.492 -13.048   1.313  1.00  0.00    -0.247 OA
HETATM    6  N   UNL     1      38.421 -12.376  -0.798  1.00  0.00    -0.334 N 
HETATM    7  O   UNL     1      41.141 -14.148  -1.948  1.00  0.00    -0.319 OA
HETATM    8  C   UNL     1      40.028 -14.479  -2.672  1.00  0.00     0.080 A 
HETATM    9  C   UNL     1      38.926 -13.629  -2.805  1.00  0.00    -0.002 A 
HETATM   10  C   UNL     1      40.043 -15.717  -3.310  1.00  0.00     0.037 A 
HETATM   11  C   UNL     1      38.948 -16.121  -4.075  1.00  0.00     0.003 A 
HETATM   12  C   UNL     1      37.836 -15.288  -4.195  1.00  0.00     0.001 A 
HETATM   13  C   UNL     1      37.822 -14.046  -3.558  1.00  0.00     0.012 A 
HETATM   14  C   UNL     1      40.380 -11.807  -2.048  1.00  0.00     0.092 C 
HETATM   15  C   UNL     1      38.954 -12.288  -2.129  1.00  0.00     0.127 C 
HETATM   16  H   UNL     1      37.419 -12.366  -0.654  1.00  0.00     0.165 HD
ENDROOT
BRANCH   3  17
HETATM   17  C   UNL     1      41.241 -13.595   1.185  1.00  0.00     0.043 A 
HETATM   18  C   UNL     1      41.222 -14.959   1.505  1.00  0.00     0.047 A 
HETATM   19  C   UNL     1      41.977 -15.440   2.586  1.00  0.00     0.034 A 
HETATM   20  C   UNL     1      42.794 -14.573   3.318  1.00  0.00     0.017 A 
HETATM   21  C   UNL     1      42.813 -13.216   3.012  1.00  0.00     0.003 A 
HETATM   22  C   UNL     1      42.028 -12.731   1.964  1.00  0.00     0.030 A 
BRANCH  19  23
HETATM   23  C   UNL     1      41.920 -16.863   3.012  1.00  0.00     0.252 C 
HETATM   24  N   UNL     1      43.127 -17.532   3.008  1.00  0.00    -0.352 N 
HETATM   25  H   UNL     1      43.918 -17.060   2.588  1.00  0.00     0.163 HD
HETATM   26  O   UNL     1      40.840 -17.378   3.269  1.00  0.00    -0.268 OA
BRANCH  24  27
HETATM   27  C   UNL     1      43.249 -18.968   3.179  1.00  0.00     0.084 C 
HETATM   28  C   UNL     1      43.447 -19.765   1.889  1.00  0.00     0.025 C 
HETATM   29  C   UNL     1      44.067 -21.063   2.383  1.00  0.00     0.002 C 
HETATM   30  C   UNL     1      45.055 -20.596   3.441  1.00  0.00     0.002 C 
HETATM   31  C   UNL     1      44.385 -19.401   4.119  1.00  0.00     0.025 C 
ENDBRANCH  24  27
ENDBRANCH  19  23
ENDBRANCH   3  17
TORSDOF 3
ENDMDL
MODEL 6
REMARK VINA RESULT:      -8.5      3.266      4.882
REMARK  3 active torsions:
REMARK  status: ('A' for Active; 'I' for Inactive)
REMARK    1  A    between atoms: N_3  and  C_4 
REMARK    2  A    between atoms: C_6  and  C_7 
REMARK       I    between atoms: C_7  and  N_8 
REMARK    3  A    between atoms: N_8  and  C_9 
ROOT
HETATM    1  C   UNL     1      39.602 -14.753   3.208  1.00  0.00     0.072 C 
HETATM    2  C   UNL     1      40.744 -14.678   2.171  1.00  0.00     0.149 C 
HETATM    3  N   UNL     1      41.910 -15.524   2.532  1.00  0.00    -0.267 N 
HETATM    4  C   UNL     1      42.705 -16.110   1.548  1.00  0.00     0.326 C 
HETATM    5  O   UNL     1      43.734 -16.755   1.743  1.00  0.00    -0.247 OA
HETATM    6  N   UNL     1      42.301 -15.951   0.255  1.00  0.00    -0.334 N 
HETATM    7  O   UNL     1      41.142 -13.289   2.108  1.00  0.00    -0.319 OA
HETATM    8  C   UNL     1      41.658 -12.844   0.922  1.00  0.00     0.080 A 
HETATM    9  C   UNL     1      41.744 -13.645  -0.220  1.00  0.00    -0.002 A 
HETATM   10  C   UNL     1      42.083 -11.517   0.885  1.00  0.00     0.037 A 
HETATM   11  C   UNL     1      42.611 -10.987  -0.292  1.00  0.00     0.003 A 
HETATM   12  C   UNL     1      42.721 -11.786  -1.430  1.00  0.00     0.001 A 
HETATM   13  C   UNL     1      42.293 -13.114  -1.394  1.00  0.00     0.012 A 
HETATM   14  C   UNL     1      40.127 -15.146   0.846  1.00  0.00     0.092 C 
HETATM   15  C   UNL     1      41.251 -15.062  -0.155  1.00  0.00     0.127 C 
HETATM   16  H   UNL     1      42.980 -16.277  -0.422  1.00  0.00     0.165 HD
ENDROOT
BRANCH   3  17
HETATM   17  C   UNL     1      42.325 -15.641   3.898  1.00  0.00     0.043 A 
HETATM   18  C   UNL     1      43.089 -14.649   4.527  1.00  0.00     0.047 A 
HETATM   19  C   UNL     1      43.476 -14.801   5.867  1.00  0.00     0.034 A 
HETATM   20  C   UNL     1      43.060 -15.917   6.600  1.00  0.00     0.017 A 
HETATM   21  C   UNL     1      42.308 -16.910   5.981  1.00  0.00     0.003 A 
HETATM   22  C   UNL     1      41.959 -16.779   4.636  1.00  0.00     0.030 A 
BRANCH  19  23
HETATM   23  C   UNL     1      44.356 -13.815   6.547  1.00  0.00     0.252 C 
HETATM   24  N   UNL     1      43.831 -13.238   7.686  1.00  0.00    -0.352 N 
HETATM   25  H   UNL     1      42.855 -13.415   7.888  1.00  0.00     0.163 HD
HETATM   26  O   UNL     1      45.435 -13.517   6.050  1.00  0.00    -0.268 OA
BRANCH  24  27
HETATM   27  C   UNL     1      44.436 -12.106   8.362  1.00  0.00     0.084 C 
HETATM   28  C   UNL     1      43.492 -11.293   9.249  1.00  0.00     0.025 C 
HETATM   29  C   UNL     1      44.444 -10.582  10.198  1.00  0.00     0.002 C 
HETATM   30  C   UNL     1      45.466 -11.656  10.535  1.00  0.00     0.002 C 
HETATM   31  C   UNL     1      45.638 -12.465   9.250  1.00  0.00     0.025 C 
ENDBRANCH  24  27
ENDBRANCH  19  23
ENDBRANCH   3  17
TORSDOF 3
ENDMDL
MODEL 7
REMARK VINA RESULT:      -8.5      3.987      7.871
REMARK  3 active torsions:
REMARK  status: ('A' for Active; 'I' for Inactive)
REMARK    1  A    between atoms: N_3  and  C_4 
REMARK    2  A    between atoms: C_6  and  C_7 
REMARK       I    between atoms: C_7  and  N_8 
REMARK    3  A    between atoms: N_8  and  C_9 
ROOT
HETATM    1  C   UNL     1      43.893 -14.066   6.200  1.00  0.00     0.072 C 
HETATM    2  C   UNL     1      42.563 -14.470   5.526  1.00  0.00     0.149 C 
HETATM    3  N   UNL     1      41.939 -15.666   6.147  1.00  0.00    -0.267 N 
HETATM    4  C   UNL     1      40.554 -15.820   6.175  1.00  0.00     0.326 C 
HETATM    5  O   UNL     1      39.947 -16.807   6.590  1.00  0.00    -0.247 OA
HETATM    6  N   UNL     1      39.808 -14.781   5.700  1.00  0.00    -0.334 N 
HETATM    7  O   UNL     1      42.879 -14.741   4.141  1.00  0.00    -0.319 OA
HETATM    8  C   UNL     1      41.886 -14.529   3.224  1.00  0.00     0.080 A 
HETATM    9  C   UNL     1      40.635 -14.005   3.563  1.00  0.00    -0.002 A 
HETATM   10  C   UNL     1      42.184 -14.837   1.898  1.00  0.00     0.037 A 
HETATM   11  C   UNL     1      41.226 -14.638   0.903  1.00  0.00     0.003 A 
HETATM   12  C   UNL     1      39.968 -14.137   1.237  1.00  0.00     0.001 A 
HETATM   13  C   UNL     1      39.670 -13.825   2.564  1.00  0.00     0.012 A 
HETATM   14  C   UNL     1      41.645 -13.248   5.664  1.00  0.00     0.092 C 
HETATM   15  C   UNL     1      40.356 -13.656   4.996  1.00  0.00     0.127 C 
HETATM   16  H   UNL     1      38.823 -14.997   5.619  1.00  0.00     0.165 HD
ENDROOT
BRANCH   3  17
HETATM   17  C   UNL     1      42.752 -16.753   6.604  1.00  0.00     0.043 A 
HETATM   18  C   UNL     1      43.238 -17.733   5.730  1.00  0.00     0.047 A 
HETATM   19  C   UNL     1      44.032 -18.782   6.218  1.00  0.00     0.034 A 
HETATM   20  C   UNL     1      44.386 -18.830   7.570  1.00  0.00     0.017 A 
HETATM   21  C   UNL     1      43.902 -17.865   8.446  1.00  0.00     0.003 A 
HETATM   22  C   UNL     1      43.077 -16.845   7.968  1.00  0.00     0.030 A 
BRANCH  19  23
HETATM   23  C   UNL     1      44.499 -19.888   5.340  1.00  0.00     0.252 C 
HETATM   24  N   UNL     1      44.653 -19.563   4.008  1.00  0.00    -0.352 N 
HETATM   25  H   UNL     1      44.308 -18.660   3.707  1.00  0.00     0.163 HD
HETATM   26  O   UNL     1      44.652 -21.010   5.805  1.00  0.00    -0.268 OA
BRANCH  24  27
HETATM   27  C   UNL     1      44.886 -20.544   2.965  1.00  0.00     0.084 C 
HETATM   28  C   UNL     1      44.772 -22.005   3.404  1.00  0.00     0.025 C 
HETATM   29  C   UNL     1      44.517 -22.736   2.095  1.00  0.00     0.002 C 
HETATM   30  C   UNL     1      43.540 -21.822   1.371  1.00  0.00     0.002 C 
HETATM   31  C   UNL     1      43.966 -20.402   1.742  1.00  0.00     0.025 C 
ENDBRANCH  24  27
ENDBRANCH  19  23
ENDBRANCH   3  17
TORSDOF 3
ENDMDL
MODEL 8
REMARK VINA RESULT:      -8.4      7.216      9.689
REMARK  3 active torsions:
REMARK  status: ('A' for Active; 'I' for Inactive)
REMARK    1  A    between atoms: N_3  and  C_4 
REMARK    2  A    between atoms: C_6  and  C_7 
REMARK       I    between atoms: C_7  and  N_8 
REMARK    3  A    between atoms: N_8  and  C_9 
ROOT
HETATM    1  C   UNL     1      40.971 -15.702  -2.152  1.00  0.00     0.072 C 
HETATM    2  C   UNL     1      40.806 -14.304  -1.518  1.00  0.00     0.149 C 
HETATM    3  N   UNL     1      41.456 -14.191  -0.188  1.00  0.00    -0.267 N 
HETATM    4  C   UNL     1      41.988 -12.980   0.252  1.00  0.00     0.326 C 
HETATM    5  O   UNL     1      42.470 -12.766   1.363  1.00  0.00    -0.247 OA
HETATM    6  N   UNL     1      41.972 -11.943  -0.634  1.00  0.00    -0.334 N 
HETATM    7  O   UNL     1      39.382 -14.083  -1.392  1.00  0.00    -0.319 OA
HETATM    8  C   UNL     1      38.948 -12.786  -1.443  1.00  0.00     0.080 A 
HETATM    9  C   UNL     1      39.802 -11.705  -1.677  1.00  0.00    -0.002 A 
HETATM   10  C   UNL     1      37.580 -12.580  -1.273  1.00  0.00     0.037 A 
HETATM   11  C   UNL     1      37.059 -11.286  -1.322  1.00  0.00     0.003 A 
HETATM   12  C   UNL     1      37.908 -10.200  -1.533  1.00  0.00     0.001 A 
HETATM   13  C   UNL     1      39.277 -10.407  -1.706  1.00  0.00     0.012 A 
HETATM   14  C   UNL     1      41.441 -13.323  -2.514  1.00  0.00     0.092 C 
HETATM   15  C   UNL     1      41.266 -11.965  -1.884  1.00  0.00     0.127 C 
HETATM   16  H   UNL     1      42.244 -11.058  -0.224  1.00  0.00     0.165 HD
ENDROOT
BRANCH   3  17
HETATM   17  C   UNL     1      41.424 -15.291   0.730  1.00  0.00     0.043 A 
HETATM   18  C   UNL     1      42.523 -16.142   0.905  1.00  0.00     0.047 A 
HETATM   19  C   UNL     1      42.452 -17.208   1.814  1.00  0.00     0.034 A 
HETATM   20  C   UNL     1      41.303 -17.400   2.589  1.00  0.00     0.017 A 
HETATM   21  C   UNL     1      40.204 -16.565   2.415  1.00  0.00     0.003 A 
HETATM   22  C   UNL     1      40.261 -15.530   1.479  1.00  0.00     0.030 A 
BRANCH  19  23
HETATM   23  C   UNL     1      43.563 -18.183   1.970  1.00  0.00     0.252 C 
HETATM   24  N   UNL     1      43.327 -19.214   2.857  1.00  0.00    -0.352 N 
HETATM   25  H   UNL     1      42.495 -19.152   3.430  1.00  0.00     0.163 HD
HETATM   26  O   UNL     1      44.621 -17.999   1.382  1.00  0.00    -0.268 OA
BRANCH  24  27
HETATM   27  C   UNL     1      44.354 -20.134   3.308  1.00  0.00     0.084 C 
HETATM   28  C   UNL     1      44.341 -20.447   4.805  1.00  0.00     0.025 C 
HETATM   29  C   UNL     1      45.095 -21.765   4.884  1.00  0.00     0.002 C 
HETATM   30  C   UNL     1      44.564 -22.541   3.688  1.00  0.00     0.002 C 
HETATM   31  C   UNL     1      44.343 -21.496   2.595  1.00  0.00     0.025 C 
ENDBRANCH  24  27
ENDBRANCH  19  23
ENDBRANCH   3  17
TORSDOF 3
ENDMDL
MODEL 9
REMARK VINA RESULT:      -8.4      6.879      9.941
REMARK  3 active torsions:
REMARK  status: ('A' for Active; 'I' for Inactive)
REMARK    1  A    between atoms: N_3  and  C_4 
REMARK    2  A    between atoms: C_6  and  C_7 
REMARK       I    between atoms: C_7  and  N_8 
REMARK    3  A    between atoms: N_8  and  C_9 
ROOT
HETATM    1  C   UNL     1      40.894 -15.780  -2.403  1.00  0.00     0.072 C 
HETATM    2  C   UNL     1      41.092 -14.251  -2.320  1.00  0.00     0.149 C 
HETATM    3  N   UNL     1      41.401 -13.781  -0.946  1.00  0.00    -0.267 N 
HETATM    4  C   UNL     1      42.208 -12.665  -0.732  1.00  0.00     0.326 C 
HETATM    5  O   UNL     1      42.455 -12.151   0.358  1.00  0.00    -0.247 OA
HETATM    6  N   UNL     1      42.774 -12.094  -1.835  1.00  0.00    -0.334 N 
HETATM    7  O   UNL     1      39.854 -13.659  -2.777  1.00  0.00    -0.319 OA
HETATM    8  C   UNL     1      39.934 -12.426  -3.364  1.00  0.00     0.080 A 
HETATM    9  C   UNL     1      41.147 -11.770  -3.596  1.00  0.00    -0.002 A 
HETATM   10  C   UNL     1      38.732 -11.843  -3.759  1.00  0.00     0.037 A 
HETATM   11  C   UNL     1      38.733 -10.590  -4.375  1.00  0.00     0.003 A 
HETATM   12  C   UNL     1      39.937  -9.920  -4.589  1.00  0.00     0.001 A 
HETATM   13  C   UNL     1      41.142 -10.505  -4.197  1.00  0.00     0.012 A 
HETATM   14  C   UNL     1      42.252 -13.934  -3.274  1.00  0.00     0.092 C 
HETATM   15  C   UNL     1      42.427 -12.439  -3.185  1.00  0.00     0.127 C 
HETATM   16  H   UNL     1      43.236 -11.215  -1.642  1.00  0.00     0.165 HD
ENDROOT
BRANCH   3  17
HETATM   17  C   UNL     1      40.762 -14.382   0.187  1.00  0.00     0.043 A 
HETATM   18  C   UNL     1      41.406 -15.343   0.977  1.00  0.00     0.047 A 
HETATM   19  C   UNL     1      40.745 -15.908   2.079  1.00  0.00     0.034 A 
HETATM   20  C   UNL     1      39.459 -15.480   2.426  1.00  0.00     0.017 A 
HETATM   21  C   UNL     1      38.810 -14.532   1.642  1.00  0.00     0.003 A 
HETATM   22  C   UNL     1      39.452 -14.002   0.521  1.00  0.00     0.030 A 
BRANCH  19  23
HETATM   23  C   UNL     1      41.359 -16.989   2.893  1.00  0.00     0.252 C 
HETATM   24  N   UNL     1      42.272 -17.784   2.231  1.00  0.00    -0.352 N 
HETATM   25  H   UNL     1      42.348 -17.668   1.229  1.00  0.00     0.163 HD
HETATM   26  O   UNL     1      40.991 -17.165   4.047  1.00  0.00    -0.268 OA
BRANCH  24  27
HETATM   27  C   UNL     1      42.812 -19.013   2.782  1.00  0.00     0.084 C 
HETATM   28  C   UNL     1      43.237 -20.061   1.751  1.00  0.00     0.025 C 
HETATM   29  C   UNL     1      44.212 -20.929   2.530  1.00  0.00     0.002 C 
HETATM   30  C   UNL     1      45.018 -19.917   3.329  1.00  0.00     0.002 C 
HETATM   31  C   UNL     1      44.025 -18.817   3.704  1.00  0.00     0.025 C 
ENDBRANCH  24  27
ENDBRANCH  19  23
ENDBRANCH   3  17
TORSDOF 3
ENDMDL
MODEL 10
REMARK VINA RESULT:      -8.4      4.951      6.725
REMARK  3 active torsions:
REMARK  status: ('A' for Active; 'I' for Inactive)
REMARK    1  A    between atoms: N_3  and  C_4 
REMARK    2  A    between atoms: C_6  and  C_7 
REMARK       I    between atoms: C_7  and  N_8 
REMARK    3  A    between atoms: N_8  and  C_9 
ROOT
HETATM    1  C   UNL     1      43.924 -14.755   3.158  1.00  0.00     0.072 C 
HETATM    2  C   UNL     1      43.325 -16.148   2.865  1.00  0.00     0.149 C 
HETATM    3  N   UNL     1      41.840 -16.149   2.856  1.00  0.00    -0.267 N 
HETATM    4  C   UNL     1      41.127 -17.023   2.037  1.00  0.00     0.326 C 
HETATM    5  O   UNL     1      39.905 -17.158   2.018  1.00  0.00    -0.247 OA
HETATM    6  N   UNL     1      41.855 -17.796   1.180  1.00  0.00    -0.334 N 
HETATM    7  O   UNL     1      43.814 -17.024   3.906  1.00  0.00    -0.319 OA
HETATM    8  C   UNL     1      43.954 -18.348   3.589  1.00  0.00     0.080 A 
HETATM    9  C   UNL     1      43.716 -18.854   2.308  1.00  0.00    -0.002 A 
HETATM   10  C   UNL     1      44.380 -19.193   4.611  1.00  0.00     0.037 A 
HETATM   11  C   UNL     1      44.557 -20.555   4.363  1.00  0.00     0.003 A 
HETATM   12  C   UNL     1      44.300 -21.071   3.093  1.00  0.00     0.001 A 
HETATM   13  C   UNL     1      43.876 -20.224   2.068  1.00  0.00     0.012 A 
HETATM   14  C   UNL     1      43.874 -16.549   1.489  1.00  0.00     0.092 C 
HETATM   15  C   UNL     1      43.286 -17.911   1.221  1.00  0.00     0.127 C 
HETATM   16  H   UNL     1      41.305 -18.503   0.709  1.00  0.00     0.165 HD
ENDROOT
BRANCH   3  17
HETATM   17  C   UNL     1      41.109 -15.350   3.794  1.00  0.00     0.043 A 
HETATM   18  C   UNL     1      40.461 -14.168   3.412  1.00  0.00     0.047 A 
HETATM   19  C   UNL     1      39.755 -13.413   4.361  1.00  0.00     0.034 A 
HETATM   20  C   UNL     1      39.650 -13.860   5.683  1.00  0.00     0.017 A 
HETATM   21  C   UNL     1      40.297 -15.028   6.071  1.00  0.00     0.003 A 
HETATM   22  C   UNL     1      41.035 -15.756   5.136  1.00  0.00     0.030 A 
BRANCH  19  23
HETATM   23  C   UNL     1      39.123 -12.112   4.018  1.00  0.00     0.252 C 
HETATM   24  N   UNL     1      39.458 -11.598   2.782  1.00  0.00    -0.352 N 
HETATM   25  H   UNL     1      40.202 -12.060   2.273  1.00  0.00     0.163 HD
HETATM   26  O   UNL     1      38.419 -11.542   4.841  1.00  0.00    -0.268 OA
BRANCH  24  27
HETATM   27  C   UNL     1      39.124 -10.252   2.357  1.00  0.00     0.084 C 
HETATM   28  C   UNL     1      40.210  -9.202   2.595  1.00  0.00     0.025 C 
HETATM   29  C   UNL     1      39.842  -8.101   1.613  1.00  0.00     0.002 C 
HETATM   30  C   UNL     1      39.442  -8.871   0.363  1.00  0.00     0.002 C 
HETATM   31  C   UNL     1      38.745 -10.132   0.872  1.00  0.00     0.025 C 
ENDBRANCH  24  27
ENDBRANCH  19  23
ENDBRANCH   3  17
TORSDOF 3
ENDMDL
