MODEL 1
REMARK VINA RESULT:      -7.9      0.000      0.000
REMARK  7 active torsions:
REMARK  status: ('A' for Active; 'I' for Inactive)
REMARK    1  A    between atoms: O_2  and  C_3 
REMARK    2  A    between atoms: C_6  and  C_7 
REMARK    3  A    between atoms: C_7  and  N_8 
REMARK    4  A    between atoms: N_8  and  C_11 
REMARK    5  A    between atoms: C_11  and  C_12 
REMARK    6  A    between atoms: C_11  and  C_20 
REMARK       I    between atoms: C_12  and  N_13 
REMARK    7  A    between atoms: N_13  and  C_14 
ROOT
HETATM    1  C   UNL     1      42.071 -17.318   3.513  1.00  0.00     0.310 C 
ENDROOT
BRANCH   1   2
HETATM    2  N   UNL     1      41.068 -17.540   4.628  1.00  0.00    -0.054 N 
HETATM    3  H   UNL     1      41.503 -18.233   5.257  1.00  0.00     0.278 HD
HETATM    4  H   UNL     1      40.201 -17.955   4.275  1.00  0.00     0.278 HD
BRANCH   2   5
HETATM    5  C   UNL     1      40.745 -16.366   5.488  1.00  0.00     0.272 C 
BRANCH   5   6
HETATM    6  C   UNL     1      42.002 -15.696   5.960  1.00  0.00    -0.033 A 
HETATM    7  C   UNL     1      42.895 -16.376   6.802  1.00  0.00     0.011 A 
HETATM    8  C   UNL     1      44.056 -15.747   7.267  1.00  0.00     0.037 A 
HETATM    9  C   UNL     1      44.337 -14.433   6.899  1.00  0.00     0.068 A 
HETATM   10  C   UNL     1      43.442 -13.751   6.072  1.00  0.00     0.037 A 
HETATM   11  C   UNL     1      42.283 -14.371   5.604  1.00  0.00     0.011 A 
BRANCH   9  12
HETATM   12  O   UNL     1      45.429 -13.707   7.278  1.00  0.00    -0.356 OA
HETATM   13  C   UNL     1      45.261 -12.797   8.360  1.00  0.00     0.210 C 
ENDBRANCH   9  12
ENDBRANCH   5   6
ENDBRANCH   2   5
ENDBRANCH   1   2
BRANCH   1  14
HETATM   14  C   UNL     1      41.358 -16.734   2.270  1.00  0.00     0.259 C 
HETATM   15  N   UNL     1      42.102 -15.866   1.506  1.00  0.00    -0.304 N 
HETATM   16  H   UNL     1      43.055 -15.608   1.729  1.00  0.00     0.171 HD
HETATM   17  O   UNL     1      40.180 -17.055   2.100  1.00  0.00    -0.270 OA
BRANCH  15  18
HETATM   18  C   UNL     1      41.617 -15.358   0.332  1.00  0.00     0.172 A 
HETATM   19  S   UNL     1      41.452 -13.661   0.313  1.00  0.00    -0.062 SA
HETATM   20  C   UNL     1      40.889 -13.759  -1.306  1.00  0.00     0.072 A 
HETATM   21  C   UNL     1      40.873 -15.078  -1.708  1.00  0.00     0.126 A 
HETATM   22  N   UNL     1      41.298 -15.993  -0.764  1.00  0.00    -0.236 NA
ENDBRANCH  15  18
ENDBRANCH   1  14
BRANCH   1  23
HETATM   23  C   UNL     1      42.947 -18.531   3.273  1.00  0.00    -0.019 A 
HETATM   24  C   UNL     1      43.847 -18.939   4.274  1.00  0.00     0.010 A 
HETATM   25  C   UNL     1      44.642 -20.072   4.096  1.00  0.00     0.001 A 
HETATM   26  C   UNL     1      44.545 -20.816   2.923  1.00  0.00     0.000 A 
HETATM   27  C   UNL     1      43.652 -20.431   1.926  1.00  0.00     0.001 A 
HETATM   28  C   UNL     1      42.854 -19.299   2.099  1.00  0.00     0.010 A 
ENDBRANCH   1  23
TORSDOF 7
ENDMDL
MODEL 2
REMARK VINA RESULT:      -7.6      2.735      5.417
REMARK  7 active torsions:
REMARK  status: ('A' for Active; 'I' for Inactive)
REMARK    1  A    between atoms: O_2  and  C_3 
REMARK    2  A    between atoms: C_6  and  C_7 
REMARK    3  A    between atoms: C_7  and  N_8 
REMARK    4  A    between atoms: N_8  and  C_11 
REMARK    5  A    between atoms: C_11  and  C_12 
REMARK    6  A    between atoms: C_11  and  C_20 
REMARK       I    between atoms: C_12  and  N_13 
REMARK    7  A    between atoms: N_13  and  C_14 
ROOT
HETATM    1  C   UNL     1      40.793 -17.023   2.360  1.00  0.00     0.310 C 
ENDROOT
BRANCH   1   2
HETATM    2  N   UNL     1      41.699 -17.791   1.418  1.00  0.00    -0.054 N 
HETATM    3  H   UNL     1      41.583 -17.341   0.497  1.00  0.00     0.278 HD
HETATM    4  H   UNL     1      41.398 -18.764   1.319  1.00  0.00     0.278 HD
BRANCH   2   5
HETATM    5  C   UNL     1      43.161 -17.748   1.704  1.00  0.00     0.272 C 
BRANCH   5   6
HETATM    6  C   UNL     1      43.631 -19.063   2.254  1.00  0.00    -0.033 A 
HETATM    7  C   UNL     1      43.361 -20.256   1.566  1.00  0.00     0.011 A 
HETATM    8  C   UNL     1      43.773 -21.488   2.086  1.00  0.00     0.037 A 
HETATM    9  C   UNL     1      44.457 -21.543   3.300  1.00  0.00     0.068 A 
HETATM   10  C   UNL     1      44.715 -20.358   3.991  1.00  0.00     0.037 A 
HETATM   11  C   UNL     1      44.307 -19.126   3.479  1.00  0.00     0.011 A 
BRANCH   9  12
HETATM   12  O   UNL     1      44.915 -22.673   3.915  1.00  0.00    -0.356 OA
HETATM   13  C   UNL     1      45.199 -22.584   5.307  1.00  0.00     0.210 C 
ENDBRANCH   9  12
ENDBRANCH   5   6
ENDBRANCH   2   5
ENDBRANCH   1   2
BRANCH   1  14
HETATM   14  C   UNL     1      40.163 -15.818   1.622  1.00  0.00     0.259 C 
HETATM   15  N   UNL     1      39.004 -15.320   2.167  1.00  0.00    -0.304 N 
HETATM   16  H   UNL     1      38.569 -15.708   2.996  1.00  0.00     0.171 HD
HETATM   17  O   UNL     1      40.724 -15.441   0.590  1.00  0.00    -0.270 OA
BRANCH  15  18
HETATM   18  C   UNL     1      38.405 -14.198   1.663  1.00  0.00     0.172 A 
HETATM   19  S   UNL     1      39.030 -12.732   2.269  1.00  0.00    -0.062 SA
HETATM   20  C   UNL     1      37.929 -11.877   1.266  1.00  0.00     0.072 A 
HETATM   21  C   UNL     1      37.171 -12.775   0.545  1.00  0.00     0.126 A 
HETATM   22  N   UNL     1      37.453 -14.110   0.773  1.00  0.00    -0.236 NA
ENDBRANCH  15  18
ENDBRANCH   1  14
BRANCH   1  23
HETATM   23  C   UNL     1      41.459 -16.722   3.687  1.00  0.00    -0.019 A 
HETATM   24  C   UNL     1      41.273 -17.603   4.767  1.00  0.00     0.010 A 
HETATM   25  C   UNL     1      41.901 -17.370   5.990  1.00  0.00     0.001 A 
HETATM   26  C   UNL     1      42.729 -16.262   6.151  1.00  0.00     0.000 A 
HETATM   27  C   UNL     1      42.931 -15.384   5.089  1.00  0.00     0.001 A 
HETATM   28  C   UNL     1      42.305 -15.612   3.863  1.00  0.00     0.010 A 
ENDBRANCH   1  23
TORSDOF 7
ENDMDL
MODEL 3
REMARK VINA RESULT:      -7.5      1.959      2.503
REMARK  7 active torsions:
REMARK  status: ('A' for Active; 'I' for Inactive)
REMARK    1  A    between atoms: O_2  and  C_3 
REMARK    2  A    between atoms: C_6  and  C_7 
REMARK    3  A    between atoms: C_7  and  N_8 
REMARK    4  A    between atoms: N_8  and  C_11 
REMARK    5  A    between atoms: C_11  and  C_12 
REMARK    6  A    between atoms: C_11  and  C_20 
REMARK       I    between atoms: C_12  and  N_13 
REMARK    7  A    between atoms: N_13  and  C_14 
ROOT
HETATM    1  C   UNL     1      43.637 -18.196   3.631  1.00  0.00     0.310 C 
ENDROOT
BRANCH   1   2
HETATM    2  N   UNL     1      42.492 -18.074   4.619  1.00  0.00    -0.054 N 
HETATM    3  H   UNL     1      42.276 -19.040   4.910  1.00  0.00     0.278 HD
HETATM    4  H   UNL     1      41.651 -17.697   4.173  1.00  0.00     0.278 HD
BRANCH   2   5
HETATM    5  C   UNL     1      42.766 -17.327   5.879  1.00  0.00     0.272 C 
BRANCH   5   6
HETATM    6  C   UNL     1      42.187 -15.944   5.809  1.00  0.00    -0.033 A 
HETATM    7  C   UNL     1      40.796 -15.756   5.821  1.00  0.00     0.011 A 
HETATM    8  C   UNL     1      40.249 -14.471   5.730  1.00  0.00     0.037 A 
HETATM    9  C   UNL     1      41.084 -13.360   5.624  1.00  0.00     0.068 A 
HETATM   10  C   UNL     1      42.467 -13.546   5.599  1.00  0.00     0.037 A 
HETATM   11  C   UNL     1      43.020 -14.824   5.690  1.00  0.00     0.011 A 
BRANCH   9  12
HETATM   12  O   UNL     1      40.683 -12.058   5.530  1.00  0.00    -0.356 OA
HETATM   13  C   UNL     1      41.348 -11.241   4.574  1.00  0.00     0.210 C 
ENDBRANCH   9  12
ENDBRANCH   5   6
ENDBRANCH   2   5
ENDBRANCH   1   2
BRANCH   1  14
HETATM   14  C   UNL     1      43.411 -17.233   2.441  1.00  0.00     0.259 C 
HETATM   15  N   UNL     1      42.117 -16.814   2.246  1.00  0.00    -0.304 N 
HETATM   16  H   UNL     1      41.344 -17.111   2.830  1.00  0.00     0.171 HD
HETATM   17  O   UNL     1      44.394 -16.965   1.746  1.00  0.00    -0.270 OA
BRANCH  15  18
HETATM   18  C   UNL     1      41.805 -15.889   1.288  1.00  0.00     0.172 A 
HETATM   19  S   UNL     1      41.868 -14.271   1.823  1.00  0.00    -0.062 SA
HETATM   20  C   UNL     1      41.437 -13.757   0.243  1.00  0.00     0.072 A 
HETATM   21  C   UNL     1      41.280 -14.859  -0.572  1.00  0.00     0.126 A 
HETATM   22  N   UNL     1      41.499 -16.083   0.033  1.00  0.00    -0.236 NA
ENDBRANCH  15  18
ENDBRANCH   1  14
BRANCH   1  23
HETATM   23  C   UNL     1      43.945 -19.636   3.278  1.00  0.00    -0.019 A 
HETATM   24  C   UNL     1      44.586 -20.456   4.224  1.00  0.00     0.010 A 
HETATM   25  C   UNL     1      44.852 -21.795   3.939  1.00  0.00     0.001 A 
HETATM   26  C   UNL     1      44.475 -22.338   2.714  1.00  0.00     0.000 A 
HETATM   27  C   UNL     1      43.830 -21.543   1.770  1.00  0.00     0.001 A 
HETATM   28  C   UNL     1      43.561 -20.202   2.048  1.00  0.00     0.010 A 
ENDBRANCH   1  23
TORSDOF 7
ENDMDL
MODEL 4
REMARK VINA RESULT:      -7.3      2.360      5.141
REMARK  7 active torsions:
REMARK  status: ('A' for Active; 'I' for Inactive)
REMARK    1  A    between atoms: O_2  and  C_3 
REMARK    2  A    between atoms: C_6  and  C_7 
REMARK    3  A    between atoms: C_7  and  N_8 
REMARK    4  A    between atoms: N_8  and  C_11 
REMARK    5  A    between atoms: C_11  and  C_12 
REMARK    6  A    between atoms: C_11  and  C_20 
REMARK       I    between atoms: C_12  and  N_13 
REMARK    7  A    between atoms: N_13  and  C_14 
ROOT
HETATM    1  C   UNL     1      40.827 -16.954   2.345  1.00  0.00     0.310 C 
ENDROOT
BRANCH   1   2
HETATM    2  N   UNL     1      41.733 -17.760   1.435  1.00  0.00    -0.054 N 
HETATM    3  H   UNL     1      41.633 -17.335   0.500  1.00  0.00     0.278 HD
HETATM    4  H   UNL     1      41.420 -18.732   1.361  1.00  0.00     0.278 HD
BRANCH   2   5
HETATM    5  C   UNL     1      43.193 -17.728   1.736  1.00  0.00     0.272 C 
BRANCH   5   6
HETATM    6  C   UNL     1      43.648 -19.050   2.283  1.00  0.00    -0.033 A 
HETATM    7  C   UNL     1      43.437 -20.230   1.553  1.00  0.00     0.011 A 
HETATM    8  C   UNL     1      43.835 -21.469   2.069  1.00  0.00     0.037 A 
HETATM    9  C   UNL     1      44.447 -21.543   3.319  1.00  0.00     0.068 A 
HETATM   10  C   UNL     1      44.647 -20.371   4.051  1.00  0.00     0.037 A 
HETATM   11  C   UNL     1      44.252 -19.133   3.543  1.00  0.00     0.011 A 
BRANCH   9  12
HETATM   12  O   UNL     1      44.885 -22.681   3.935  1.00  0.00    -0.356 OA
HETATM   13  C   UNL     1      45.211 -22.586   5.317  1.00  0.00     0.210 C 
ENDBRANCH   9  12
ENDBRANCH   5   6
ENDBRANCH   2   5
ENDBRANCH   1   2
BRANCH   1  14
HETATM   14  C   UNL     1      40.301 -15.707   1.595  1.00  0.00     0.259 C 
HETATM   15  N   UNL     1      41.020 -15.326   0.488  1.00  0.00    -0.304 N 
HETATM   16  H   UNL     1      41.849 -15.814   0.170  1.00  0.00     0.171 HD
HETATM   17  O   UNL     1      39.319 -15.138   2.079  1.00  0.00    -0.270 OA
BRANCH  15  18
HETATM   18  C   UNL     1      40.602 -14.299  -0.314  1.00  0.00     0.172 A 
HETATM   19  S   UNL     1      41.402 -12.819  -0.038  1.00  0.00    -0.062 SA
HETATM   20  C   UNL     1      40.468 -12.109  -1.292  1.00  0.00     0.072 A 
HETATM   21  C   UNL     1      39.620 -13.057  -1.826  1.00  0.00     0.126 A 
HETATM   22  N   UNL     1      39.705 -14.316  -1.263  1.00  0.00    -0.236 NA
ENDBRANCH  15  18
ENDBRANCH   1  14
BRANCH   1  23
HETATM   23  C   UNL     1      41.446 -16.705   3.705  1.00  0.00    -0.019 A 
HETATM   24  C   UNL     1      42.216 -15.547   3.911  1.00  0.00     0.010 A 
HETATM   25  C   UNL     1      42.770 -15.275   5.162  1.00  0.00     0.001 A 
HETATM   26  C   UNL     1      42.557 -16.147   6.225  1.00  0.00     0.000 A 
HETATM   27  C   UNL     1      41.789 -17.294   6.042  1.00  0.00     0.001 A 
HETATM   28  C   UNL     1      41.232 -17.572   4.793  1.00  0.00     0.010 A 
ENDBRANCH   1  23
TORSDOF 7
ENDMDL
MODEL 5
REMARK VINA RESULT:      -7.2      1.481      2.137
REMARK  7 active torsions:
REMARK  status: ('A' for Active; 'I' for Inactive)
REMARK    1  A    between atoms: O_2  and  C_3 
REMARK    2  A    between atoms: C_6  and  C_7 
REMARK    3  A    between atoms: C_7  and  N_8 
REMARK    4  A    between atoms: N_8  and  C_11 
REMARK    5  A    between atoms: C_11  and  C_12 
REMARK    6  A    between atoms: C_11  and  C_20 
REMARK       I    between atoms: C_12  and  N_13 
REMARK    7  A    between atoms: N_13  and  C_14 
ROOT
HETATM    1  C   UNL     1      42.023 -17.361   3.560  1.00  0.00     0.310 C 
ENDROOT
BRANCH   1   2
HETATM    2  N   UNL     1      40.995 -17.635   4.641  1.00  0.00    -0.054 N 
HETATM    3  H   UNL     1      41.034 -18.653   4.806  1.00  0.00     0.278 HD
HETATM    4  H   UNL     1      40.048 -17.417   4.320  1.00  0.00     0.278 HD
BRANCH   2   5
HETATM    5  C   UNL     1      41.230 -17.004   5.970  1.00  0.00     0.272 C 
BRANCH   5   6
HETATM    6  C   UNL     1      41.295 -15.510   5.842  1.00  0.00    -0.033 A 
HETATM    7  C   UNL     1      40.131 -14.769   5.587  1.00  0.00     0.011 A 
HETATM    8  C   UNL     1      40.189 -13.378   5.440  1.00  0.00     0.037 A 
HETATM    9  C   UNL     1      41.409 -12.712   5.542  1.00  0.00     0.068 A 
HETATM   10  C   UNL     1      42.570 -13.450   5.783  1.00  0.00     0.037 A 
HETATM   11  C   UNL     1      42.520 -14.837   5.931  1.00  0.00     0.011 A 
BRANCH   9  12
HETATM   12  O   UNL     1      41.604 -11.366   5.423  1.00  0.00    -0.356 OA
HETATM   13  C   UNL     1      41.014 -10.722   4.299  1.00  0.00     0.210 C 
ENDBRANCH   9  12
ENDBRANCH   5   6
ENDBRANCH   2   5
ENDBRANCH   1   2
BRANCH   1  14
HETATM   14  C   UNL     1      41.334 -16.737   2.323  1.00  0.00     0.259 C 
HETATM   15  N   UNL     1      42.120 -15.918   1.548  1.00  0.00    -0.304 N 
HETATM   16  H   UNL     1      43.090 -15.717   1.760  1.00  0.00     0.171 HD
HETATM   17  O   UNL     1      40.136 -16.987   2.166  1.00  0.00    -0.270 OA
BRANCH  15  18
HETATM   18  C   UNL     1      41.655 -15.385   0.377  1.00  0.00     0.172 A 
HETATM   19  S   UNL     1      41.541 -13.683   0.373  1.00  0.00    -0.062 SA
HETATM   20  C   UNL     1      40.981 -13.749  -1.248  1.00  0.00     0.072 A 
HETATM   21  C   UNL     1      40.926 -15.063  -1.662  1.00  0.00     0.126 A 
HETATM   22  N   UNL     1      41.320 -16.000  -0.725  1.00  0.00    -0.236 NA
ENDBRANCH  15  18
ENDBRANCH   1  14
BRANCH   1  23
HETATM   23  C   UNL     1      42.918 -18.553   3.297  1.00  0.00    -0.019 A 
HETATM   24  C   UNL     1      43.843 -18.951   4.280  1.00  0.00     0.010 A 
HETATM   25  C   UNL     1      44.657 -20.066   4.080  1.00  0.00     0.001 A 
HETATM   26  C   UNL     1      44.555 -20.804   2.904  1.00  0.00     0.000 A 
HETATM   27  C   UNL     1      43.638 -20.430   1.924  1.00  0.00     0.001 A 
HETATM   28  C   UNL     1      42.822 -19.315   2.118  1.00  0.00     0.010 A 
ENDBRANCH   1  23
TORSDOF 7
ENDMDL
MODEL 6
REMARK VINA RESULT:      -7.2      2.395      5.087
REMARK  7 active torsions:
REMARK  status: ('A' for Active; 'I' for Inactive)
REMARK    1  A    between atoms: O_2  and  C_3 
REMARK    2  A    between atoms: C_6  and  C_7 
REMARK    3  A    between atoms: C_7  and  N_8 
REMARK    4  A    between atoms: N_8  and  C_11 
REMARK    5  A    between atoms: C_11  and  C_12 
REMARK    6  A    between atoms: C_11  and  C_20 
REMARK       I    between atoms: C_12  and  N_13 
REMARK    7  A    between atoms: N_13  and  C_14 
ROOT
HETATM    1  C   UNL     1      41.105 -16.104   1.834  1.00  0.00     0.310 C 
ENDROOT
BRANCH   1   2
HETATM    2  N   UNL     1      41.813 -17.361   1.368  1.00  0.00    -0.054 N 
HETATM    3  H   UNL     1      41.610 -17.434   0.359  1.00  0.00     0.278 HD
HETATM    4  H   UNL     1      41.426 -18.197   1.815  1.00  0.00     0.278 HD
BRANCH   2   5
HETATM    5  C   UNL     1      43.299 -17.379   1.481  1.00  0.00     0.272 C 
BRANCH   5   6
HETATM    6  C   UNL     1      43.744 -18.446   2.438  1.00  0.00    -0.033 A 
HETATM    7  C   UNL     1      44.034 -18.125   3.773  1.00  0.00     0.011 A 
HETATM    8  C   UNL     1      44.474 -19.111   4.664  1.00  0.00     0.037 A 
HETATM    9  C   UNL     1      44.633 -20.426   4.231  1.00  0.00     0.068 A 
HETATM   10  C   UNL     1      44.357 -20.744   2.900  1.00  0.00     0.037 A 
HETATM   11  C   UNL     1      43.917 -19.767   2.006  1.00  0.00     0.011 A 
BRANCH   9  12
HETATM   12  O   UNL     1      45.051 -21.480   4.993  1.00  0.00    -0.356 OA
HETATM   13  C   UNL     1      44.732 -22.785   4.526  1.00  0.00     0.210 C 
ENDBRANCH   9  12
ENDBRANCH   5   6
ENDBRANCH   2   5
ENDBRANCH   1   2
BRANCH   1  14
HETATM   14  C   UNL     1      40.693 -15.247   0.614  1.00  0.00     0.259 C 
HETATM   15  N   UNL     1      41.429 -15.442  -0.530  1.00  0.00    -0.304 N 
HETATM   16  H   UNL     1      42.201 -16.095  -0.589  1.00  0.00     0.171 HD
HETATM   17  O   UNL     1      39.779 -14.436   0.784  1.00  0.00    -0.270 OA
BRANCH  15  18
HETATM   18  C   UNL     1      41.102 -14.815  -1.702  1.00  0.00     0.172 A 
HETATM   19  S   UNL     1      41.940 -13.356  -1.979  1.00  0.00    -0.062 SA
HETATM   20  C   UNL     1      41.115 -13.195  -3.476  1.00  0.00     0.072 A 
HETATM   21  C   UNL     1      40.267 -14.268  -3.651  1.00  0.00     0.126 A 
HETATM   22  N   UNL     1      40.267 -15.200  -2.629  1.00  0.00    -0.236 NA
ENDBRANCH  15  18
ENDBRANCH   1  14
BRANCH   1  23
HETATM   23  C   UNL     1      41.862 -15.386   2.931  1.00  0.00    -0.019 A 
HETATM   24  C   UNL     1      41.577 -15.684   4.276  1.00  0.00     0.010 A 
HETATM   25  C   UNL     1      42.282 -15.064   5.307  1.00  0.00     0.001 A 
HETATM   26  C   UNL     1      43.286 -14.145   5.012  1.00  0.00     0.000 A 
HETATM   27  C   UNL     1      43.588 -13.845   3.686  1.00  0.00     0.001 A 
HETATM   28  C   UNL     1      42.886 -14.462   2.651  1.00  0.00     0.010 A 
ENDBRANCH   1  23
TORSDOF 7
ENDMDL
MODEL 7
REMARK VINA RESULT:      -7.0      3.210      5.558
REMARK  7 active torsions:
REMARK  status: ('A' for Active; 'I' for Inactive)
REMARK    1  A    between atoms: O_2  and  C_3 
REMARK    2  A    between atoms: C_6  and  C_7 
REMARK    3  A    between atoms: C_7  and  N_8 
REMARK    4  A    between atoms: N_8  and  C_11 
REMARK    5  A    between atoms: C_11  and  C_12 
REMARK    6  A    between atoms: C_11  and  C_20 
REMARK       I    between atoms: C_12  and  N_13 
REMARK    7  A    between atoms: N_13  and  C_14 
ROOT
HETATM    1  C   UNL     1      42.838 -15.665   5.278  1.00  0.00     0.310 C 
ENDROOT
BRANCH   1   2
HETATM    2  N   UNL     1      42.960 -16.577   6.484  1.00  0.00    -0.054 N 
HETATM    3  H   UNL     1      42.342 -17.379   6.286  1.00  0.00     0.278 HD
HETATM    4  H   UNL     1      42.605 -16.125   7.332  1.00  0.00     0.278 HD
BRANCH   2   5
HETATM    5  C   UNL     1      44.303 -17.162   6.755  1.00  0.00     0.272 C 
BRANCH   5   6
HETATM    6  C   UNL     1      44.353 -18.596   6.315  1.00  0.00    -0.033 A 
HETATM    7  C   UNL     1      43.780 -19.601   7.110  1.00  0.00     0.011 A 
HETATM    8  C   UNL     1      43.847 -20.943   6.719  1.00  0.00     0.037 A 
HETATM    9  C   UNL     1      44.487 -21.297   5.532  1.00  0.00     0.068 A 
HETATM   10  C   UNL     1      45.068 -20.299   4.748  1.00  0.00     0.037 A 
HETATM   11  C   UNL     1      45.006 -18.959   5.131  1.00  0.00     0.011 A 
BRANCH   9  12
HETATM   12  O   UNL     1      44.620 -22.562   5.035  1.00  0.00    -0.356 OA
HETATM   13  C   UNL     1      44.653 -22.703   3.620  1.00  0.00     0.210 C 
ENDBRANCH   9  12
ENDBRANCH   5   6
ENDBRANCH   2   5
ENDBRANCH   1   2
BRANCH   1  14
HETATM   14  C   UNL     1      41.668 -14.674   5.481  1.00  0.00     0.259 C 
HETATM   15  N   UNL     1      41.974 -13.344   5.315  1.00  0.00    -0.304 N 
HETATM   16  H   UNL     1      42.901 -13.013   5.080  1.00  0.00     0.171 HD
HETATM   17  O   UNL     1      40.583 -15.153   5.819  1.00  0.00    -0.270 OA
BRANCH  15  18
HETATM   18  C   UNL     1      41.005 -12.379   5.373  1.00  0.00     0.172 A 
HETATM   19  S   UNL     1      40.199 -12.099   3.897  1.00  0.00    -0.062 SA
HETATM   20  C   UNL     1      39.225 -10.922   4.681  1.00  0.00     0.072 A 
HETATM   21  C   UNL     1      39.590 -10.834   6.008  1.00  0.00     0.126 A 
HETATM   22  N   UNL     1      40.611 -11.679   6.402  1.00  0.00    -0.236 NA
ENDBRANCH  15  18
ENDBRANCH   1  14
BRANCH   1  23
HETATM   23  C   UNL     1      42.848 -16.431   3.971  1.00  0.00    -0.019 A 
HETATM   24  C   UNL     1      43.753 -16.058   2.961  1.00  0.00     0.010 A 
HETATM   25  C   UNL     1      43.809 -16.766   1.760  1.00  0.00     0.001 A 
HETATM   26  C   UNL     1      42.970 -17.858   1.554  1.00  0.00     0.000 A 
HETATM   27  C   UNL     1      42.075 -18.247   2.547  1.00  0.00     0.001 A 
HETATM   28  C   UNL     1      42.015 -17.542   3.750  1.00  0.00     0.010 A 
ENDBRANCH   1  23
TORSDOF 7
ENDMDL
MODEL 8
REMARK VINA RESULT:      -7.0      2.884      5.371
REMARK  7 active torsions:
REMARK  status: ('A' for Active; 'I' for Inactive)
REMARK    1  A    between atoms: O_2  and  C_3 
REMARK    2  A    between atoms: C_6  and  C_7 
REMARK    3  A    between atoms: C_7  and  N_8 
REMARK    4  A    between atoms: N_8  and  C_11 
REMARK    5  A    between atoms: C_11  and  C_12 
REMARK    6  A    between atoms: C_11  and  C_20 
REMARK       I    between atoms: C_12  and  N_13 
REMARK    7  A    between atoms: N_13  and  C_14 
ROOT
HETATM    1  C   UNL     1      41.540 -15.587   2.009  1.00  0.00     0.310 C 
ENDROOT
BRANCH   1   2
HETATM    2  N   UNL     1      43.008 -15.917   2.198  1.00  0.00    -0.054 N 
HETATM    3  H   UNL     1      43.124 -16.084   3.209  1.00  0.00     0.278 HD
HETATM    4  H   UNL     1      43.605 -15.123   1.952  1.00  0.00     0.278 HD
BRANCH   2   5
HETATM    5  C   UNL     1      43.513 -17.148   1.527  1.00  0.00     0.272 C 
BRANCH   5   6
HETATM    6  C   UNL     1      43.855 -18.200   2.541  1.00  0.00    -0.033 A 
HETATM    7  C   UNL     1      44.106 -19.521   2.137  1.00  0.00     0.011 A 
HETATM    8  C   UNL     1      44.399 -20.512   3.080  1.00  0.00     0.037 A 
HETATM    9  C   UNL     1      44.441 -20.198   4.437  1.00  0.00     0.068 A 
HETATM   10  C   UNL     1      44.179 -18.887   4.842  1.00  0.00     0.037 A 
HETATM   11  C   UNL     1      43.887 -17.893   3.907  1.00  0.00     0.011 A 
BRANCH   9  12
HETATM   12  O   UNL     1      44.716 -21.064   5.456  1.00  0.00    -0.356 OA
HETATM   13  C   UNL     1      45.101 -22.386   5.098  1.00  0.00     0.210 C 
ENDBRANCH   9  12
ENDBRANCH   5   6
ENDBRANCH   2   5
ENDBRANCH   1   2
BRANCH   1  14
HETATM   14  C   UNL     1      41.344 -14.782   0.702  1.00  0.00     0.259 C 
HETATM   15  N   UNL     1      40.392 -15.267  -0.163  1.00  0.00    -0.304 N 
HETATM   16  H   UNL     1      39.847 -16.100   0.022  1.00  0.00     0.171 HD
HETATM   17  O   UNL     1      42.085 -13.811   0.528  1.00  0.00    -0.270 OA
BRANCH  15  18
HETATM   18  C   UNL     1      40.059 -14.592  -1.306  1.00  0.00     0.172 A 
HETATM   19  S   UNL     1      40.895 -15.108  -2.699  1.00  0.00    -0.062 SA
HETATM   20  C   UNL     1      40.021 -13.953  -3.621  1.00  0.00     0.072 A 
HETATM   21  C   UNL     1      39.158 -13.264  -2.796  1.00  0.00     0.126 A 
HETATM   22  N   UNL     1      39.180 -13.639  -1.465  1.00  0.00    -0.236 NA
ENDBRANCH  15  18
ENDBRANCH   1  14
BRANCH   1  23
HETATM   23  C   UNL     1      40.914 -15.000   3.257  1.00  0.00    -0.019 A 
HETATM   24  C   UNL     1      41.051 -15.678   4.481  1.00  0.00     0.010 A 
HETATM   25  C   UNL     1      40.515 -15.144   5.653  1.00  0.00     0.001 A 
HETATM   26  C   UNL     1      39.843 -13.925   5.622  1.00  0.00     0.000 A 
HETATM   27  C   UNL     1      39.705 -13.236   4.420  1.00  0.00     0.001 A 
HETATM   28  C   UNL     1      40.240 -13.765   3.245  1.00  0.00     0.010 A 
ENDBRANCH   1  23
TORSDOF 7
ENDMDL
MODEL 9
REMARK VINA RESULT:      -7.0      2.304      6.260
REMARK  7 active torsions:
REMARK  status: ('A' for Active; 'I' for Inactive)
REMARK    1  A    between atoms: O_2  and  C_3 
REMARK    2  A    between atoms: C_6  and  C_7 
REMARK    3  A    between atoms: C_7  and  N_8 
REMARK    4  A    between atoms: N_8  and  C_11 
REMARK    5  A    between atoms: C_11  and  C_12 
REMARK    6  A    between atoms: C_11  and  C_20 
REMARK       I    between atoms: C_12  and  N_13 
REMARK    7  A    between atoms: N_13  and  C_14 
ROOT
HETATM    1  C   UNL     1      42.380 -17.979   3.155  1.00  0.00     0.310 C 
ENDROOT
BRANCH   1   2
HETATM    2  N   UNL     1      41.708 -17.549   1.866  1.00  0.00    -0.054 N 
HETATM    3  H   UNL     1      41.328 -18.415   1.452  1.00  0.00     0.278 HD
HETATM    4  H   UNL     1      42.385 -17.168   1.199  1.00  0.00     0.278 HD
BRANCH   2   5
HETATM    5  C   UNL     1      40.549 -16.620   1.987  1.00  0.00     0.272 C 
BRANCH   5   6
HETATM    6  C   UNL     1      40.493 -15.690   0.810  1.00  0.00    -0.033 A 
HETATM    7  C   UNL     1      39.731 -14.513   0.872  1.00  0.00     0.011 A 
HETATM    8  C   UNL     1      39.653 -13.655  -0.232  1.00  0.00     0.037 A 
HETATM    9  C   UNL     1      40.333 -13.963  -1.409  1.00  0.00     0.068 A 
HETATM   10  C   UNL     1      41.081 -15.140  -1.475  1.00  0.00     0.037 A 
HETATM   11  C   UNL     1      41.164 -16.000  -0.380  1.00  0.00     0.011 A 
BRANCH   9  12
HETATM   12  O   UNL     1      40.344 -13.216  -2.551  1.00  0.00    -0.356 OA
HETATM   13  C   UNL     1      41.434 -13.412  -3.444  1.00  0.00     0.210 C 
ENDBRANCH   9  12
ENDBRANCH   5   6
ENDBRANCH   2   5
ENDBRANCH   1   2
BRANCH   1  14
HETATM   14  C   UNL     1      43.083 -16.768   3.813  1.00  0.00     0.259 C 
HETATM   15  N   UNL     1      42.743 -16.515   5.121  1.00  0.00    -0.304 N 
HETATM   16  H   UNL     1      42.072 -17.071   5.637  1.00  0.00     0.171 HD
HETATM   17  O   UNL     1      43.844 -16.109   3.100  1.00  0.00    -0.270 OA
BRANCH  15  18
HETATM   18  C   UNL     1      43.366 -15.533   5.841  1.00  0.00     0.172 A 
HETATM   19  S   UNL     1      42.665 -13.987   5.678  1.00  0.00    -0.062 SA
HETATM   20  C   UNL     1      43.837 -13.368   6.770  1.00  0.00     0.072 A 
HETATM   21  C   UNL     1      44.671 -14.388   7.176  1.00  0.00     0.126 A 
HETATM   22  N   UNL     1      44.393 -15.633   6.642  1.00  0.00    -0.236 NA
ENDBRANCH  15  18
ENDBRANCH   1  14
BRANCH   1  23
HETATM   23  C   UNL     1      43.220 -19.227   2.982  1.00  0.00    -0.019 A 
HETATM   24  C   UNL     1      44.163 -19.566   3.969  1.00  0.00     0.010 A 
HETATM   25  C   UNL     1      44.927 -20.728   3.852  1.00  0.00     0.001 A 
HETATM   26  C   UNL     1      44.755 -21.571   2.758  1.00  0.00     0.000 A 
HETATM   27  C   UNL     1      43.819 -21.255   1.776  1.00  0.00     0.001 A 
HETATM   28  C   UNL     1      43.052 -20.094   1.887  1.00  0.00     0.010 A 
ENDBRANCH   1  23
TORSDOF 7
ENDMDL
MODEL 10
REMARK VINA RESULT:      -7.0      2.648      5.547
REMARK  7 active torsions:
REMARK  status: ('A' for Active; 'I' for Inactive)
REMARK    1  A    between atoms: O_2  and  C_3 
REMARK    2  A    between atoms: C_6  and  C_7 
REMARK    3  A    between atoms: C_7  and  N_8 
REMARK    4  A    between atoms: N_8  and  C_11 
REMARK    5  A    between atoms: C_11  and  C_12 
REMARK    6  A    between atoms: C_11  and  C_20 
REMARK       I    between atoms: C_12  and  N_13 
REMARK    7  A    between atoms: N_13  and  C_14 
ROOT
HETATM    1  C   UNL     1      41.157 -16.249   4.206  1.00  0.00     0.310 C 
ENDROOT
BRANCH   1   2
HETATM    2  N   UNL     1      41.854 -16.709   2.939  1.00  0.00    -0.054 N 
HETATM    3  H   UNL     1      41.715 -15.947   2.257  1.00  0.00     0.278 HD
HETATM    4  H   UNL     1      41.410 -17.546   2.551  1.00  0.00     0.278 HD
BRANCH   2   5
HETATM    5  C   UNL     1      43.328 -16.915   3.017  1.00  0.00     0.272 C 
BRANCH   5   6
HETATM    6  C   UNL     1      43.660 -18.377   2.968  1.00  0.00    -0.033 A 
HETATM    7  C   UNL     1      43.278 -19.155   1.863  1.00  0.00     0.011 A 
HETATM    8  C   UNL     1      43.561 -20.525   1.823  1.00  0.00     0.037 A 
HETATM    9  C   UNL     1      44.227 -21.135   2.885  1.00  0.00     0.068 A 
HETATM   10  C   UNL     1      44.596 -20.365   3.990  1.00  0.00     0.037 A 
HETATM   11  C   UNL     1      44.317 -18.998   4.037  1.00  0.00     0.011 A 
BRANCH   9  12
HETATM   12  O   UNL     1      44.565 -22.454   2.971  1.00  0.00    -0.356 OA
HETATM   13  C   UNL     1      44.745 -22.994   4.276  1.00  0.00     0.210 C 
ENDBRANCH   9  12
ENDBRANCH   5   6
ENDBRANCH   2   5
ENDBRANCH   1   2
BRANCH   1  14
HETATM   14  C   UNL     1      40.475 -14.881   3.966  1.00  0.00     0.259 C 
HETATM   15  N   UNL     1      40.793 -14.252   2.787  1.00  0.00    -0.304 N 
HETATM   16  H   UNL     1      41.437 -14.639   2.107  1.00  0.00     0.171 HD
HETATM   17  O   UNL     1      39.748 -14.455   4.867  1.00  0.00    -0.270 OA
BRANCH  15  18
HETATM   18  C   UNL     1      40.183 -13.085   2.416  1.00  0.00     0.172 A 
HETATM   19  S   UNL     1      38.729 -13.294   1.551  1.00  0.00    -0.062 SA
HETATM   20  C   UNL     1      38.559 -11.587   1.473  1.00  0.00     0.072 A 
HETATM   21  C   UNL     1      39.623 -10.989   2.114  1.00  0.00     0.126 A 
HETATM   22  N   UNL     1      40.552 -11.856   2.660  1.00  0.00    -0.236 NA
ENDBRANCH  15  18
ENDBRANCH   1  14
BRANCH   1  23
HETATM   23  C   UNL     1      42.050 -16.347   5.425  1.00  0.00    -0.019 A 
HETATM   24  C   UNL     1      42.991 -15.332   5.674  1.00  0.00     0.010 A 
HETATM   25  C   UNL     1      43.803 -15.378   6.808  1.00  0.00     0.001 A 
HETATM   26  C   UNL     1      43.683 -16.430   7.711  1.00  0.00     0.000 A 
HETATM   27  C   UNL     1      42.750 -17.439   7.485  1.00  0.00     0.001 A 
HETATM   28  C   UNL     1      41.935 -17.398   6.353  1.00  0.00     0.010 A 
ENDBRANCH   1  23
TORSDOF 7
ENDMDL
