MODEL 1
REMARK VINA RESULT:      -9.3      0.000      0.000
REMARK  7 active torsions:
REMARK  status: ('A' for Active; 'I' for Inactive)
REMARK    1  A    between atoms: C_2  and  O_3 
REMARK    2  A    between atoms: O_3  and  C_4 
REMARK    3  A    between atoms: C_7  and  C_8 
REMARK       I    between atoms: C_8  and  N_9 
REMARK    4  A    between atoms: N_9  and  N_10 
REMARK       I    between atoms: N_10  and  C_11 
REMARK    5  A    between atoms: C_11  and  C_12 
REMARK    6  A    between atoms: C_14  and  C_15 
REMARK    7  A    between atoms: C_22  and  C_23 
ROOT
HETATM    1  N   UNL     1      44.156 -15.018   6.292  1.00  0.00    -0.262 N 
HETATM    2  C   UNL     1      43.047 -15.477   5.610  1.00  0.00     0.291 C 
HETATM    3  O   UNL     1      41.930 -14.991   5.791  1.00  0.00    -0.264 OA
HETATM    4  H   UNL     1      45.067 -15.469   6.204  1.00  0.00     0.190 HD
ENDROOT
BRANCH   2   5
HETATM    5  C   UNL     1      43.325 -16.576   4.700  1.00  0.00     0.159 A 
HETATM    6  N   UNL     1      43.693 -17.847   5.134  1.00  0.00    -0.216 NA
HETATM    7  C   UNL     1      43.818 -18.546   4.021  1.00  0.00     0.180 A 
HETATM    8  O   UNL     1      43.570 -17.829   2.883  1.00  0.00    -0.293 OA
HETATM    9  C   UNL     1      43.254 -16.571   3.319  1.00  0.00     0.094 A 
BRANCH   7  10
HETATM   10  C   UNL     1      44.163 -19.954   3.838  1.00  0.00     0.017 A 
HETATM   11  C   UNL     1      44.589 -20.718   4.934  1.00  0.00     0.016 A 
HETATM   12  C   UNL     1      44.914 -22.069   4.781  1.00  0.00     0.001 A 
HETATM   13  C   UNL     1      44.818 -22.673   3.529  1.00  0.00     0.000 A 
HETATM   14  C   UNL     1      44.399 -21.929   2.429  1.00  0.00     0.001 A 
HETATM   15  C   UNL     1      44.074 -20.578   2.582  1.00  0.00     0.016 A 
ENDBRANCH   7  10
BRANCH   9  16
HETATM   16  C   UNL     1      42.895 -15.422   2.394  1.00  0.00     0.046 A 
HETATM   17  C   UNL     1      42.323 -15.764   1.033  1.00  0.00     0.012 A 
HETATM   18  C   UNL     1      41.428 -15.201   2.082  1.00  0.00     0.012 A 
ENDBRANCH   9  16
ENDBRANCH   2   5
BRANCH   1  19
HETATM   19  N   UNL     1      43.962 -14.088   7.315  1.00  0.00    -0.263 N 
HETATM   20  C   UNL     1      44.984 -13.234   7.667  1.00  0.00     0.270 C 
HETATM   21  O   UNL     1      46.075 -13.212   7.107  1.00  0.00    -0.266 OA
HETATM   22  H   UNL     1      43.011 -14.008   7.673  1.00  0.00     0.190 HD
BRANCH  20  23
HETATM   23  C   UNL     1      44.676 -12.302   8.787  1.00  0.00     0.033 A 
HETATM   24  C   UNL     1      45.547 -12.154   9.875  1.00  0.00     0.020 A 
HETATM   25  C   UNL     1      45.238 -11.267  10.912  1.00  0.00     0.038 A 
HETATM   26  C   UNL     1      44.063 -10.515  10.867  1.00  0.00     0.068 A 
HETATM   27  C   UNL     1      43.199 -10.660   9.777  1.00  0.00     0.038 A 
HETATM   28  C   UNL     1      43.504 -11.542   8.735  1.00  0.00     0.020 A 
BRANCH  26  29
HETATM   29  O   UNL     1      43.652  -9.615  11.811  1.00  0.00    -0.352 OA
BRANCH  29  30
HETATM   30  C   UNL     1      43.148 -10.146  13.037  1.00  0.00     0.171 C 
HETATM   31  C   UNL     1      43.215  -9.054  14.089  1.00  0.00     0.034 C 
ENDBRANCH  29  30
ENDBRANCH  26  29
ENDBRANCH  20  23
ENDBRANCH   1  19
TORSDOF 7
ENDMDL
MODEL 2
REMARK VINA RESULT:      -9.0      1.027      1.496
REMARK  7 active torsions:
REMARK  status: ('A' for Active; 'I' for Inactive)
REMARK    1  A    between atoms: C_2  and  O_3 
REMARK    2  A    between atoms: O_3  and  C_4 
REMARK    3  A    between atoms: C_7  and  C_8 
REMARK       I    between atoms: C_8  and  N_9 
REMARK    4  A    between atoms: N_9  and  N_10 
REMARK       I    between atoms: N_10  and  C_11 
REMARK    5  A    between atoms: C_11  and  C_12 
REMARK    6  A    between atoms: C_14  and  C_15 
REMARK    7  A    between atoms: C_22  and  C_23 
ROOT
HETATM    1  N   UNL     1      43.352 -14.150   5.855  1.00  0.00    -0.262 N 
HETATM    2  C   UNL     1      42.175 -14.762   5.471  1.00  0.00     0.291 C 
HETATM    3  O   UNL     1      41.088 -14.432   5.949  1.00  0.00    -0.264 OA
HETATM    4  H   UNL     1      44.260 -14.473   5.521  1.00  0.00     0.190 HD
ENDROOT
BRANCH   2   5
HETATM    5  C   UNL     1      42.350 -15.819   4.489  1.00  0.00     0.159 A 
HETATM    6  N   UNL     1      43.058 -16.989   4.751  1.00  0.00    -0.216 NA
HETATM    7  C   UNL     1      42.956 -17.687   3.635  1.00  0.00     0.180 A 
HETATM    8  O   UNL     1      42.241 -17.060   2.652  1.00  0.00    -0.293 OA
HETATM    9  C   UNL     1      41.854 -15.868   3.198  1.00  0.00     0.094 A 
BRANCH   7  10
HETATM   10  C   UNL     1      43.476 -19.014   3.314  1.00  0.00     0.017 A 
HETATM   11  C   UNL     1      43.130 -19.625   2.100  1.00  0.00     0.016 A 
HETATM   12  C   UNL     1      43.625 -20.890   1.770  1.00  0.00     0.001 A 
HETATM   13  C   UNL     1      44.470 -21.562   2.651  1.00  0.00     0.000 A 
HETATM   14  C   UNL     1      44.822 -20.970   3.862  1.00  0.00     0.001 A 
HETATM   15  C   UNL     1      44.328 -19.705   4.192  1.00  0.00     0.016 A 
ENDBRANCH   7  10
BRANCH   9  16
HETATM   16  C   UNL     1      41.024 -14.831   2.464  1.00  0.00     0.046 A 
HETATM   17  C   UNL     1      40.413 -15.228   1.136  1.00  0.00     0.012 A 
HETATM   18  C   UNL     1      39.536 -15.086   2.331  1.00  0.00     0.012 A 
ENDBRANCH   9  16
ENDBRANCH   2   5
BRANCH   1  19
HETATM   19  N   UNL     1      43.307 -13.248   6.920  1.00  0.00    -0.263 N 
HETATM   20  C   UNL     1      44.435 -13.034   7.683  1.00  0.00     0.270 C 
HETATM   21  O   UNL     1      45.515 -13.573   7.466  1.00  0.00    -0.266 OA
HETATM   22  H   UNL     1      42.457 -12.693   7.002  1.00  0.00     0.190 HD
BRANCH  20  23
HETATM   23  C   UNL     1      44.268 -12.072   8.807  1.00  0.00     0.033 A 
HETATM   24  C   UNL     1      45.260 -11.911   9.783  1.00  0.00     0.020 A 
HETATM   25  C   UNL     1      45.082 -10.995  10.828  1.00  0.00     0.038 A 
HETATM   26  C   UNL     1      43.918 -10.229  10.898  1.00  0.00     0.068 A 
HETATM   27  C   UNL     1      42.933 -10.387   9.919  1.00  0.00     0.038 A 
HETATM   28  C   UNL     1      43.107 -11.297   8.871  1.00  0.00     0.020 A 
BRANCH  26  29
HETATM   29  O   UNL     1      43.628  -9.301  11.861  1.00  0.00    -0.352 OA
BRANCH  29  30
HETATM   30  C   UNL     1      42.393  -9.456  12.560  1.00  0.00     0.171 C 
HETATM   31  C   UNL     1      42.661 -10.256  13.823  1.00  0.00     0.034 C 
ENDBRANCH  29  30
ENDBRANCH  26  29
ENDBRANCH  20  23
ENDBRANCH   1  19
TORSDOF 7
ENDMDL
MODEL 3
REMARK VINA RESULT:      -8.3      6.510     10.321
REMARK  7 active torsions:
REMARK  status: ('A' for Active; 'I' for Inactive)
REMARK    1  A    between atoms: C_2  and  O_3 
REMARK    2  A    between atoms: O_3  and  C_4 
REMARK    3  A    between atoms: C_7  and  C_8 
REMARK       I    between atoms: C_8  and  N_9 
REMARK    4  A    between atoms: N_9  and  N_10 
REMARK       I    between atoms: N_10  and  C_11 
REMARK    5  A    between atoms: C_11  and  C_12 
REMARK    6  A    between atoms: C_14  and  C_15 
REMARK    7  A    between atoms: C_22  and  C_23 
ROOT
HETATM    1  N   UNL     1      41.892 -15.850  -0.682  1.00  0.00    -0.262 N 
HETATM    2  C   UNL     1      41.470 -14.547  -0.502  1.00  0.00     0.291 C 
HETATM    3  O   UNL     1      41.748 -13.912   0.517  1.00  0.00    -0.264 OA
HETATM    4  H   UNL     1      41.599 -16.404  -1.486  1.00  0.00     0.190 HD
ENDROOT
BRANCH   2   5
HETATM    5  C   UNL     1      40.669 -14.027  -1.598  1.00  0.00     0.159 A 
HETATM    6  N   UNL     1      39.305 -14.276  -1.726  1.00  0.00    -0.216 NA
HETATM    7  C   UNL     1      38.955 -13.612  -2.812  1.00  0.00     0.180 A 
HETATM    8  O   UNL     1      39.988 -12.951  -3.416  1.00  0.00    -0.293 OA
HETATM    9  C   UNL     1      41.082 -13.217  -2.639  1.00  0.00     0.094 A 
BRANCH   7  10
HETATM   10  C   UNL     1      37.642 -13.474  -3.439  1.00  0.00     0.017 A 
HETATM   11  C   UNL     1      36.958 -12.253  -3.366  1.00  0.00     0.016 A 
HETATM   12  C   UNL     1      35.705 -12.098  -3.967  1.00  0.00     0.001 A 
HETATM   13  C   UNL     1      35.120 -13.163  -4.648  1.00  0.00     0.000 A 
HETATM   14  C   UNL     1      35.785 -14.384  -4.729  1.00  0.00     0.001 A 
HETATM   15  C   UNL     1      37.038 -14.539  -4.128  1.00  0.00     0.016 A 
ENDBRANCH   7  10
BRANCH   9  16
HETATM   16  C   UNL     1      42.473 -12.679  -2.925  1.00  0.00     0.046 A 
HETATM   17  C   UNL     1      42.585 -11.417  -3.755  1.00  0.00     0.012 A 
HETATM   18  C   UNL     1      42.860 -11.357  -2.293  1.00  0.00     0.012 A 
ENDBRANCH   9  16
ENDBRANCH   2   5
BRANCH   1  19
HETATM   19  N   UNL     1      42.514 -16.494   0.389  1.00  0.00    -0.263 N 
HETATM   20  C   UNL     1      41.809 -17.408   1.141  1.00  0.00     0.270 C 
HETATM   21  O   UNL     1      40.648 -17.728   0.909  1.00  0.00    -0.266 OA
HETATM   22  H   UNL     1      43.516 -16.339   0.484  1.00  0.00     0.190 HD
BRANCH  20  23
HETATM   23  C   UNL     1      42.561 -18.015   2.273  1.00  0.00     0.033 A 
HETATM   24  C   UNL     1      42.236 -17.725   3.605  1.00  0.00     0.020 A 
HETATM   25  C   UNL     1      42.955 -18.314   4.653  1.00  0.00     0.038 A 
HETATM   26  C   UNL     1      43.996 -19.201   4.378  1.00  0.00     0.068 A 
HETATM   27  C   UNL     1      44.313 -19.494   3.048  1.00  0.00     0.038 A 
HETATM   28  C   UNL     1      43.596 -18.912   1.997  1.00  0.00     0.020 A 
BRANCH  26  29
HETATM   29  O   UNL     1      44.767 -19.843   5.308  1.00  0.00    -0.352 OA
BRANCH  29  30
HETATM   30  C   UNL     1      44.403 -21.183   5.638  1.00  0.00     0.171 C 
HETATM   31  C   UNL     1      43.706 -21.167   6.987  1.00  0.00     0.034 C 
ENDBRANCH  29  30
ENDBRANCH  26  29
ENDBRANCH  20  23
ENDBRANCH   1  19
TORSDOF 7
ENDMDL
MODEL 4
REMARK VINA RESULT:      -8.0      4.618      8.324
REMARK  7 active torsions:
REMARK  status: ('A' for Active; 'I' for Inactive)
REMARK    1  A    between atoms: C_2  and  O_3 
REMARK    2  A    between atoms: O_3  and  C_4 
REMARK    3  A    between atoms: C_7  and  C_8 
REMARK       I    between atoms: C_8  and  N_9 
REMARK    4  A    between atoms: N_9  and  N_10 
REMARK       I    between atoms: N_10  and  C_11 
REMARK    5  A    between atoms: C_11  and  C_12 
REMARK    6  A    between atoms: C_14  and  C_15 
REMARK    7  A    between atoms: C_22  and  C_23 
ROOT
HETATM    1  N   UNL     1      42.269 -14.358   2.025  1.00  0.00    -0.262 N 
HETATM    2  C   UNL     1      43.255 -14.507   2.980  1.00  0.00     0.291 C 
HETATM    3  O   UNL     1      43.961 -13.562   3.334  1.00  0.00    -0.264 OA
HETATM    4  H   UNL     1      41.736 -15.153   1.672  1.00  0.00     0.190 HD
ENDROOT
BRANCH   2   5
HETATM    5  C   UNL     1      43.382 -15.862   3.492  1.00  0.00     0.159 A 
HETATM    6  N   UNL     1      43.600 -16.966   2.672  1.00  0.00    -0.216 NA
HETATM    7  C   UNL     1      43.687 -17.981   3.512  1.00  0.00     0.180 A 
HETATM    8  O   UNL     1      43.534 -17.630   4.825  1.00  0.00    -0.293 OA
HETATM    9  C   UNL     1      43.340 -16.277   4.811  1.00  0.00     0.094 A 
BRANCH   7  10
HETATM   10  C   UNL     1      43.935 -19.395   3.243  1.00  0.00     0.017 A 
HETATM   11  C   UNL     1      43.540 -19.954   2.019  1.00  0.00     0.016 A 
HETATM   12  C   UNL     1      43.777 -21.303   1.739  1.00  0.00     0.001 A 
HETATM   13  C   UNL     1      44.411 -22.111   2.681  1.00  0.00     0.000 A 
HETATM   14  C   UNL     1      44.809 -21.573   3.902  1.00  0.00     0.001 A 
HETATM   15  C   UNL     1      44.572 -20.224   4.182  1.00  0.00     0.016 A 
ENDBRANCH   7  10
BRANCH   9  16
HETATM   16  C   UNL     1      43.128 -15.440   6.060  1.00  0.00     0.046 A 
HETATM   17  C   UNL     1      43.723 -15.945   7.358  1.00  0.00     0.012 A 
HETATM   18  C   UNL     1      44.341 -14.774   6.676  1.00  0.00     0.012 A 
ENDBRANCH   9  16
ENDBRANCH   2   5
BRANCH   1  19
HETATM   19  N   UNL     1      42.188 -13.140   1.347  1.00  0.00    -0.263 N 
HETATM   20  C   UNL     1      41.969 -13.126  -0.013  1.00  0.00     0.270 C 
HETATM   21  O   UNL     1      41.803 -14.139  -0.685  1.00  0.00    -0.266 OA
HETATM   22  H   UNL     1      42.175 -12.304   1.929  1.00  0.00     0.190 HD
BRANCH  20  23
HETATM   23  C   UNL     1      41.927 -11.775  -0.636  1.00  0.00     0.033 A 
HETATM   24  C   UNL     1      40.741 -11.029  -0.683  1.00  0.00     0.020 A 
HETATM   25  C   UNL     1      40.729  -9.757  -1.270  1.00  0.00     0.038 A 
HETATM   26  C   UNL     1      41.901  -9.219  -1.803  1.00  0.00     0.068 A 
HETATM   27  C   UNL     1      43.083  -9.963  -1.748  1.00  0.00     0.038 A 
HETATM   28  C   UNL     1      43.103 -11.232  -1.160  1.00  0.00     0.020 A 
BRANCH  26  29
HETATM   29  O   UNL     1      42.020  -7.992  -2.395  1.00  0.00    -0.352 OA
BRANCH  29  30
HETATM   30  C   UNL     1      42.448  -7.968  -3.757  1.00  0.00     0.171 C 
HETATM   31  C   UNL     1      41.327  -8.525  -4.616  1.00  0.00     0.034 C 
ENDBRANCH  29  30
ENDBRANCH  26  29
ENDBRANCH  20  23
ENDBRANCH   1  19
TORSDOF 7
ENDMDL
MODEL 5
REMARK VINA RESULT:      -7.8      5.210      9.841
REMARK  7 active torsions:
REMARK  status: ('A' for Active; 'I' for Inactive)
REMARK    1  A    between atoms: C_2  and  O_3 
REMARK    2  A    between atoms: O_3  and  C_4 
REMARK    3  A    between atoms: C_7  and  C_8 
REMARK       I    between atoms: C_8  and  N_9 
REMARK    4  A    between atoms: N_9  and  N_10 
REMARK       I    between atoms: N_10  and  C_11 
REMARK    5  A    between atoms: C_11  and  C_12 
REMARK    6  A    between atoms: C_14  and  C_15 
REMARK    7  A    between atoms: C_22  and  C_23 
ROOT
HETATM    1  N   UNL     1      41.788 -15.376   0.033  1.00  0.00    -0.262 N 
HETATM    2  C   UNL     1      42.155 -15.157   1.346  1.00  0.00     0.291 C 
HETATM    3  O   UNL     1      42.332 -14.020   1.786  1.00  0.00    -0.264 OA
HETATM    4  H   UNL     1      41.717 -16.317  -0.356  1.00  0.00     0.190 HD
ENDROOT
BRANCH   2   5
HETATM    5  C   UNL     1      42.327 -16.373   2.124  1.00  0.00     0.159 A 
HETATM    6  N   UNL     1      43.046 -17.472   1.663  1.00  0.00    -0.216 NA
HETATM    7  C   UNL     1      42.992 -18.335   2.661  1.00  0.00     0.180 A 
HETATM    8  O   UNL     1      42.283 -17.890   3.743  1.00  0.00    -0.293 OA
HETATM    9  C   UNL     1      41.859 -16.637   3.398  1.00  0.00     0.094 A 
BRANCH   7  10
HETATM   10  C   UNL     1      43.585 -19.666   2.777  1.00  0.00     0.017 A 
HETATM   11  C   UNL     1      44.304 -20.012   3.930  1.00  0.00     0.016 A 
HETATM   12  C   UNL     1      44.871 -21.283   4.064  1.00  0.00     0.001 A 
HETATM   13  C   UNL     1      44.726 -22.224   3.047  1.00  0.00     0.000 A 
HETATM   14  C   UNL     1      44.017 -21.896   1.894  1.00  0.00     0.001 A 
HETATM   15  C   UNL     1      43.450 -20.625   1.760  1.00  0.00     0.016 A 
ENDBRANCH   7  10
BRANCH   9  16
HETATM   16  C   UNL     1      41.030 -15.745   4.305  1.00  0.00     0.046 A 
HETATM   17  C   UNL     1      40.926 -16.128   5.767  1.00  0.00     0.012 A 
HETATM   18  C   UNL     1      41.758 -14.957   5.375  1.00  0.00     0.012 A 
ENDBRANCH   9  16
ENDBRANCH   2   5
BRANCH   1  19
HETATM   19  N   UNL     1      41.771 -14.285  -0.838  1.00  0.00    -0.263 N 
HETATM   20  C   UNL     1      41.232 -14.422  -2.098  1.00  0.00     0.270 C 
HETATM   21  O   UNL     1      40.722 -15.459  -2.510  1.00  0.00    -0.266 OA
HETATM   22  H   UNL     1      42.056 -13.391  -0.440  1.00  0.00     0.190 HD
BRANCH  20  23
HETATM   23  C   UNL     1      41.290 -13.203  -2.951  1.00  0.00     0.033 A 
HETATM   24  C   UNL     1      40.129 -12.632  -3.489  1.00  0.00     0.020 A 
HETATM   25  C   UNL     1      40.209 -11.482  -4.283  1.00  0.00     0.038 A 
HETATM   26  C   UNL     1      41.447 -10.889  -4.536  1.00  0.00     0.068 A 
HETATM   27  C   UNL     1      42.602 -11.456  -3.991  1.00  0.00     0.038 A 
HETATM   28  C   UNL     1      42.528 -12.604  -3.194  1.00  0.00     0.020 A 
BRANCH  26  29
HETATM   29  O   UNL     1      41.656  -9.765  -5.287  1.00  0.00    -0.352 OA
BRANCH  29  30
HETATM   30  C   UNL     1      41.514  -9.896  -6.702  1.00  0.00     0.171 C 
HETATM   31  C   UNL     1      40.914  -8.610  -7.239  1.00  0.00     0.034 C 
ENDBRANCH  29  30
ENDBRANCH  26  29
ENDBRANCH  20  23
ENDBRANCH   1  19
TORSDOF 7
ENDMDL
MODEL 6
REMARK VINA RESULT:      -7.8      2.281      2.935
REMARK  7 active torsions:
REMARK  status: ('A' for Active; 'I' for Inactive)
REMARK    1  A    between atoms: C_2  and  O_3 
REMARK    2  A    between atoms: O_3  and  C_4 
REMARK    3  A    between atoms: C_7  and  C_8 
REMARK       I    between atoms: C_8  and  N_9 
REMARK    4  A    between atoms: N_9  and  N_10 
REMARK       I    between atoms: N_10  and  C_11 
REMARK    5  A    between atoms: C_11  and  C_12 
REMARK    6  A    between atoms: C_14  and  C_15 
REMARK    7  A    between atoms: C_22  and  C_23 
ROOT
HETATM    1  N   UNL     1      42.342 -13.852   5.558  1.00  0.00    -0.262 N 
HETATM    2  C   UNL     1      41.503 -14.946   5.485  1.00  0.00     0.291 C 
HETATM    3  O   UNL     1      40.536 -15.071   6.238  1.00  0.00    -0.264 OA
HETATM    4  H   UNL     1      43.187 -13.783   4.991  1.00  0.00     0.190 HD
ENDROOT
BRANCH   2   5
HETATM    5  C   UNL     1      41.882 -15.916   4.470  1.00  0.00     0.159 A 
HETATM    6  N   UNL     1      42.605 -17.070   4.757  1.00  0.00    -0.216 NA
HETATM    7  C   UNL     1      42.710 -17.684   3.592  1.00  0.00     0.180 A 
HETATM    8  O   UNL     1      42.118 -17.016   2.556  1.00  0.00    -0.293 OA
HETATM    9  C   UNL     1      41.589 -15.887   3.119  1.00  0.00     0.094 A 
BRANCH   7  10
HETATM   10  C   UNL     1      43.344 -18.959   3.263  1.00  0.00     0.017 A 
HETATM   11  C   UNL     1      42.992 -19.631   2.084  1.00  0.00     0.016 A 
HETATM   12  C   UNL     1      43.594 -20.846   1.747  1.00  0.00     0.001 A 
HETATM   13  C   UNL     1      44.555 -21.407   2.585  1.00  0.00     0.000 A 
HETATM   14  C   UNL     1      44.915 -20.754   3.762  1.00  0.00     0.001 A 
HETATM   15  C   UNL     1      44.314 -19.538   4.099  1.00  0.00     0.016 A 
ENDBRANCH   7  10
BRANCH   9  16
HETATM   16  C   UNL     1      40.822 -14.834   2.339  1.00  0.00     0.046 A 
HETATM   17  C   UNL     1      40.307 -15.208   0.965  1.00  0.00     0.012 A 
HETATM   18  C   UNL     1      39.346 -15.074   2.095  1.00  0.00     0.012 A 
ENDBRANCH   9  16
ENDBRANCH   2   5
BRANCH   1  19
HETATM   19  N   UNL     1      42.166 -12.957   6.615  1.00  0.00    -0.263 N 
HETATM   20  C   UNL     1      41.695 -11.687   6.364  1.00  0.00     0.270 C 
HETATM   21  O   UNL     1      41.381 -11.286   5.248  1.00  0.00    -0.266 OA
HETATM   22  H   UNL     1      42.283 -13.340   7.551  1.00  0.00     0.190 HD
BRANCH  20  23
HETATM   23  C   UNL     1      41.570 -10.808   7.559  1.00  0.00     0.033 A 
HETATM   24  C   UNL     1      40.508  -9.903   7.692  1.00  0.00     0.020 A 
HETATM   25  C   UNL     1      40.409  -9.091   8.829  1.00  0.00     0.038 A 
HETATM   26  C   UNL     1      41.363  -9.185   9.844  1.00  0.00     0.068 A 
HETATM   27  C   UNL     1      42.417 -10.094   9.711  1.00  0.00     0.038 A 
HETATM   28  C   UNL     1      42.519 -10.910   8.579  1.00  0.00     0.020 A 
BRANCH  26  29
HETATM   29  O   UNL     1      41.375  -8.455  11.000  1.00  0.00    -0.352 OA
BRANCH  29  30
HETATM   30  C   UNL     1      40.132  -8.312  11.689  1.00  0.00     0.171 C 
HETATM   31  C   UNL     1      39.890  -9.575  12.495  1.00  0.00     0.034 C 
ENDBRANCH  29  30
ENDBRANCH  26  29
ENDBRANCH  20  23
ENDBRANCH   1  19
TORSDOF 7
ENDMDL
MODEL 7
REMARK VINA RESULT:      -7.7      5.566     10.353
REMARK  7 active torsions:
REMARK  status: ('A' for Active; 'I' for Inactive)
REMARK    1  A    between atoms: C_2  and  O_3 
REMARK    2  A    between atoms: O_3  and  C_4 
REMARK    3  A    between atoms: C_7  and  C_8 
REMARK       I    between atoms: C_8  and  N_9 
REMARK    4  A    between atoms: N_9  and  N_10 
REMARK       I    between atoms: N_10  and  C_11 
REMARK    5  A    between atoms: C_11  and  C_12 
REMARK    6  A    between atoms: C_14  and  C_15 
REMARK    7  A    between atoms: C_22  and  C_23 
ROOT
HETATM    1  N   UNL     1      40.843 -15.708  -0.235  1.00  0.00    -0.262 N 
HETATM    2  C   UNL     1      40.696 -15.794   1.135  1.00  0.00     0.291 C 
HETATM    3  O   UNL     1      39.753 -15.260   1.720  1.00  0.00    -0.264 OA
HETATM    4  H   UNL     1      41.663 -16.081  -0.714  1.00  0.00     0.190 HD
ENDROOT
BRANCH   2   5
HETATM    5  C   UNL     1      41.753 -16.541   1.797  1.00  0.00     0.159 A 
HETATM    6  N   UNL     1      41.838 -17.930   1.761  1.00  0.00    -0.216 NA
HETATM    7  C   UNL     1      42.935 -18.206   2.442  1.00  0.00     0.180 A 
HETATM    8  O   UNL     1      43.576 -17.102   2.933  1.00  0.00    -0.293 OA
HETATM    9  C   UNL     1      42.821 -16.040   2.520  1.00  0.00     0.094 A 
BRANCH   7  10
HETATM   10  C   UNL     1      43.557 -19.497   2.726  1.00  0.00     0.017 A 
HETATM   11  C   UNL     1      44.270 -19.682   3.920  1.00  0.00     0.016 A 
HETATM   12  C   UNL     1      44.864 -20.913   4.215  1.00  0.00     0.001 A 
HETATM   13  C   UNL     1      44.755 -21.974   3.318  1.00  0.00     0.000 A 
HETATM   14  C   UNL     1      44.052 -21.807   2.127  1.00  0.00     0.001 A 
HETATM   15  C   UNL     1      43.458 -20.576   1.832  1.00  0.00     0.016 A 
ENDBRANCH   7  10
BRANCH   9  16
HETATM   16  C   UNL     1      43.156 -14.592   2.830  1.00  0.00     0.046 A 
HETATM   17  C   UNL     1      42.245 -13.845   3.783  1.00  0.00     0.012 A 
HETATM   18  C   UNL     1      43.601 -14.258   4.240  1.00  0.00     0.012 A 
ENDBRANCH   9  16
ENDBRANCH   2   5
BRANCH   1  19
HETATM   19  N   UNL     1      39.979 -14.865  -0.938  1.00  0.00    -0.263 N 
HETATM   20  C   UNL     1      39.992 -14.866  -2.316  1.00  0.00     0.270 C 
HETATM   21  O   UNL     1      40.709 -15.599  -2.988  1.00  0.00    -0.266 OA
HETATM   22  H   UNL     1      39.284 -14.371  -0.380  1.00  0.00     0.190 HD
BRANCH  20  23
HETATM   23  C   UNL     1      39.050 -13.910  -2.960  1.00  0.00     0.033 A 
HETATM   24  C   UNL     1      39.411 -12.576  -3.197  1.00  0.00     0.020 A 
HETATM   25  C   UNL     1      38.509 -11.699  -3.810  1.00  0.00     0.038 A 
HETATM   26  C   UNL     1      37.246 -12.149  -4.200  1.00  0.00     0.068 A 
HETATM   27  C   UNL     1      36.893 -13.481  -3.970  1.00  0.00     0.038 A 
HETATM   28  C   UNL     1      37.791 -14.364  -3.360  1.00  0.00     0.020 A 
BRANCH  26  29
HETATM   29  O   UNL     1      36.282 -11.394  -4.811  1.00  0.00    -0.352 OA
BRANCH  29  30
HETATM   30  C   UNL     1      35.234 -12.099  -5.478  1.00  0.00     0.171 C 
HETATM   31  C   UNL     1      35.381 -11.864  -6.970  1.00  0.00     0.034 C 
ENDBRANCH  29  30
ENDBRANCH  26  29
ENDBRANCH  20  23
ENDBRANCH   1  19
TORSDOF 7
ENDMDL
MODEL 8
REMARK VINA RESULT:      -7.5      6.668     10.654
REMARK  7 active torsions:
REMARK  status: ('A' for Active; 'I' for Inactive)
REMARK    1  A    between atoms: C_2  and  O_3 
REMARK    2  A    between atoms: O_3  and  C_4 
REMARK    3  A    between atoms: C_7  and  C_8 
REMARK       I    between atoms: C_8  and  N_9 
REMARK    4  A    between atoms: N_9  and  N_10 
REMARK       I    between atoms: N_10  and  C_11 
REMARK    5  A    between atoms: C_11  and  C_12 
REMARK    6  A    between atoms: C_14  and  C_15 
REMARK    7  A    between atoms: C_22  and  C_23 
ROOT
HETATM    1  N   UNL     1      40.559 -15.868  -0.351  1.00  0.00    -0.262 N 
HETATM    2  C   UNL     1      40.746 -14.500  -0.382  1.00  0.00     0.291 C 
HETATM    3  O   UNL     1      41.741 -13.972   0.118  1.00  0.00    -0.264 OA
HETATM    4  H   UNL     1      39.701 -16.301  -0.693  1.00  0.00     0.190 HD
ENDROOT
BRANCH   2   5
HETATM    5  C   UNL     1      39.667 -13.769  -1.025  1.00  0.00     0.159 A 
HETATM    6  N   UNL     1      39.135 -14.132  -2.259  1.00  0.00    -0.216 NA
HETATM    7  C   UNL     1      38.174 -13.251  -2.470  1.00  0.00     0.180 A 
HETATM    8  O   UNL     1      38.039 -12.327  -1.471  1.00  0.00    -0.293 OA
HETATM    9  C   UNL     1      38.993 -12.659  -0.549  1.00  0.00     0.094 A 
BRANCH   7  10
HETATM   10  C   UNL     1      37.243 -13.136  -3.590  1.00  0.00     0.017 A 
HETATM   11  C   UNL     1      36.730 -14.293  -4.194  1.00  0.00     0.016 A 
HETATM   12  C   UNL     1      35.831 -14.204  -5.261  1.00  0.00     0.001 A 
HETATM   13  C   UNL     1      35.433 -12.956  -5.737  1.00  0.00     0.000 A 
HETATM   14  C   UNL     1      35.933 -11.797  -5.149  1.00  0.00     0.001 A 
HETATM   15  C   UNL     1      36.833 -11.886  -4.083  1.00  0.00     0.016 A 
ENDBRANCH   7  10
BRANCH   9  16
HETATM   16  C   UNL     1      39.214 -11.903   0.749  1.00  0.00     0.046 A 
HETATM   17  C   UNL     1      38.014 -11.236   1.390  1.00  0.00     0.012 A 
HETATM   18  C   UNL     1      38.584 -12.466   2.008  1.00  0.00     0.012 A 
ENDBRANCH   9  16
ENDBRANCH   2   5
BRANCH   1  19
HETATM   19  N   UNL     1      41.450 -16.638   0.399  1.00  0.00    -0.263 N 
HETATM   20  C   UNL     1      41.077 -17.099   1.643  1.00  0.00     0.270 C 
HETATM   21  O   UNL     1      39.973 -16.899   2.139  1.00  0.00    -0.266 OA
HETATM   22  H   UNL     1      42.303 -16.926  -0.077  1.00  0.00     0.190 HD
BRANCH  20  23
HETATM   23  C   UNL     1      42.113 -17.887   2.365  1.00  0.00     0.033 A 
HETATM   24  C   UNL     1      42.209 -17.859   3.763  1.00  0.00     0.020 A 
HETATM   25  C   UNL     1      43.188 -18.614   4.419  1.00  0.00     0.038 A 
HETATM   26  C   UNL     1      44.071 -19.408   3.686  1.00  0.00     0.068 A 
HETATM   27  C   UNL     1      43.967 -19.440   2.293  1.00  0.00     0.038 A 
HETATM   28  C   UNL     1      42.989 -18.691   1.631  1.00  0.00     0.020 A 
BRANCH  26  29
HETATM   29  O   UNL     1      45.063 -20.192   4.208  1.00  0.00    -0.352 OA
BRANCH  29  30
HETATM   30  C   UNL     1      44.718 -21.021   5.319  1.00  0.00     0.171 C 
HETATM   31  C   UNL     1      44.988 -22.464   4.935  1.00  0.00     0.034 C 
ENDBRANCH  29  30
ENDBRANCH  26  29
ENDBRANCH  20  23
ENDBRANCH   1  19
TORSDOF 7
ENDMDL
MODEL 9
REMARK VINA RESULT:      -7.4      5.442      9.961
REMARK  7 active torsions:
REMARK  status: ('A' for Active; 'I' for Inactive)
REMARK    1  A    between atoms: C_2  and  O_3 
REMARK    2  A    between atoms: O_3  and  C_4 
REMARK    3  A    between atoms: C_7  and  C_8 
REMARK       I    between atoms: C_8  and  N_9 
REMARK    4  A    between atoms: N_9  and  N_10 
REMARK       I    between atoms: N_10  and  C_11 
REMARK    5  A    between atoms: C_11  and  C_12 
REMARK    6  A    between atoms: C_14  and  C_15 
REMARK    7  A    between atoms: C_22  and  C_23 
ROOT
HETATM    1  N   UNL     1      40.088 -15.535   0.703  1.00  0.00    -0.262 N 
HETATM    2  C   UNL     1      41.439 -15.391   0.949  1.00  0.00     0.291 C 
HETATM    3  O   UNL     1      42.104 -14.508   0.405  1.00  0.00    -0.264 OA
HETATM    4  H   UNL     1      39.550 -16.311   1.089  1.00  0.00     0.190 HD
ENDROOT
BRANCH   2   5
HETATM    5  C   UNL     1      41.981 -16.376   1.871  1.00  0.00     0.159 A 
HETATM    6  N   UNL     1      42.436 -17.627   1.464  1.00  0.00    -0.216 NA
HETATM    7  C   UNL     1      42.869 -18.191   2.576  1.00  0.00     0.180 A 
HETATM    8  O   UNL     1      42.726 -17.409   3.689  1.00  0.00    -0.293 OA
HETATM    9  C   UNL     1      42.159 -16.249   3.237  1.00  0.00     0.094 A 
BRANCH   7  10
HETATM   10  C   UNL     1      43.483 -19.501   2.780  1.00  0.00     0.017 A 
HETATM   11  C   UNL     1      43.334 -20.501   1.809  1.00  0.00     0.016 A 
HETATM   12  C   UNL     1      43.922 -21.758   1.980  1.00  0.00     0.001 A 
HETATM   13  C   UNL     1      44.665 -22.032   3.127  1.00  0.00     0.000 A 
HETATM   14  C   UNL     1      44.822 -21.050   4.103  1.00  0.00     0.001 A 
HETATM   15  C   UNL     1      44.234 -19.793   3.931  1.00  0.00     0.016 A 
ENDBRANCH   7  10
BRANCH   9  16
HETATM   16  C   UNL     1      41.818 -15.070   4.130  1.00  0.00     0.046 A 
HETATM   17  C   UNL     1      40.354 -14.729   4.320  1.00  0.00     0.012 A 
HETATM   18  C   UNL     1      41.109 -15.360   5.438  1.00  0.00     0.012 A 
ENDBRANCH   9  16
ENDBRANCH   2   5
BRANCH   1  19
HETATM   19  N   UNL     1      39.514 -14.752  -0.301  1.00  0.00    -0.263 N 
HETATM   20  C   UNL     1      38.393 -14.000  -0.025  1.00  0.00     0.270 C 
HETATM   21  O   UNL     1      37.866 -13.944   1.081  1.00  0.00    -0.266 OA
HETATM   22  H   UNL     1      40.039 -14.684  -1.171  1.00  0.00     0.190 HD
BRANCH  20  23
HETATM   23  C   UNL     1      37.850 -13.225  -1.175  1.00  0.00     0.033 A 
HETATM   24  C   UNL     1      37.924 -13.714  -2.486  1.00  0.00     0.020 A 
HETATM   25  C   UNL     1      37.401 -12.969  -3.549  1.00  0.00     0.038 A 
HETATM   26  C   UNL     1      36.792 -11.736  -3.310  1.00  0.00     0.068 A 
HETATM   27  C   UNL     1      36.713 -11.254  -2.000  1.00  0.00     0.038 A 
HETATM   28  C   UNL     1      37.231 -11.996  -0.932  1.00  0.00     0.020 A 
BRANCH  26  29
HETATM   29  O   UNL     1      36.241 -10.919  -4.258  1.00  0.00    -0.352 OA
BRANCH  29  30
HETATM   30  C   UNL     1      35.807 -11.534  -5.471  1.00  0.00     0.171 C 
HETATM   31  C   UNL     1      35.918 -10.512  -6.587  1.00  0.00     0.034 C 
ENDBRANCH  29  30
ENDBRANCH  26  29
ENDBRANCH  20  23
ENDBRANCH   1  19
TORSDOF 7
ENDMDL
MODEL 10
REMARK VINA RESULT:      -7.4      6.139     10.516
REMARK  7 active torsions:
REMARK  status: ('A' for Active; 'I' for Inactive)
REMARK    1  A    between atoms: C_2  and  O_3 
REMARK    2  A    between atoms: O_3  and  C_4 
REMARK    3  A    between atoms: C_7  and  C_8 
REMARK       I    between atoms: C_8  and  N_9 
REMARK    4  A    between atoms: N_9  and  N_10 
REMARK       I    between atoms: N_10  and  C_11 
REMARK    5  A    between atoms: C_11  and  C_12 
REMARK    6  A    between atoms: C_14  and  C_15 
REMARK    7  A    between atoms: C_22  and  C_23 
ROOT
HETATM    1  N   UNL     1      39.605 -15.861   1.388  1.00  0.00    -0.262 N 
HETATM    2  C   UNL     1      39.903 -14.952   0.391  1.00  0.00     0.291 C 
HETATM    3  O   UNL     1      40.976 -14.985  -0.214  1.00  0.00    -0.264 OA
HETATM    4  H   UNL     1      38.753 -15.789   1.944  1.00  0.00     0.190 HD
ENDROOT
BRANCH   2   5
HETATM    5  C   UNL     1      38.858 -13.969   0.155  1.00  0.00     0.159 A 
HETATM    6  N   UNL     1      38.341 -13.155   1.158  1.00  0.00    -0.216 NA
HETATM    7  C   UNL     1      37.456 -12.397   0.537  1.00  0.00     0.180 A 
HETATM    8  O   UNL     1      37.344 -12.657  -0.801  1.00  0.00    -0.293 OA
HETATM    9  C   UNL     1      38.241 -13.661  -1.044  1.00  0.00     0.094 A 
BRANCH   7  10
HETATM   10  C   UNL     1      36.608 -11.331   1.064  1.00  0.00     0.017 A 
HETATM   11  C   UNL     1      35.277 -11.220   0.636  1.00  0.00     0.016 A 
HETATM   12  C   UNL     1      34.447 -10.212   1.135  1.00  0.00     0.001 A 
HETATM   13  C   UNL     1      34.937  -9.301   2.068  1.00  0.00     0.000 A 
HETATM   14  C   UNL     1      36.257  -9.395   2.503  1.00  0.00     0.001 A 
HETATM   15  C   UNL     1      37.088 -10.403   2.004  1.00  0.00     0.016 A 
ENDBRANCH   7  10
BRANCH   9  16
HETATM   16  C   UNL     1      38.470 -14.277  -2.412  1.00  0.00     0.046 A 
HETATM   17  C   UNL     1      37.927 -13.539  -3.618  1.00  0.00     0.012 A 
HETATM   18  C   UNL     1      39.394 -13.548  -3.367  1.00  0.00     0.012 A 
ENDBRANCH   9  16
ENDBRANCH   2   5
BRANCH   1  19
HETATM   19  N   UNL     1      40.613 -16.731   1.809  1.00  0.00    -0.263 N 
HETATM   20  C   UNL     1      41.034 -16.707   3.120  1.00  0.00     0.270 C 
HETATM   21  O   UNL     1      40.549 -15.975   3.977  1.00  0.00    -0.266 OA
HETATM   22  H   UNL     1      40.906 -17.436   1.135  1.00  0.00     0.190 HD
BRANCH  20  23
HETATM   23  C   UNL     1      42.131 -17.657   3.453  1.00  0.00     0.033 A 
HETATM   24  C   UNL     1      42.473 -17.941   4.782  1.00  0.00     0.020 A 
HETATM   25  C   UNL     1      43.504 -18.844   5.069  1.00  0.00     0.038 A 
HETATM   26  C   UNL     1      44.194 -19.474   4.032  1.00  0.00     0.068 A 
HETATM   27  C   UNL     1      43.845 -19.194   2.708  1.00  0.00     0.038 A 
HETATM   28  C   UNL     1      42.813 -18.296   2.414  1.00  0.00     0.020 A 
BRANCH  26  29
HETATM   29  O   UNL     1      45.212 -20.375   4.181  1.00  0.00    -0.352 OA
BRANCH  29  30
HETATM   30  C   UNL     1      44.937 -21.542   4.958  1.00  0.00     0.171 C 
HETATM   31  C   UNL     1      44.626 -22.682   4.005  1.00  0.00     0.034 C 
ENDBRANCH  29  30
ENDBRANCH  26  29
ENDBRANCH  20  23
ENDBRANCH   1  19
TORSDOF 7
ENDMDL
