MODEL 1
REMARK VINA RESULT:      -7.6      0.000      0.000
REMARK  8 active torsions:
REMARK  status: ('A' for Active; 'I' for Inactive)
REMARK    1  A    between atoms: C_4  and  C_5 
REMARK    2  A    between atoms: C_5  and  N_6 
REMARK    3  A    between atoms: N_6  and  C_9 
REMARK    4  A    between atoms: C_9  and  C_10 
REMARK    5  A    between atoms: C_10  and  C_11 
REMARK    6  A    between atoms: C_11  and  C_12 
REMARK    7  A    between atoms: C_17  and  O_18 
REMARK    8  A    between atoms: C_21  and  O_22 
ROOT
HETATM    1  C   UNL     1      43.913 -16.429   6.152  1.00  0.00     0.010 C 
HETATM    2  N   UNL     1      44.393 -17.718   6.184  1.00  0.00    -0.359 N 
HETATM    3  H   UNL     1      44.897 -18.146   6.950  1.00  0.00     0.166 HD
HETATM    4  C   UNL     1      44.151 -18.341   4.981  1.00  0.00     0.048 A 
HETATM    5  C   UNL     1      43.384 -17.474   4.207  1.00  0.00     0.026 A 
HETATM    6  C   UNL     1      42.973 -17.880   2.921  1.00  0.00     0.083 A 
HETATM    7  C   UNL     1      43.392 -19.132   2.438  1.00  0.00     0.074 A 
HETATM    8  C   UNL     1      44.169 -19.982   3.229  1.00  0.00     0.073 A 
HETATM    9  C   UNL     1      44.545 -19.602   4.523  1.00  0.00     0.067 A 
HETATM   10  C   UNL     1      43.204 -16.289   4.976  1.00  0.00     0.041 C 
ENDROOT
BRANCH   1  11
HETATM   11  C   UNL     1      44.191 -15.443   7.234  1.00  0.00     0.059 C 
BRANCH  11  12
HETATM   12  C   UNL     1      44.870 -14.185   6.675  1.00  0.00     0.033 C 
BRANCH  12  13
HETATM   13  C   UNL     1      45.319 -13.224   7.775  1.00  0.00     0.233 C 
BRANCH  13  14
HETATM   14  N   UNL     1      44.114 -12.721   8.502  1.00  0.00    -0.067 N 
HETATM   15  H   UNL     1      43.810 -13.411   9.202  1.00  0.00     0.277 HD
HETATM   16  H   UNL     1      43.331 -12.638   7.840  1.00  0.00     0.277 HD
BRANCH  14  17
HETATM   17  C   UNL     1      44.258 -11.395   9.200  1.00  0.00     0.223 C 
HETATM   18  C   UNL     1      45.710 -11.175   9.621  1.00  0.00     0.046 C 
BRANCH  17  19
HETATM   19  C   UNL     1      43.336 -11.313  10.377  1.00  0.00     0.032 A 
HETATM   20  S   UNL     1      41.739 -10.682  10.253  1.00  0.00    -0.076 SA
HETATM   21  C   UNL     1      41.496 -10.975  11.930  1.00  0.00     0.071 A 
HETATM   22  C   UNL     1      40.194 -10.642  12.572  1.00  0.00     0.078 C 
HETATM   23  N   UNL     1      42.524 -11.500  12.556  1.00  0.00    -0.257 NA
HETATM   24  C   UNL     1      43.565 -11.711  11.680  1.00  0.00     0.134 A 
ENDBRANCH  17  19
ENDBRANCH  14  17
ENDBRANCH  13  14
ENDBRANCH  12  13
ENDBRANCH  11  12
ENDBRANCH   1  11
BRANCH   6  25
HETATM   25  O   UNL     1      42.240 -16.992   2.171  1.00  0.00    -0.355 OA
HETATM   26  C   UNL     1      41.343 -17.602   1.246  1.00  0.00     0.210 C 
ENDBRANCH   6  25
BRANCH   8  27
HETATM   27  O   UNL     1      44.640 -21.214   2.856  1.00  0.00    -0.356 OA
HETATM   28  C   UNL     1      44.072 -21.804   1.694  1.00  0.00     0.210 C 
ENDBRANCH   8  27
TORSDOF 8
ENDMDL
MODEL 2
REMARK VINA RESULT:      -7.6      4.007      6.135
REMARK  8 active torsions:
REMARK  status: ('A' for Active; 'I' for Inactive)
REMARK    1  A    between atoms: C_4  and  C_5 
REMARK    2  A    between atoms: C_5  and  N_6 
REMARK    3  A    between atoms: N_6  and  C_9 
REMARK    4  A    between atoms: C_9  and  C_10 
REMARK    5  A    between atoms: C_10  and  C_11 
REMARK    6  A    between atoms: C_11  and  C_12 
REMARK    7  A    between atoms: C_17  and  O_18 
REMARK    8  A    between atoms: C_21  and  O_22 
ROOT
HETATM    1  C   UNL     1      42.009 -17.864   1.917  1.00  0.00     0.010 C 
HETATM    2  N   UNL     1      42.021 -17.449   3.228  1.00  0.00    -0.359 N 
HETATM    3  H   UNL     1      41.455 -16.710   3.623  1.00  0.00     0.166 HD
HETATM    4  C   UNL     1      42.978 -18.143   3.933  1.00  0.00     0.048 A 
HETATM    5  C   UNL     1      43.501 -19.114   3.084  1.00  0.00     0.026 A 
HETATM    6  C   UNL     1      44.495 -19.989   3.569  1.00  0.00     0.083 A 
HETATM    7  C   UNL     1      44.965 -19.821   4.883  1.00  0.00     0.074 A 
HETATM    8  C   UNL     1      44.432 -18.834   5.714  1.00  0.00     0.073 A 
HETATM    9  C   UNL     1      43.414 -17.989   5.252  1.00  0.00     0.067 A 
HETATM   10  C   UNL     1      42.848 -18.955   1.828  1.00  0.00     0.041 C 
ENDROOT
BRANCH   1  11
HETATM   11  C   UNL     1      41.214 -17.171   0.864  1.00  0.00     0.059 C 
BRANCH  11  12
HETATM   12  C   UNL     1      41.227 -15.650   1.073  1.00  0.00     0.033 C 
BRANCH  12  13
HETATM   13  C   UNL     1      39.847 -15.094   1.421  1.00  0.00     0.233 C 
BRANCH  13  14
HETATM   14  N   UNL     1      39.657 -15.157   2.902  1.00  0.00    -0.067 N 
HETATM   15  H   UNL     1      40.247 -15.899   3.302  1.00  0.00     0.277 HD
HETATM   16  H   UNL     1      38.689 -15.437   3.106  1.00  0.00     0.277 HD
BRANCH  14  17
HETATM   17  C   UNL     1      39.933 -13.890   3.667  1.00  0.00     0.223 C 
HETATM   18  C   UNL     1      39.709 -12.673   2.771  1.00  0.00     0.046 C 
BRANCH  17  19
HETATM   19  C   UNL     1      41.323 -13.902   4.226  1.00  0.00     0.032 A 
HETATM   20  S   UNL     1      41.708 -14.673   5.716  1.00  0.00    -0.076 SA
HETATM   21  C   UNL     1      43.352 -14.204   5.530  1.00  0.00     0.071 A 
HETATM   22  C   UNL     1      44.364 -14.582   6.555  1.00  0.00     0.078 C 
HETATM   23  N   UNL     1      43.613 -13.514   4.442  1.00  0.00    -0.257 NA
HETATM   24  C   UNL     1      42.471 -13.354   3.690  1.00  0.00     0.134 A 
ENDBRANCH  17  19
ENDBRANCH  14  17
ENDBRANCH  13  14
ENDBRANCH  12  13
ENDBRANCH  11  12
ENDBRANCH   1  11
BRANCH   6  25
HETATM   25  O   UNL     1      45.011 -20.919   2.699  1.00  0.00    -0.355 OA
HETATM   26  C   UNL     1      44.397 -22.204   2.778  1.00  0.00     0.210 C 
ENDBRANCH   6  25
BRANCH   8  27
HETATM   27  O   UNL     1      44.821 -18.576   7.002  1.00  0.00    -0.356 OA
HETATM   28  C   UNL     1      43.810 -18.180   7.921  1.00  0.00     0.210 C 
ENDBRANCH   8  27
TORSDOF 8
ENDMDL
MODEL 3
REMARK VINA RESULT:      -7.3      4.258      8.725
REMARK  8 active torsions:
REMARK  status: ('A' for Active; 'I' for Inactive)
REMARK    1  A    between atoms: C_4  and  C_5 
REMARK    2  A    between atoms: C_5  and  N_6 
REMARK    3  A    between atoms: N_6  and  C_9 
REMARK    4  A    between atoms: C_9  and  C_10 
REMARK    5  A    between atoms: C_10  and  C_11 
REMARK    6  A    between atoms: C_11  and  C_12 
REMARK    7  A    between atoms: C_17  and  O_18 
REMARK    8  A    between atoms: C_21  and  O_22 
ROOT
HETATM    1  C   UNL     1      41.064 -15.395   3.956  1.00  0.00     0.010 C 
HETATM    2  N   UNL     1      41.830 -14.315   4.329  1.00  0.00    -0.359 N 
HETATM    3  H   UNL     1      41.860 -13.418   3.863  1.00  0.00     0.166 HD
HETATM    4  C   UNL     1      42.622 -14.647   5.405  1.00  0.00     0.048 A 
HETATM    5  C   UNL     1      42.259 -15.929   5.811  1.00  0.00     0.026 A 
HETATM    6  C   UNL     1      42.907 -16.509   6.922  1.00  0.00     0.083 A 
HETATM    7  C   UNL     1      43.937 -15.793   7.556  1.00  0.00     0.074 A 
HETATM    8  C   UNL     1      44.290 -14.511   7.126  1.00  0.00     0.073 A 
HETATM    9  C   UNL     1      43.621 -13.913   6.051  1.00  0.00     0.067 A 
HETATM   10  C   UNL     1      41.244 -16.371   4.915  1.00  0.00     0.041 C 
ENDROOT
BRANCH   1  11
HETATM   11  C   UNL     1      40.246 -15.406   2.711  1.00  0.00     0.059 C 
BRANCH  11  12
HETATM   12  C   UNL     1      40.123 -16.827   2.143  1.00  0.00     0.033 C 
BRANCH  12  13
HETATM   13  C   UNL     1      41.110 -17.091   1.006  1.00  0.00     0.233 C 
BRANCH  13  14
HETATM   14  N   UNL     1      42.011 -18.216   1.399  1.00  0.00    -0.067 N 
HETATM   15  H   UNL     1      42.362 -18.697   0.559  1.00  0.00     0.277 HD
HETATM   16  H   UNL     1      41.467 -18.922   1.911  1.00  0.00     0.277 HD
BRANCH  14  17
HETATM   17  C   UNL     1      43.200 -17.857   2.249  1.00  0.00     0.223 C 
HETATM   18  C   UNL     1      44.277 -17.188   1.396  1.00  0.00     0.046 C 
BRANCH  17  19
HETATM   19  C   UNL     1      43.738 -19.069   2.946  1.00  0.00     0.032 A 
HETATM   20  S   UNL     1      43.740 -20.626   2.214  1.00  0.00    -0.076 SA
HETATM   21  C   UNL     1      44.473 -21.285   3.622  1.00  0.00     0.071 A 
HETATM   22  C   UNL     1      44.806 -22.735   3.691  1.00  0.00     0.078 C 
HETATM   23  N   UNL     1      44.702 -20.420   4.585  1.00  0.00    -0.257 NA
HETATM   24  C   UNL     1      44.304 -19.159   4.202  1.00  0.00     0.134 A 
ENDBRANCH  17  19
ENDBRANCH  14  17
ENDBRANCH  13  14
ENDBRANCH  12  13
ENDBRANCH  11  12
ENDBRANCH   1  11
BRANCH   6  25
HETATM   25  O   UNL     1      42.547 -17.785   7.280  1.00  0.00    -0.355 OA
HETATM   26  C   UNL     1      43.631 -18.602   7.717  1.00  0.00     0.210 C 
ENDBRANCH   6  25
BRANCH   8  27
HETATM   27  O   UNL     1      45.281 -13.732   7.662  1.00  0.00    -0.356 OA
HETATM   28  C   UNL     1      44.886 -12.705   8.564  1.00  0.00     0.210 C 
ENDBRANCH   8  27
TORSDOF 8
ENDMDL
MODEL 4
REMARK VINA RESULT:      -7.3      3.961      5.895
REMARK  8 active torsions:
REMARK  status: ('A' for Active; 'I' for Inactive)
REMARK    1  A    between atoms: C_4  and  C_5 
REMARK    2  A    between atoms: C_5  and  N_6 
REMARK    3  A    between atoms: N_6  and  C_9 
REMARK    4  A    between atoms: C_9  and  C_10 
REMARK    5  A    between atoms: C_10  and  C_11 
REMARK    6  A    between atoms: C_11  and  C_12 
REMARK    7  A    between atoms: C_17  and  O_18 
REMARK    8  A    between atoms: C_21  and  O_22 
ROOT
HETATM    1  C   UNL     1      43.060 -17.283   2.545  1.00  0.00     0.010 C 
HETATM    2  N   UNL     1      43.830 -18.411   2.380  1.00  0.00    -0.359 N 
HETATM    3  H   UNL     1      44.204 -18.753   1.504  1.00  0.00     0.166 HD
HETATM    4  C   UNL     1      43.971 -19.067   3.582  1.00  0.00     0.048 A 
HETATM    5  C   UNL     1      43.385 -18.271   4.563  1.00  0.00     0.026 A 
HETATM    6  C   UNL     1      43.410 -18.703   5.905  1.00  0.00     0.083 A 
HETATM    7  C   UNL     1      43.983 -19.951   6.206  1.00  0.00     0.074 A 
HETATM    8  C   UNL     1      44.557 -20.736   5.204  1.00  0.00     0.073 A 
HETATM    9  C   UNL     1      44.573 -20.294   3.875  1.00  0.00     0.067 A 
HETATM   10  C   UNL     1      42.854 -17.128   3.900  1.00  0.00     0.041 C 
ENDROOT
BRANCH   1  11
HETATM   11  C   UNL     1      42.574 -16.469   1.396  1.00  0.00     0.059 C 
BRANCH  11  12
HETATM   12  C   UNL     1      41.081 -16.714   1.136  1.00  0.00     0.033 C 
BRANCH  12  13
HETATM   13  C   UNL     1      40.239 -15.453   1.327  1.00  0.00     0.233 C 
BRANCH  13  14
HETATM   14  N   UNL     1      39.890 -15.317   2.774  1.00  0.00    -0.067 N 
HETATM   15  H   UNL     1      40.426 -15.996   3.332  1.00  0.00     0.277 HD
HETATM   16  H   UNL     1      38.903 -15.571   2.908  1.00  0.00     0.277 HD
BRANCH  14  17
HETATM   17  C   UNL     1      40.096 -13.958   3.388  1.00  0.00     0.223 C 
HETATM   18  C   UNL     1      39.904 -12.868   2.335  1.00  0.00     0.046 C 
BRANCH  17  19
HETATM   19  C   UNL     1      41.449 -13.864   4.024  1.00  0.00     0.032 A 
HETATM   20  S   UNL     1      41.720 -14.263   5.676  1.00  0.00    -0.076 SA
HETATM   21  C   UNL     1      43.386 -13.886   5.492  1.00  0.00     0.071 A 
HETATM   22  C   UNL     1      44.323 -14.028   6.641  1.00  0.00     0.078 C 
HETATM   23  N   UNL     1      43.735 -13.482   4.291  1.00  0.00    -0.257 NA
HETATM   24  C   UNL     1      42.646 -13.483   3.449  1.00  0.00     0.134 A 
ENDBRANCH  17  19
ENDBRANCH  14  17
ENDBRANCH  13  14
ENDBRANCH  12  13
ENDBRANCH  11  12
ENDBRANCH   1  11
BRANCH   6  25
HETATM   25  O   UNL     1      42.800 -17.910   6.846  1.00  0.00    -0.355 OA
HETATM   26  C   UNL     1      43.588 -17.663   8.009  1.00  0.00     0.210 C 
ENDBRANCH   6  25
BRANCH   8  27
HETATM   27  O   UNL     1      45.131 -21.968   5.382  1.00  0.00    -0.356 OA
HETATM   28  C   UNL     1      44.841 -22.968   4.412  1.00  0.00     0.210 C 
ENDBRANCH   8  27
TORSDOF 8
ENDMDL
MODEL 5
REMARK VINA RESULT:      -7.3      5.630      9.273
REMARK  8 active torsions:
REMARK  status: ('A' for Active; 'I' for Inactive)
REMARK    1  A    between atoms: C_4  and  C_5 
REMARK    2  A    between atoms: C_5  and  N_6 
REMARK    3  A    between atoms: N_6  and  C_9 
REMARK    4  A    between atoms: C_9  and  C_10 
REMARK    5  A    between atoms: C_10  and  C_11 
REMARK    6  A    between atoms: C_11  and  C_12 
REMARK    7  A    between atoms: C_17  and  O_18 
REMARK    8  A    between atoms: C_21  and  O_22 
ROOT
HETATM    1  C   UNL     1      42.027 -17.799   1.856  1.00  0.00     0.010 C 
HETATM    2  N   UNL     1      41.863 -17.456   3.178  1.00  0.00    -0.359 N 
HETATM    3  H   UNL     1      41.227 -16.756   3.537  1.00  0.00     0.166 HD
HETATM    4  C   UNL     1      42.749 -18.160   3.961  1.00  0.00     0.048 A 
HETATM    5  C   UNL     1      43.407 -19.068   3.135  1.00  0.00     0.026 A 
HETATM    6  C   UNL     1      44.364 -19.940   3.695  1.00  0.00     0.083 A 
HETATM    7  C   UNL     1      44.662 -19.831   5.065  1.00  0.00     0.074 A 
HETATM    8  C   UNL     1      43.996 -18.906   5.872  1.00  0.00     0.073 A 
HETATM    9  C   UNL     1      43.015 -18.066   5.331  1.00  0.00     0.067 A 
HETATM   10  C   UNL     1      42.908 -18.859   1.818  1.00  0.00     0.041 C 
ENDROOT
BRANCH   1  11
HETATM   11  C   UNL     1      41.344 -17.071   0.749  1.00  0.00     0.059 C 
BRANCH  11  12
HETATM   12  C   UNL     1      40.829 -15.704   1.221  1.00  0.00     0.033 C 
BRANCH  12  13
HETATM   13  C   UNL     1      41.885 -14.606   1.096  1.00  0.00     0.233 C 
BRANCH  13  14
HETATM   14  N   UNL     1      41.371 -13.541   0.183  1.00  0.00    -0.067 N 
HETATM   15  H   UNL     1      41.561 -12.611   0.583  1.00  0.00     0.277 HD
HETATM   16  H   UNL     1      40.347 -13.610   0.125  1.00  0.00     0.277 HD
BRANCH  14  17
HETATM   17  C   UNL     1      41.906 -13.550  -1.225  1.00  0.00     0.223 C 
HETATM   18  C   UNL     1      42.250 -12.128  -1.668  1.00  0.00     0.046 C 
BRANCH  17  19
HETATM   19  C   UNL     1      40.923 -14.185  -2.160  1.00  0.00     0.032 A 
HETATM   20  S   UNL     1      39.230 -13.889  -2.056  1.00  0.00    -0.076 SA
HETATM   21  C   UNL     1      38.967 -14.935  -3.394  1.00  0.00     0.071 A 
HETATM   22  C   UNL     1      37.590 -15.167  -3.911  1.00  0.00     0.078 C 
HETATM   23  N   UNL     1      40.054 -15.482  -3.892  1.00  0.00    -0.257 NA
HETATM   24  C   UNL     1      41.167 -15.049  -3.209  1.00  0.00     0.134 A 
ENDBRANCH  17  19
ENDBRANCH  14  17
ENDBRANCH  13  14
ENDBRANCH  12  13
ENDBRANCH  11  12
ENDBRANCH   1  11
BRANCH   6  25
HETATM   25  O   UNL     1      45.015 -20.806   2.850  1.00  0.00    -0.355 OA
HETATM   26  C   UNL     1      44.430 -22.105   2.774  1.00  0.00     0.210 C 
ENDBRANCH   6  25
BRANCH   8  27
HETATM   27  O   UNL     1      44.215 -18.708   7.210  1.00  0.00    -0.356 OA
HETATM   28  C   UNL     1      43.364 -17.785   7.880  1.00  0.00     0.210 C 
ENDBRANCH   8  27
TORSDOF 8
ENDMDL
MODEL 6
REMARK VINA RESULT:      -7.1      5.863      8.981
REMARK  8 active torsions:
REMARK  status: ('A' for Active; 'I' for Inactive)
REMARK    1  A    between atoms: C_4  and  C_5 
REMARK    2  A    between atoms: C_5  and  N_6 
REMARK    3  A    between atoms: N_6  and  C_9 
REMARK    4  A    between atoms: C_9  and  C_10 
REMARK    5  A    between atoms: C_10  and  C_11 
REMARK    6  A    between atoms: C_11  and  C_12 
REMARK    7  A    between atoms: C_17  and  O_18 
REMARK    8  A    between atoms: C_21  and  O_22 
ROOT
HETATM    1  C   UNL     1      40.959 -16.577   2.484  1.00  0.00     0.010 C 
HETATM    2  N   UNL     1      41.691 -17.386   1.646  1.00  0.00    -0.359 N 
HETATM    3  H   UNL     1      41.605 -17.431   0.639  1.00  0.00     0.166 HD
HETATM    4  C   UNL     1      42.527 -18.195   2.382  1.00  0.00     0.048 A 
HETATM    5  C   UNL     1      42.420 -17.803   3.714  1.00  0.00     0.026 A 
HETATM    6  C   UNL     1      43.198 -18.462   4.689  1.00  0.00     0.083 A 
HETATM    7  C   UNL     1      44.022 -19.530   4.292  1.00  0.00     0.074 A 
HETATM    8  C   UNL     1      44.106 -19.911   2.951  1.00  0.00     0.073 A 
HETATM    9  C   UNL     1      43.368 -19.233   1.972  1.00  0.00     0.067 A 
HETATM   10  C   UNL     1      41.461 -16.752   3.757  1.00  0.00     0.041 C 
ENDROOT
BRANCH   1  11
HETATM   11  C   UNL     1      39.835 -15.728   1.998  1.00  0.00     0.059 C 
BRANCH  11  12
HETATM   12  C   UNL     1      40.124 -14.239   2.239  1.00  0.00     0.033 C 
BRANCH  12  13
HETATM   13  C   UNL     1      41.396 -13.768   1.535  1.00  0.00     0.233 C 
BRANCH  13  14
HETATM   14  N   UNL     1      41.021 -13.091   0.257  1.00  0.00    -0.067 N 
HETATM   15  H   UNL     1      41.076 -12.069   0.369  1.00  0.00     0.277 HD
HETATM   16  H   UNL     1      40.035 -13.290   0.046  1.00  0.00     0.277 HD
BRANCH  14  17
HETATM   17  C   UNL     1      41.828 -13.461  -0.959  1.00  0.00     0.223 C 
HETATM   18  C   UNL     1      42.543 -12.230  -1.514  1.00  0.00     0.046 C 
BRANCH  17  19
HETATM   19  C   UNL     1      40.957 -14.095  -2.000  1.00  0.00     0.032 A 
HETATM   20  S   UNL     1      39.238 -14.033  -1.922  1.00  0.00    -0.076 SA
HETATM   21  C   UNL     1      39.142 -14.929  -3.386  1.00  0.00     0.071 A 
HETATM   22  C   UNL     1      37.819 -15.268  -3.978  1.00  0.00     0.078 C 
HETATM   23  N   UNL     1      40.301 -15.266  -3.908  1.00  0.00    -0.257 NA
HETATM   24  C   UNL     1      41.334 -14.782  -3.137  1.00  0.00     0.134 A 
ENDBRANCH  17  19
ENDBRANCH  14  17
ENDBRANCH  13  14
ENDBRANCH  12  13
ENDBRANCH  11  12
ENDBRANCH   1  11
BRANCH   6  25
HETATM   25  O   UNL     1      43.051 -18.072   5.998  1.00  0.00    -0.355 OA
HETATM   26  C   UNL     1      44.136 -17.298   6.507  1.00  0.00     0.210 C 
ENDBRANCH   6  25
BRANCH   8  27
HETATM   27  O   UNL     1      44.865 -20.939   2.456  1.00  0.00    -0.356 OA
HETATM   28  C   UNL     1      44.198 -21.924   1.677  1.00  0.00     0.210 C 
ENDBRANCH   8  27
TORSDOF 8
ENDMDL
MODEL 7
REMARK VINA RESULT:      -7.0      5.242      7.292
REMARK  8 active torsions:
REMARK  status: ('A' for Active; 'I' for Inactive)
REMARK    1  A    between atoms: C_4  and  C_5 
REMARK    2  A    between atoms: C_5  and  N_6 
REMARK    3  A    between atoms: N_6  and  C_9 
REMARK    4  A    between atoms: C_9  and  C_10 
REMARK    5  A    between atoms: C_10  and  C_11 
REMARK    6  A    between atoms: C_11  and  C_12 
REMARK    7  A    between atoms: C_17  and  O_18 
REMARK    8  A    between atoms: C_21  and  O_22 
ROOT
HETATM    1  C   UNL     1      41.909 -17.493   1.570  1.00  0.00     0.010 C 
HETATM    2  N   UNL     1      40.769 -17.056   2.204  1.00  0.00    -0.359 N 
HETATM    3  H   UNL     1      40.325 -17.496   3.000  1.00  0.00     0.166 HD
HETATM    4  C   UNL     1      40.262 -15.953   1.556  1.00  0.00     0.048 A 
HETATM    5  C   UNL     1      41.169 -15.600   0.560  1.00  0.00     0.026 A 
HETATM    6  C   UNL     1      40.900 -14.475  -0.248  1.00  0.00     0.083 A 
HETATM    7  C   UNL     1      39.697 -13.775  -0.058  1.00  0.00     0.074 A 
HETATM    8  C   UNL     1      38.797 -14.153   0.941  1.00  0.00     0.073 A 
HETATM    9  C   UNL     1      39.078 -15.243   1.776  1.00  0.00     0.067 A 
HETATM   10  C   UNL     1      42.225 -16.553   0.611  1.00  0.00     0.041 C 
ENDROOT
BRANCH   1  11
HETATM   11  C   UNL     1      42.581 -18.775   1.923  1.00  0.00     0.059 C 
BRANCH  11  12
HETATM   12  C   UNL     1      43.808 -18.530   2.812  1.00  0.00     0.033 C 
BRANCH  12  13
HETATM   13  C   UNL     1      43.452 -18.468   4.297  1.00  0.00     0.233 C 
BRANCH  13  14
HETATM   14  N   UNL     1      43.923 -17.164   4.855  1.00  0.00    -0.067 N 
HETATM   15  H   UNL     1      44.457 -16.648   4.142  1.00  0.00     0.277 HD
HETATM   16  H   UNL     1      44.587 -17.343   5.619  1.00  0.00     0.277 HD
BRANCH  14  17
HETATM   17  C   UNL     1      42.859 -16.240   5.386  1.00  0.00     0.223 C 
HETATM   18  C   UNL     1      41.546 -16.998   5.573  1.00  0.00     0.046 C 
BRANCH  17  19
HETATM   19  C   UNL     1      42.679 -15.062   4.478  1.00  0.00     0.032 A 
HETATM   20  S   UNL     1      41.317 -14.015   4.588  1.00  0.00    -0.076 SA
HETATM   21  C   UNL     1      41.936 -13.077   3.287  1.00  0.00     0.071 A 
HETATM   22  C   UNL     1      41.198 -11.878   2.804  1.00  0.00     0.078 C 
HETATM   23  N   UNL     1      43.075 -13.504   2.788  1.00  0.00    -0.257 NA
HETATM   24  C   UNL     1      43.510 -14.618   3.468  1.00  0.00     0.134 A 
ENDBRANCH  17  19
ENDBRANCH  14  17
ENDBRANCH  13  14
ENDBRANCH  12  13
ENDBRANCH  11  12
ENDBRANCH   1  11
BRANCH   6  25
HETATM   25  O   UNL     1      41.801 -14.168  -1.239  1.00  0.00    -0.355 OA
HETATM   26  C   UNL     1      41.216 -13.968  -2.525  1.00  0.00     0.210 C 
ENDBRANCH   6  25
BRANCH   8  27
HETATM   27  O   UNL     1      37.595 -13.551   1.207  1.00  0.00    -0.356 OA
HETATM   28  C   UNL     1      37.189 -12.499   0.340  1.00  0.00     0.210 C 
ENDBRANCH   8  27
TORSDOF 8
ENDMDL
MODEL 8
REMARK VINA RESULT:      -6.9      5.568      8.666
REMARK  8 active torsions:
REMARK  status: ('A' for Active; 'I' for Inactive)
REMARK    1  A    between atoms: C_4  and  C_5 
REMARK    2  A    between atoms: C_5  and  N_6 
REMARK    3  A    between atoms: N_6  and  C_9 
REMARK    4  A    between atoms: C_9  and  C_10 
REMARK    5  A    between atoms: C_10  and  C_11 
REMARK    6  A    between atoms: C_11  and  C_12 
REMARK    7  A    between atoms: C_17  and  O_18 
REMARK    8  A    between atoms: C_21  and  O_22 
ROOT
HETATM    1  C   UNL     1      41.772 -17.467   2.242  1.00  0.00     0.010 C 
HETATM    2  N   UNL     1      41.710 -17.355   3.612  1.00  0.00    -0.359 N 
HETATM    3  H   UNL     1      41.111 -16.725   4.130  1.00  0.00     0.166 HD
HETATM    4  C   UNL     1      42.641 -18.183   4.196  1.00  0.00     0.048 A 
HETATM    5  C   UNL     1      43.224 -18.938   3.181  1.00  0.00     0.026 A 
HETATM    6  C   UNL     1      44.206 -19.894   3.512  1.00  0.00     0.083 A 
HETATM    7  C   UNL     1      44.604 -20.021   4.854  1.00  0.00     0.074 A 
HETATM    8  C   UNL     1      44.012 -19.247   5.854  1.00  0.00     0.073 A 
HETATM    9  C   UNL     1      43.006 -18.326   5.538  1.00  0.00     0.067 A 
HETATM   10  C   UNL     1      42.634 -18.506   1.959  1.00  0.00     0.041 C 
ENDROOT
BRANCH   1  11
HETATM   11  C   UNL     1      41.022 -16.560   1.329  1.00  0.00     0.059 C 
BRANCH  11  12
HETATM   12  C   UNL     1      40.407 -15.383   2.100  1.00  0.00     0.033 C 
BRANCH  12  13
HETATM   13  C   UNL     1      39.385 -14.608   1.269  1.00  0.00     0.233 C 
BRANCH  13  14
HETATM   14  N   UNL     1      39.634 -14.877  -0.180  1.00  0.00    -0.067 N 
HETATM   15  H   UNL     1      39.032 -15.646  -0.505  1.00  0.00     0.277 HD
HETATM   16  H   UNL     1      40.598 -15.213  -0.300  1.00  0.00     0.277 HD
BRANCH  14  17
HETATM   17  C   UNL     1      39.439 -13.716  -1.119  1.00  0.00     0.223 C 
HETATM   18  C   UNL     1      38.825 -14.198  -2.433  1.00  0.00     0.046 C 
BRANCH  17  19
HETATM   19  C   UNL     1      40.735 -13.005  -1.357  1.00  0.00     0.032 A 
HETATM   20  S   UNL     1      41.019 -11.400  -0.804  1.00  0.00    -0.076 SA
HETATM   21  C   UNL     1      42.601 -11.450  -1.474  1.00  0.00     0.071 A 
HETATM   22  C   UNL     1      43.511 -10.279  -1.347  1.00  0.00     0.078 C 
HETATM   23  N   UNL     1      42.911 -12.575  -2.079  1.00  0.00    -0.257 NA
HETATM   24  C   UNL     1      41.865 -13.467  -2.002  1.00  0.00     0.134 A 
ENDBRANCH  17  19
ENDBRANCH  14  17
ENDBRANCH  13  14
ENDBRANCH  12  13
ENDBRANCH  11  12
ENDBRANCH   1  11
BRANCH   6  25
HETATM   25  O   UNL     1      44.782 -20.604   2.487  1.00  0.00    -0.355 OA
HETATM   26  C   UNL     1      44.456 -21.993   2.476  1.00  0.00     0.210 C 
ENDBRANCH   6  25
BRANCH   8  27
HETATM   27  O   UNL     1      44.330 -19.281   7.187  1.00  0.00    -0.356 OA
HETATM   28  C   UNL     1      43.811 -18.240   8.007  1.00  0.00     0.210 C 
ENDBRANCH   8  27
TORSDOF 8
ENDMDL
MODEL 9
REMARK VINA RESULT:      -6.9      5.488     10.176
REMARK  8 active torsions:
REMARK  status: ('A' for Active; 'I' for Inactive)
REMARK    1  A    between atoms: C_4  and  C_5 
REMARK    2  A    between atoms: C_5  and  N_6 
REMARK    3  A    between atoms: N_6  and  C_9 
REMARK    4  A    between atoms: C_9  and  C_10 
REMARK    5  A    between atoms: C_10  and  C_11 
REMARK    6  A    between atoms: C_11  and  C_12 
REMARK    7  A    between atoms: C_17  and  O_18 
REMARK    8  A    between atoms: C_21  and  O_22 
ROOT
HETATM    1  C   UNL     1      41.281 -16.906   3.081  1.00  0.00     0.010 C 
HETATM    2  N   UNL     1      41.344 -15.838   3.945  1.00  0.00    -0.359 N 
HETATM    3  H   UNL     1      40.791 -14.992   3.886  1.00  0.00     0.166 HD
HETATM    4  C   UNL     1      42.329 -16.047   4.883  1.00  0.00     0.048 A 
HETATM    5  C   UNL     1      42.821 -17.336   4.692  1.00  0.00     0.026 A 
HETATM    6  C   UNL     1      43.836 -17.819   5.545  1.00  0.00     0.083 A 
HETATM    7  C   UNL     1      44.356 -16.964   6.532  1.00  0.00     0.074 A 
HETATM    8  C   UNL     1      43.853 -15.671   6.699  1.00  0.00     0.073 A 
HETATM    9  C   UNL     1      42.817 -15.201   5.883  1.00  0.00     0.067 A 
HETATM   10  C   UNL     1      42.119 -17.882   3.580  1.00  0.00     0.041 C 
ENDROOT
BRANCH   1  11
HETATM   11  C   UNL     1      40.444 -16.892   1.848  1.00  0.00     0.059 C 
BRANCH  11  12
HETATM   12  C   UNL     1      41.318 -16.826   0.587  1.00  0.00     0.033 C 
BRANCH  12  13
HETATM   13  C   UNL     1      41.183 -15.493  -0.149  1.00  0.00     0.233 C 
BRANCH  13  14
HETATM   14  N   UNL     1      41.501 -15.703  -1.594  1.00  0.00    -0.067 N 
HETATM   15  H   UNL     1      41.039 -16.557  -1.937  1.00  0.00     0.277 HD
HETATM   16  H   UNL     1      42.509 -15.878  -1.696  1.00  0.00     0.277 HD
BRANCH  14  17
HETATM   17  C   UNL     1      41.138 -14.581  -2.530  1.00  0.00     0.223 C 
HETATM   18  C   UNL     1      41.122 -13.251  -1.778  1.00  0.00     0.046 C 
BRANCH  17  19
HETATM   19  C   UNL     1      39.818 -14.846  -3.187  1.00  0.00     0.032 A 
HETATM   20  S   UNL     1      38.561 -13.670  -3.234  1.00  0.00    -0.076 SA
HETATM   21  C   UNL     1      37.566 -14.772  -4.100  1.00  0.00     0.071 A 
HETATM   22  C   UNL     1      36.195 -14.376  -4.525  1.00  0.00     0.078 C 
HETATM   23  N   UNL     1      38.113 -15.943  -4.341  1.00  0.00    -0.257 NA
HETATM   24  C   UNL     1      39.395 -15.986  -3.841  1.00  0.00     0.134 A 
ENDBRANCH  17  19
ENDBRANCH  14  17
ENDBRANCH  13  14
ENDBRANCH  12  13
ENDBRANCH  11  12
ENDBRANCH   1  11
BRANCH   6  25
HETATM   25  O   UNL     1      44.319 -19.084   5.314  1.00  0.00    -0.355 OA
HETATM   26  C   UNL     1      43.992 -20.033   6.327  1.00  0.00     0.210 C 
ENDBRANCH   6  25
BRANCH   8  27
HETATM   27  O   UNL     1      44.292 -14.754   7.617  1.00  0.00    -0.356 OA
HETATM   28  C   UNL     1      45.293 -13.837   7.194  1.00  0.00     0.210 C 
ENDBRANCH   8  27
TORSDOF 8
ENDMDL
MODEL 10
REMARK VINA RESULT:      -6.9      5.874      8.566
REMARK  8 active torsions:
REMARK  status: ('A' for Active; 'I' for Inactive)
REMARK    1  A    between atoms: C_4  and  C_5 
REMARK    2  A    between atoms: C_5  and  N_6 
REMARK    3  A    between atoms: N_6  and  C_9 
REMARK    4  A    between atoms: C_9  and  C_10 
REMARK    5  A    between atoms: C_10  and  C_11 
REMARK    6  A    between atoms: C_11  and  C_12 
REMARK    7  A    between atoms: C_17  and  O_18 
REMARK    8  A    between atoms: C_21  and  O_22 
ROOT
HETATM    1  C   UNL     1      42.918 -15.678   2.803  1.00  0.00     0.010 C 
HETATM    2  N   UNL     1      43.358 -16.633   1.917  1.00  0.00    -0.359 N 
HETATM    3  H   UNL     1      43.372 -16.548   0.909  1.00  0.00     0.166 HD
HETATM    4  C   UNL     1      43.720 -17.775   2.596  1.00  0.00     0.048 A 
HETATM    5  C   UNL     1      43.632 -17.497   3.958  1.00  0.00     0.026 A 
HETATM    6  C   UNL     1      43.975 -18.500   4.888  1.00  0.00     0.083 A 
HETATM    7  C   UNL     1      44.348 -19.769   4.412  1.00  0.00     0.074 A 
HETATM    8  C   UNL     1      44.420 -20.027   3.041  1.00  0.00     0.073 A 
HETATM    9  C   UNL     1      44.122 -19.023   2.112  1.00  0.00     0.067 A 
HETATM   10  C   UNL     1      43.168 -16.156   4.073  1.00  0.00     0.041 C 
ENDROOT
BRANCH   1  11
HETATM   11  C   UNL     1      42.282 -14.405   2.359  1.00  0.00     0.059 C 
BRANCH  11  12
HETATM   12  C   UNL     1      40.837 -14.302   2.867  1.00  0.00     0.033 C 
BRANCH  12  13
HETATM   13  C   UNL     1      39.993 -15.517   2.481  1.00  0.00     0.233 C 
BRANCH  13  14
HETATM   14  N   UNL     1      39.593 -15.394   1.047  1.00  0.00    -0.067 N 
HETATM   15  H   UNL     1      38.908 -16.124   0.808  1.00  0.00     0.277 HD
HETATM   16  H   UNL     1      40.411 -15.581   0.452  1.00  0.00     0.277 HD
BRANCH  14  17
HETATM   17  C   UNL     1      39.017 -14.070   0.622  1.00  0.00     0.223 C 
HETATM   18  C   UNL     1      37.492 -14.103   0.719  1.00  0.00     0.046 C 
BRANCH  17  19
HETATM   19  C   UNL     1      39.463 -13.718  -0.763  1.00  0.00     0.032 A 
HETATM   20  S   UNL     1      40.989 -12.988  -1.081  1.00  0.00    -0.076 SA
HETATM   21  C   UNL     1      40.631 -12.975  -2.762  1.00  0.00     0.071 A 
HETATM   22  C   UNL     1      41.616 -12.435  -3.739  1.00  0.00     0.078 C 
HETATM   23  N   UNL     1      39.457 -13.471  -3.083  1.00  0.00    -0.257 NA
HETATM   24  C   UNL     1      38.796 -13.909  -1.958  1.00  0.00     0.134 A 
ENDBRANCH  17  19
ENDBRANCH  14  17
ENDBRANCH  13  14
ENDBRANCH  12  13
ENDBRANCH  11  12
ENDBRANCH   1  11
BRANCH   6  25
HETATM   25  O   UNL     1      43.852 -18.204   6.224  1.00  0.00    -0.355 OA
HETATM   26  C   UNL     1      45.093 -18.056   6.911  1.00  0.00     0.210 C 
ENDBRANCH   6  25
BRANCH   8  27
HETATM   27  O   UNL     1      44.760 -21.225   2.469  1.00  0.00    -0.356 OA
HETATM   28  C   UNL     1      43.804 -21.829   1.607  1.00  0.00     0.210 C 
ENDBRANCH   8  27
TORSDOF 8
ENDMDL
