MODEL 1
REMARK VINA RESULT:      -8.5      0.000      0.000
REMARK  2 active torsions:
REMARK  status: ('A' for Active; 'I' for Inactive)
REMARK    1  A    between atoms: C_9  and  O_10 
REMARK    2  A    between atoms: C_9  and  C_11 
ROOT
HETATM    1  C   UNL     1      44.257 -19.354   2.269  1.00  0.00     0.048 C 
HETATM    2  C   UNL     1      44.151 -19.260   3.764  1.00  0.00    -0.061 A 
HETATM    3  C   UNL     1      43.920 -18.024   4.385  1.00  0.00     0.020 A 
HETATM    4  C   UNL     1      43.805 -17.984   5.769  1.00  0.00     0.018 A 
HETATM    5  C   UNL     1      43.940 -19.153   6.518  1.00  0.00     0.045 A 
HETATM    6  N   UNL     1      43.810 -18.883   7.871  1.00  0.00    -0.323 N 
HETATM    7  C   UNL     1      43.578 -17.525   8.101  1.00  0.00     0.266 A 
HETATM    8  O   UNL     1      43.449 -17.032   9.211  1.00  0.00    -0.269 OA
HETATM    9  C   UNL     1      43.574 -16.808   6.696  1.00  0.00     0.198 A 
HETATM   10  C   UNL     1      44.179 -20.382   5.940  1.00  0.00     0.031 A 
HETATM   11  C   UNL     1      44.283 -20.428   4.547  1.00  0.00     0.009 A 
HETATM   12  H   UNL     1      43.866 -19.557   8.619  1.00  0.00     0.169 HD
ENDROOT
BRANCH   9  13
HETATM   13  O   UNL     1      44.645 -15.883   6.579  1.00  0.00    -0.371 OA
HETATM   14  H   UNL     1      45.457 -16.409   6.509  1.00  0.00     0.212 HD
ENDBRANCH   9  13
BRANCH   9  15
HETATM   15  C   UNL     1      42.224 -16.241   6.329  1.00  0.00     0.018 A 
HETATM   16  C   UNL     1      41.956 -14.984   5.676  1.00  0.00     0.002 A 
HETATM   17  C   UNL     1      40.573 -14.872   5.516  1.00  0.00     0.043 A 
HETATM   18  C   UNL     1      42.763 -13.928   5.197  1.00  0.00     0.014 A 
HETATM   19  C   UNL     1      39.963 -13.766   4.911  1.00  0.00     0.030 A 
HETATM   20  N   UNL     1      40.012 -16.004   6.052  1.00  0.00    -0.365 N 
HETATM   21  C   UNL     1      40.788 -12.738   4.449  1.00  0.00     0.002 A 
HETATM   22  C   UNL     1      42.170 -12.815   4.589  1.00  0.00     0.001 A 
HETATM   23  H   UNL     1      39.019 -16.191   6.082  1.00  0.00     0.165 HD
HETATM   24  C   UNL     1      40.985 -16.834   6.534  1.00  0.00     0.100 A 
ENDBRANCH   9  15
TORSDOF 2
ENDMDL
MODEL 2
REMARK VINA RESULT:      -8.4      2.905      4.326
REMARK  2 active torsions:
REMARK  status: ('A' for Active; 'I' for Inactive)
REMARK    1  A    between atoms: C_9  and  O_10 
REMARK    2  A    between atoms: C_9  and  C_11 
ROOT
HETATM    1  C   UNL     1      45.230 -20.526   4.697  1.00  0.00     0.048 C 
HETATM    2  C   UNL     1      44.251 -19.846   3.783  1.00  0.00    -0.061 A 
HETATM    3  C   UNL     1      43.476 -18.772   4.243  1.00  0.00     0.020 A 
HETATM    4  C   UNL     1      42.599 -18.156   3.359  1.00  0.00     0.018 A 
HETATM    5  C   UNL     1      42.485 -18.619   2.048  1.00  0.00     0.045 A 
HETATM    6  N   UNL     1      41.545 -17.877   1.349  1.00  0.00    -0.323 N 
HETATM    7  C   UNL     1      40.984 -16.880   2.150  1.00  0.00     0.266 A 
HETATM    8  O   UNL     1      40.116 -16.107   1.772  1.00  0.00    -0.269 OA
HETATM    9  C   UNL     1      41.641 -17.003   3.578  1.00  0.00     0.198 A 
HETATM   10  C   UNL     1      43.224 -19.678   1.567  1.00  0.00     0.031 A 
HETATM   11  C   UNL     1      44.116 -20.293   2.449  1.00  0.00     0.009 A 
HETATM   12  H   UNL     1      41.280 -18.010   0.386  1.00  0.00     0.169 HD
ENDROOT
BRANCH   9  13
HETATM   13  O   UNL     1      40.682 -17.351   4.566  1.00  0.00    -0.371 OA
HETATM   14  H   UNL     1      40.301 -16.518   4.885  1.00  0.00     0.212 HD
ENDBRANCH   9  13
BRANCH   9  15
HETATM   15  C   UNL     1      42.493 -15.810   3.937  1.00  0.00     0.018 A 
HETATM   16  C   UNL     1      43.099 -15.525   5.215  1.00  0.00     0.002 A 
HETATM   17  C   UNL     1      43.813 -14.331   5.093  1.00  0.00     0.043 A 
HETATM   18  C   UNL     1      43.111 -16.175   6.469  1.00  0.00     0.014 A 
HETATM   19  C   UNL     1      44.530 -13.759   6.152  1.00  0.00     0.030 A 
HETATM   20  N   UNL     1      43.652 -13.895   3.802  1.00  0.00    -0.365 N 
HETATM   21  C   UNL     1      44.521 -14.427   7.379  1.00  0.00     0.002 A 
HETATM   22  C   UNL     1      43.822 -15.619   7.538  1.00  0.00     0.001 A 
HETATM   23  H   UNL     1      44.055 -13.045   3.431  1.00  0.00     0.165 HD
HETATM   24  C   UNL     1      42.873 -14.771   3.098  1.00  0.00     0.100 A 
ENDBRANCH   9  15
TORSDOF 2
ENDMDL
MODEL 3
REMARK VINA RESULT:      -8.1      2.319      2.831
REMARK  2 active torsions:
REMARK  status: ('A' for Active; 'I' for Inactive)
REMARK    1  A    between atoms: C_9  and  O_10 
REMARK    2  A    between atoms: C_9  and  C_11 
ROOT
HETATM    1  C   UNL     1      45.071 -22.125   2.844  1.00  0.00     0.048 C 
HETATM    2  C   UNL     1      44.670 -21.471   4.135  1.00  0.00    -0.061 A 
HETATM    3  C   UNL     1      44.458 -20.085   4.196  1.00  0.00     0.020 A 
HETATM    4  C   UNL     1      44.066 -19.523   5.404  1.00  0.00     0.018 A 
HETATM    5  C   UNL     1      43.909 -20.327   6.534  1.00  0.00     0.045 A 
HETATM    6  N   UNL     1      43.534 -19.563   7.627  1.00  0.00    -0.323 N 
HETATM    7  C   UNL     1      43.417 -18.213   7.291  1.00  0.00     0.266 A 
HETATM    8  O   UNL     1      43.119 -17.333   8.086  1.00  0.00    -0.269 OA
HETATM    9  C   UNL     1      43.786 -18.078   5.764  1.00  0.00     0.198 A 
HETATM   10  C   UNL     1      44.118 -21.689   6.511  1.00  0.00     0.031 A 
HETATM   11  C   UNL     1      44.502 -22.261   5.295  1.00  0.00     0.009 A 
HETATM   12  H   UNL     1      43.356 -19.906   8.559  1.00  0.00     0.169 HD
ENDROOT
BRANCH   9  13
HETATM   13  O   UNL     1      44.957 -17.297   5.576  1.00  0.00    -0.371 OA
HETATM   14  H   UNL     1      45.102 -17.245   4.618  1.00  0.00     0.212 HD
ENDBRANCH   9  13
BRANCH   9  15
HETATM   15  C   UNL     1      42.615 -17.652   4.912  1.00  0.00     0.018 A 
HETATM   16  C   UNL     1      42.628 -17.346   3.503  1.00  0.00     0.002 A 
HETATM   17  C   UNL     1      41.325 -17.017   3.124  1.00  0.00     0.043 A 
HETATM   18  C   UNL     1      43.630 -17.322   2.507  1.00  0.00     0.014 A 
HETATM   19  C   UNL     1      40.977 -16.666   1.813  1.00  0.00     0.030 A 
HETATM   20  N   UNL     1      40.543 -17.109   4.248  1.00  0.00    -0.365 N 
HETATM   21  C   UNL     1      41.991 -16.651   0.852  1.00  0.00     0.002 A 
HETATM   22  C   UNL     1      43.301 -16.974   1.192  1.00  0.00     0.001 A 
HETATM   23  H   UNL     1      39.550 -16.919   4.271  1.00  0.00     0.165 HD
HETATM   24  C   UNL     1      41.297 -17.495   5.321  1.00  0.00     0.100 A 
ENDBRANCH   9  15
TORSDOF 2
ENDMDL
MODEL 4
REMARK VINA RESULT:      -8.0      2.582      6.396
REMARK  2 active torsions:
REMARK  status: ('A' for Active; 'I' for Inactive)
REMARK    1  A    between atoms: C_9  and  O_10 
REMARK    2  A    between atoms: C_9  and  C_11 
ROOT
HETATM    1  C   UNL     1      43.961 -13.651   6.688  1.00  0.00     0.048 C 
HETATM    2  C   UNL     1      43.060 -14.381   5.735  1.00  0.00    -0.061 A 
HETATM    3  C   UNL     1      43.581 -15.337   4.852  1.00  0.00     0.020 A 
HETATM    4  C   UNL     1      42.709 -16.006   4.003  1.00  0.00     0.018 A 
HETATM    5  C   UNL     1      41.346 -15.710   4.022  1.00  0.00     0.045 A 
HETATM    6  N   UNL     1      40.667 -16.475   3.086  1.00  0.00    -0.323 N 
HETATM    7  C   UNL     1      41.534 -17.325   2.396  1.00  0.00     0.266 A 
HETATM    8  O   UNL     1      41.182 -18.085   1.506  1.00  0.00    -0.269 OA
HETATM    9  C   UNL     1      42.987 -17.061   2.950  1.00  0.00     0.198 A 
HETATM   10  C   UNL     1      40.802 -14.769   4.869  1.00  0.00     0.031 A 
HETATM   11  C   UNL     1      41.674 -14.102   5.734  1.00  0.00     0.009 A 
HETATM   12  H   UNL     1      39.675 -16.451   2.905  1.00  0.00     0.169 HD
ENDROOT
BRANCH   9  13
HETATM   13  O   UNL     1      43.840 -16.529   1.947  1.00  0.00    -0.371 OA
HETATM   14  H   UNL     1      43.273 -16.318   1.188  1.00  0.00     0.212 HD
ENDBRANCH   9  13
BRANCH   9  15
HETATM   15  C   UNL     1      43.561 -18.248   3.684  1.00  0.00     0.018 A 
HETATM   16  C   UNL     1      43.807 -19.565   3.152  1.00  0.00     0.002 A 
HETATM   17  C   UNL     1      44.360 -20.342   4.173  1.00  0.00     0.043 A 
HETATM   18  C   UNL     1      43.615 -20.173   1.891  1.00  0.00     0.014 A 
HETATM   19  C   UNL     1      44.725 -21.683   3.998  1.00  0.00     0.030 A 
HETATM   20  N   UNL     1      44.446 -19.544   5.285  1.00  0.00    -0.365 N 
HETATM   21  C   UNL     1      44.522 -22.255   2.739  1.00  0.00     0.002 A 
HETATM   22  C   UNL     1      43.975 -21.512   1.698  1.00  0.00     0.001 A 
HETATM   23  H   UNL     1      44.805 -19.847   6.180  1.00  0.00     0.165 HD
HETATM   24  C   UNL     1      43.980 -18.289   5.008  1.00  0.00     0.100 A 
ENDBRANCH   9  15
TORSDOF 2
ENDMDL
MODEL 5
REMARK VINA RESULT:      -7.7      3.663      5.216
REMARK  2 active torsions:
REMARK  status: ('A' for Active; 'I' for Inactive)
REMARK    1  A    between atoms: C_9  and  O_10 
REMARK    2  A    between atoms: C_9  and  C_11 
ROOT
HETATM    1  C   UNL     1      43.731 -18.552   4.753  1.00  0.00     0.048 C 
HETATM    2  C   UNL     1      43.303 -17.975   3.435  1.00  0.00    -0.061 A 
HETATM    3  C   UNL     1      42.262 -17.036   3.372  1.00  0.00     0.020 A 
HETATM    4  C   UNL     1      41.913 -16.509   2.135  1.00  0.00     0.018 A 
HETATM    5  C   UNL     1      42.577 -16.928   0.982  1.00  0.00     0.045 A 
HETATM    6  N   UNL     1      42.059 -16.293  -0.136  1.00  0.00    -0.323 N 
HETATM    7  C   UNL     1      41.028 -15.416   0.207  1.00  0.00     0.266 A 
HETATM    8  O   UNL     1      40.396 -14.753  -0.603  1.00  0.00    -0.269 OA
HETATM    9  C   UNL     1      40.836 -15.508   1.769  1.00  0.00     0.198 A 
HETATM   10  C   UNL     1      43.596 -17.855   1.006  1.00  0.00     0.031 A 
HETATM   11  C   UNL     1      43.959 -18.379   2.250  1.00  0.00     0.009 A 
HETATM   12  H   UNL     1      42.366 -16.420  -1.088  1.00  0.00     0.169 HD
ENDROOT
BRANCH   9  13
HETATM   13  O   UNL     1      39.558 -16.025   2.110  1.00  0.00    -0.371 OA
HETATM   14  H   UNL     1      38.916 -15.559   1.552  1.00  0.00     0.212 HD
ENDBRANCH   9  13
BRANCH   9  15
HETATM   15  C   UNL     1      41.195 -14.226   2.481  1.00  0.00     0.018 A 
HETATM   16  C   UNL     1      40.771 -13.812   3.796  1.00  0.00     0.002 A 
HETATM   17  C   UNL     1      41.352 -12.570   4.062  1.00  0.00     0.043 A 
HETATM   18  C   UNL     1      39.947 -14.381   4.793  1.00  0.00     0.014 A 
HETATM   19  C   UNL     1      41.152 -11.875   5.261  1.00  0.00     0.030 A 
HETATM   20  N   UNL     1      42.096 -12.229   2.960  1.00  0.00    -0.365 N 
HETATM   21  C   UNL     1      40.331 -12.465   6.226  1.00  0.00     0.002 A 
HETATM   22  C   UNL     1      39.736 -13.701   5.998  1.00  0.00     0.001 A 
HETATM   23  H   UNL     1      42.625 -11.373   2.870  1.00  0.00     0.165 HD
HETATM   24  C   UNL     1      42.018 -13.211   2.012  1.00  0.00     0.100 A 
ENDBRANCH   9  15
TORSDOF 2
ENDMDL
MODEL 6
REMARK VINA RESULT:      -7.7      2.969      4.172
REMARK  2 active torsions:
REMARK  status: ('A' for Active; 'I' for Inactive)
REMARK    1  A    between atoms: C_9  and  O_10 
REMARK    2  A    between atoms: C_9  and  C_11 
ROOT
HETATM    1  C   UNL     1      43.741 -19.372   6.889  1.00  0.00     0.048 C 
HETATM    2  C   UNL     1      43.600 -19.092   5.421  1.00  0.00    -0.061 A 
HETATM    3  C   UNL     1      42.728 -18.092   4.967  1.00  0.00     0.020 A 
HETATM    4  C   UNL     1      42.645 -17.849   3.601  1.00  0.00     0.018 A 
HETATM    5  C   UNL     1      43.403 -18.606   2.707  1.00  0.00     0.045 A 
HETATM    6  N   UNL     1      43.153 -18.212   1.402  1.00  0.00    -0.323 N 
HETATM    7  C   UNL     1      42.222 -17.172   1.351  1.00  0.00     0.266 A 
HETATM    8  O   UNL     1      41.819 -16.664   0.315  1.00  0.00    -0.269 OA
HETATM    9  C   UNL     1      41.792 -16.858   2.836  1.00  0.00     0.198 A 
HETATM   10  C   UNL     1      44.261 -19.603   3.118  1.00  0.00     0.031 A 
HETATM   11  C   UNL     1      44.356 -19.842   4.492  1.00  0.00     0.009 A 
HETATM   12  H   UNL     1      43.575 -18.600   0.572  1.00  0.00     0.169 HD
ENDROOT
BRANCH   9  13
HETATM   13  O   UNL     1      40.416 -17.136   3.051  1.00  0.00    -0.371 OA
HETATM   14  H   UNL     1      40.206 -17.918   2.516  1.00  0.00     0.212 HD
ENDBRANCH   9  13
BRANCH   9  15
HETATM   15  C   UNL     1      42.225 -15.487   3.295  1.00  0.00     0.018 A 
HETATM   16  C   UNL     1      41.557 -14.637   4.249  1.00  0.00     0.002 A 
HETATM   17  C   UNL     1      42.314 -13.472   4.387  1.00  0.00     0.043 A 
HETATM   18  C   UNL     1      40.376 -14.751   5.017  1.00  0.00     0.014 A 
HETATM   19  C   UNL     1      41.952 -12.424   5.244  1.00  0.00     0.030 A 
HETATM   20  N   UNL     1      43.396 -13.593   3.552  1.00  0.00    -0.365 N 
HETATM   21  C   UNL     1      40.779 -12.567   5.988  1.00  0.00     0.002 A 
HETATM   22  C   UNL     1      40.000 -13.714   5.878  1.00  0.00     0.001 A 
HETATM   23  H   UNL     1      44.115 -12.890   3.442  1.00  0.00     0.165 HD
HETATM   24  C   UNL     1      43.361 -14.793   2.900  1.00  0.00     0.100 A 
ENDBRANCH   9  15
TORSDOF 2
ENDMDL
MODEL 7
REMARK VINA RESULT:      -7.7      2.539      3.871
REMARK  2 active torsions:
REMARK  status: ('A' for Active; 'I' for Inactive)
REMARK    1  A    between atoms: C_9  and  O_10 
REMARK    2  A    between atoms: C_9  and  C_11 
ROOT
HETATM    1  C   UNL     1      44.597 -20.747   2.964  1.00  0.00     0.048 C 
HETATM    2  C   UNL     1      43.751 -19.514   2.829  1.00  0.00    -0.061 A 
HETATM    3  C   UNL     1      42.994 -19.048   3.914  1.00  0.00     0.020 A 
HETATM    4  C   UNL     1      42.244 -17.890   3.754  1.00  0.00     0.018 A 
HETATM    5  C   UNL     1      42.233 -17.224   2.528  1.00  0.00     0.045 A 
HETATM    6  N   UNL     1      41.408 -16.112   2.585  1.00  0.00    -0.323 N 
HETATM    7  C   UNL     1      40.827 -15.971   3.847  1.00  0.00     0.266 A 
HETATM    8  O   UNL     1      40.044 -15.081   4.143  1.00  0.00    -0.269 OA
HETATM    9  C   UNL     1      41.333 -17.174   4.731  1.00  0.00     0.198 A 
HETATM   10  C   UNL     1      42.957 -17.661   1.440  1.00  0.00     0.031 A 
HETATM   11  C   UNL     1      43.723 -18.818   1.599  1.00  0.00     0.009 A 
HETATM   12  H   UNL     1      41.231 -15.464   1.833  1.00  0.00     0.169 HD
ENDROOT
BRANCH   9  13
HETATM   13  O   UNL     1      40.264 -18.029   5.112  1.00  0.00    -0.371 OA
HETATM   14  H   UNL     1      40.139 -18.654   4.381  1.00  0.00     0.212 HD
ENDBRANCH   9  13
BRANCH   9  15
HETATM   15  C   UNL     1      42.210 -16.732   5.878  1.00  0.00     0.018 A 
HETATM   16  C   UNL     1      43.158 -15.646   5.880  1.00  0.00     0.002 A 
HETATM   17  C   UNL     1      43.732 -15.582   7.152  1.00  0.00     0.043 A 
HETATM   18  C   UNL     1      43.582 -14.703   4.918  1.00  0.00     0.014 A 
HETATM   19  C   UNL     1      44.700 -14.634   7.505  1.00  0.00     0.030 A 
HETATM   20  N   UNL     1      43.169 -16.586   7.899  1.00  0.00    -0.365 N 
HETATM   21  C   UNL     1      45.099 -13.715   6.530  1.00  0.00     0.002 A 
HETATM   22  C   UNL     1      44.548 -13.747   5.253  1.00  0.00     0.001 A 
HETATM   23  H   UNL     1      43.403 -16.781   8.863  1.00  0.00     0.165 HD
HETATM   24  C   UNL     1      42.253 -17.276   7.155  1.00  0.00     0.100 A 
ENDBRANCH   9  15
TORSDOF 2
ENDMDL
MODEL 8
REMARK VINA RESULT:      -7.6      2.476      5.727
REMARK  2 active torsions:
REMARK  status: ('A' for Active; 'I' for Inactive)
REMARK    1  A    between atoms: C_9  and  O_10 
REMARK    2  A    between atoms: C_9  and  C_11 
ROOT
HETATM    1  C   UNL     1      38.272 -14.467   1.338  1.00  0.00     0.048 C 
HETATM    2  C   UNL     1      39.595 -14.091   1.940  1.00  0.00    -0.061 A 
HETATM    3  C   UNL     1      40.034 -14.694   3.128  1.00  0.00     0.020 A 
HETATM    4  C   UNL     1      41.275 -14.335   3.639  1.00  0.00     0.018 A 
HETATM    5  C   UNL     1      42.052 -13.378   2.986  1.00  0.00     0.045 A 
HETATM    6  N   UNL     1      43.235 -13.159   3.674  1.00  0.00    -0.323 N 
HETATM    7  C   UNL     1      43.317 -13.957   4.817  1.00  0.00     0.266 A 
HETATM    8  O   UNL     1      44.253 -13.933   5.602  1.00  0.00    -0.269 OA
HETATM    9  C   UNL     1      41.987 -14.802   4.892  1.00  0.00     0.198 A 
HETATM   10  C   UNL     1      41.647 -12.759   1.823  1.00  0.00     0.031 A 
HETATM   11  C   UNL     1      40.404 -13.126   1.299  1.00  0.00     0.009 A 
HETATM   12  H   UNL     1      43.967 -12.518   3.408  1.00  0.00     0.169 HD
ENDROOT
BRANCH   9  13
HETATM   13  O   UNL     1      41.219 -14.466   6.039  1.00  0.00    -0.371 OA
HETATM   14  H   UNL     1      41.741 -13.819   6.540  1.00  0.00     0.212 HD
ENDBRANCH   9  13
BRANCH   9  15
HETATM   15  C   UNL     1      42.222 -16.282   4.717  1.00  0.00     0.018 A 
HETATM   16  C   UNL     1      42.912 -16.932   3.630  1.00  0.00     0.002 A 
HETATM   17  C   UNL     1      42.911 -18.305   3.882  1.00  0.00     0.043 A 
HETATM   18  C   UNL     1      43.545 -16.479   2.451  1.00  0.00     0.014 A 
HETATM   19  C   UNL     1      43.503 -19.239   3.023  1.00  0.00     0.030 A 
HETATM   20  N   UNL     1      42.245 -18.497   5.067  1.00  0.00    -0.365 N 
HETATM   21  C   UNL     1      44.120 -18.759   1.865  1.00  0.00     0.002 A 
HETATM   22  C   UNL     1      44.143 -17.398   1.581  1.00  0.00     0.001 A 
HETATM   23  H   UNL     1      42.086 -19.399   5.494  1.00  0.00     0.165 HD
HETATM   24  C   UNL     1      41.835 -17.298   5.581  1.00  0.00     0.100 A 
ENDBRANCH   9  15
TORSDOF 2
ENDMDL
MODEL 9
REMARK VINA RESULT:      -7.5      2.615      3.272
REMARK  2 active torsions:
REMARK  status: ('A' for Active; 'I' for Inactive)
REMARK    1  A    between atoms: C_9  and  O_10 
REMARK    2  A    between atoms: C_9  and  C_11 
ROOT
HETATM    1  C   UNL     1      44.369 -20.252   2.482  1.00  0.00     0.048 C 
HETATM    2  C   UNL     1      44.020 -19.154   3.444  1.00  0.00    -0.061 A 
HETATM    3  C   UNL     1      43.539 -17.922   2.976  1.00  0.00     0.020 A 
HETATM    4  C   UNL     1      43.206 -16.941   3.901  1.00  0.00     0.018 A 
HETATM    5  C   UNL     1      43.371 -17.178   5.266  1.00  0.00     0.045 A 
HETATM    6  N   UNL     1      42.998 -16.066   6.003  1.00  0.00    -0.323 N 
HETATM    7  C   UNL     1      42.561 -15.028   5.176  1.00  0.00     0.266 A 
HETATM    8  O   UNL     1      42.199 -13.935   5.584  1.00  0.00    -0.269 OA
HETATM    9  C   UNL     1      42.685 -15.534   3.687  1.00  0.00     0.198 A 
HETATM   10  C   UNL     1      43.851 -18.373   5.759  1.00  0.00     0.031 A 
HETATM   11  C   UNL     1      44.176 -19.367   4.833  1.00  0.00     0.009 A 
HETATM   12  H   UNL     1      43.021 -15.983   7.008  1.00  0.00     0.169 HD
ENDROOT
BRANCH   9  13
HETATM   13  O   UNL     1      43.634 -14.773   2.954  1.00  0.00    -0.371 OA
HETATM   14  H   UNL     1      44.342 -14.542   3.577  1.00  0.00     0.212 HD
ENDBRANCH   9  13
BRANCH   9  15
HETATM   15  C   UNL     1      41.348 -15.679   3.003  1.00  0.00     0.018 A 
HETATM   16  C   UNL     1      40.484 -14.619   2.545  1.00  0.00     0.002 A 
HETATM   17  C   UNL     1      39.362 -15.205   1.956  1.00  0.00     0.043 A 
HETATM   18  C   UNL     1      40.553 -13.208   2.572  1.00  0.00     0.014 A 
HETATM   19  C   UNL     1      38.315 -14.460   1.400  1.00  0.00     0.030 A 
HETATM   20  N   UNL     1      39.522 -16.565   2.050  1.00  0.00    -0.365 N 
HETATM   21  C   UNL     1      38.413 -13.067   1.443  1.00  0.00     0.002 A 
HETATM   22  C   UNL     1      39.516 -12.447   2.020  1.00  0.00     0.001 A 
HETATM   23  H   UNL     1      38.855 -17.244   1.710  1.00  0.00     0.165 HD
HETATM   24  C   UNL     1      40.705 -16.863   2.666  1.00  0.00     0.100 A 
ENDBRANCH   9  15
TORSDOF 2
ENDMDL
MODEL 10
REMARK VINA RESULT:      -7.4      2.004      5.816
REMARK  2 active torsions:
REMARK  status: ('A' for Active; 'I' for Inactive)
REMARK    1  A    between atoms: C_9  and  O_10 
REMARK    2  A    between atoms: C_9  and  C_11 
ROOT
HETATM    1  C   UNL     1      40.012 -14.360   3.918  1.00  0.00     0.048 C 
HETATM    2  C   UNL     1      41.280 -14.733   4.631  1.00  0.00    -0.061 A 
HETATM    3  C   UNL     1      41.615 -16.081   4.830  1.00  0.00     0.020 A 
HETATM    4  C   UNL     1      42.809 -16.382   5.473  1.00  0.00     0.018 A 
HETATM    5  C   UNL     1      43.639 -15.358   5.928  1.00  0.00     0.045 A 
HETATM    6  N   UNL     1      44.760 -15.881   6.554  1.00  0.00    -0.323 N 
HETATM    7  C   UNL     1      44.743 -17.277   6.550  1.00  0.00     0.266 A 
HETATM    8  O   UNL     1      45.609 -17.973   7.059  1.00  0.00    -0.269 OA
HETATM    9  C   UNL     1      43.411 -17.725   5.834  1.00  0.00     0.198 A 
HETATM   10  C   UNL     1      43.335 -14.024   5.758  1.00  0.00     0.031 A 
HETATM   11  C   UNL     1      42.141 -13.716   5.100  1.00  0.00     0.009 A 
HETATM   12  H   UNL     1      45.512 -15.350   6.966  1.00  0.00     0.169 HD
ENDROOT
BRANCH   9  13
HETATM   13  O   UNL     1      42.548 -18.420   6.723  1.00  0.00    -0.371 OA
HETATM   14  H   UNL     1      41.751 -17.875   6.814  1.00  0.00     0.212 HD
ENDBRANCH   9  13
BRANCH   9  15
HETATM   15  C   UNL     1      43.658 -18.440   4.527  1.00  0.00     0.018 A 
HETATM   16  C   UNL     1      44.068 -19.811   4.349  1.00  0.00     0.002 A 
HETATM   17  C   UNL     1      44.158 -20.055   2.977  1.00  0.00     0.043 A 
HETATM   18  C   UNL     1      44.368 -20.875   5.229  1.00  0.00     0.014 A 
HETATM   19  C   UNL     1      44.531 -21.296   2.446  1.00  0.00     0.030 A 
HETATM   20  N   UNL     1      43.825 -18.888   2.337  1.00  0.00    -0.365 N 
HETATM   21  C   UNL     1      44.822 -22.328   3.342  1.00  0.00     0.002 A 
HETATM   22  C   UNL     1      44.743 -22.122   4.716  1.00  0.00     0.001 A 
HETATM   23  H   UNL     1      43.811 -18.770   1.333  1.00  0.00     0.165 HD
HETATM   24  C   UNL     1      43.517 -17.917   3.249  1.00  0.00     0.100 A 
ENDBRANCH   9  15
TORSDOF 2
ENDMDL
