MODEL 1
REMARK VINA RESULT:      -8.4      0.000      0.000
REMARK  9 active torsions:
REMARK  status: ('A' for Active; 'I' for Inactive)
REMARK    1  A    between atoms: C_2  and  C_3 
REMARK    2  A    between atoms: C_3  and  O_4 
REMARK    3  A    between atoms: O_4  and  C_5 
REMARK    4  A    between atoms: C_8  and  C_9 
REMARK       I    between atoms: C_9  and  N_10 
REMARK    5  A    between atoms: N_10  and  C_11 
REMARK    6  A    between atoms: C_11  and  N_12 
REMARK    7  A    between atoms: N_12  and  C_13 
REMARK    8  A    between atoms: C_15  and  O_16 
REMARK    9  A    between atoms: C_17  and  C_18 
ROOT
HETATM    1  C   UNL     1      40.514 -13.077   1.875  1.00  0.00     0.036 A 
HETATM    2  C   UNL     1      39.719 -14.219   1.897  1.00  0.00     0.067 A 
HETATM    3  C   UNL     1      40.293 -15.486   2.065  1.00  0.00     0.082 A 
HETATM    4  C   UNL     1      41.677 -15.651   2.189  1.00  0.00     0.050 A 
HETATM    5  C   UNL     1      42.477 -14.503   2.126  1.00  0.00     0.021 A 
HETATM    6  C   UNL     1      41.902 -13.235   1.972  1.00  0.00     0.030 A 
ENDROOT
BRANCH   1   7
HETATM    7  N   UNL     1      40.042 -11.755   1.734  1.00  0.00    -0.333 N 
HETATM    8  H   UNL     1      40.636 -11.147   1.176  1.00  0.00     0.168 HD
BRANCH   7   9
HETATM    9  C   UNL     1      38.943 -11.093   2.174  1.00  0.00     0.179 C 
HETATM   10  S   UNL     1      37.470 -11.460   1.471  1.00  0.00    -0.040 SA
BRANCH   9  11
HETATM   11  N   UNL     1      39.007 -10.171   3.168  1.00  0.00    -0.299 N 
HETATM   12  C   UNL     1      39.029 -10.461   4.522  1.00  0.00     0.257 C 
HETATM   13  O   UNL     1      38.423  -9.765   5.333  1.00  0.00    -0.267 OA
HETATM   14  H   UNL     1      38.367  -9.402   3.025  1.00  0.00     0.171 HD
BRANCH  12  15
HETATM   15  C   UNL     1      39.853 -11.584   5.004  1.00  0.00     0.032 A 
HETATM   16  C   UNL     1      39.216 -12.809   5.219  1.00  0.00     0.020 A 
HETATM   17  C   UNL     1      39.964 -13.932   5.583  1.00  0.00     0.038 A 
HETATM   18  C   UNL     1      41.351 -13.837   5.721  1.00  0.00     0.068 A 
HETATM   19  C   UNL     1      41.979 -12.605   5.508  1.00  0.00     0.038 A 
HETATM   20  C   UNL     1      41.239 -11.480   5.134  1.00  0.00     0.020 A 
BRANCH  18  21
HETATM   21  O   UNL     1      42.192 -14.864   6.052  1.00  0.00    -0.351 OA
BRANCH  21  22
HETATM   22  C   UNL     1      43.575 -14.682   5.742  1.00  0.00     0.175 C 
BRANCH  22  23
HETATM   23  C   UNL     1      44.384 -14.902   7.016  1.00  0.00     0.022 C 
HETATM   24  C   UNL     1      45.112 -13.638   7.443  1.00  0.00     0.007 C 
ENDBRANCH  22  23
ENDBRANCH  21  22
ENDBRANCH  18  21
ENDBRANCH  12  15
ENDBRANCH   9  11
ENDBRANCH   7   9
ENDBRANCH   1   7
BRANCH   3  25
HETATM   25  O   UNL     1      39.403 -16.530   2.070  1.00  0.00    -0.360 OA
HETATM   26  H   UNL     1      38.613 -16.272   2.578  1.00  0.00     0.217 HD
ENDBRANCH   3  25
BRANCH   4  27
HETATM   27  C   UNL     1      42.317 -16.951   2.357  1.00  0.00     0.183 A 
HETATM   28  O   UNL     1      43.014 -17.130   3.526  1.00  0.00    -0.288 OA
HETATM   29  C   UNL     1      43.519 -18.395   3.423  1.00  0.00     0.112 A 
HETATM   30  C   UNL     1      43.089 -18.918   2.216  1.00  0.00     0.094 A 
HETATM   31  C   UNL     1      44.320 -19.060   4.351  1.00  0.00    -0.025 A 
HETATM   32  N   UNL     1      42.344 -17.985   1.538  1.00  0.00    -0.221 NA
HETATM   33  C   UNL     1      43.447 -20.228   1.877  1.00  0.00     0.041 A 
HETATM   34  C   UNL     1      44.256 -20.956   2.771  1.00  0.00    -0.059 A 
HETATM   35  C   UNL     1      44.675 -20.372   3.981  1.00  0.00     0.016 A 
HETATM   36  C   UNL     1      44.620 -22.378   2.454  1.00  0.00     0.048 C 
HETATM   37  C   UNL     1      44.812 -18.454   5.626  1.00  0.00     0.051 C 
ENDBRANCH   4  27
TORSDOF 9
ENDMDL
MODEL 2
REMARK VINA RESULT:      -8.2      3.133      5.443
REMARK  9 active torsions:
REMARK  status: ('A' for Active; 'I' for Inactive)
REMARK    1  A    between atoms: C_2  and  C_3 
REMARK    2  A    between atoms: C_3  and  O_4 
REMARK    3  A    between atoms: O_4  and  C_5 
REMARK    4  A    between atoms: C_8  and  C_9 
REMARK       I    between atoms: C_9  and  N_10 
REMARK    5  A    between atoms: N_10  and  C_11 
REMARK    6  A    between atoms: C_11  and  N_12 
REMARK    7  A    between atoms: N_12  and  C_13 
REMARK    8  A    between atoms: C_15  and  O_16 
REMARK    9  A    between atoms: C_17  and  C_18 
ROOT
HETATM    1  C   UNL     1      40.644 -12.987   2.256  1.00  0.00     0.036 A 
HETATM    2  C   UNL     1      39.866 -14.118   2.032  1.00  0.00     0.067 A 
HETATM    3  C   UNL     1      40.418 -15.401   2.148  1.00  0.00     0.082 A 
HETATM    4  C   UNL     1      41.769 -15.589   2.465  1.00  0.00     0.050 A 
HETATM    5  C   UNL     1      42.558 -14.447   2.650  1.00  0.00     0.021 A 
HETATM    6  C   UNL     1      42.002 -13.165   2.548  1.00  0.00     0.030 A 
ENDROOT
BRANCH   1   7
HETATM    7  N   UNL     1      40.187 -11.655   2.189  1.00  0.00    -0.333 N 
HETATM    8  H   UNL     1      39.956 -11.236   3.087  1.00  0.00     0.168 HD
BRANCH   7   9
HETATM    9  C   UNL     1      39.989 -10.774   1.177  1.00  0.00     0.179 C 
HETATM   10  S   UNL     1      38.413 -10.435   0.727  1.00  0.00    -0.040 SA
BRANCH   9  11
HETATM   11  N   UNL     1      41.019 -10.154   0.548  1.00  0.00    -0.299 N 
HETATM   12  C   UNL     1      41.978 -10.789  -0.225  1.00  0.00     0.257 C 
HETATM   13  O   UNL     1      43.155 -10.440  -0.192  1.00  0.00    -0.267 OA
HETATM   14  H   UNL     1      41.492  -9.487   1.143  1.00  0.00     0.171 HD
BRANCH  12  15
HETATM   15  C   UNL     1      41.562 -11.853  -1.155  1.00  0.00     0.032 A 
HETATM   16  C   UNL     1      40.801 -11.481  -2.267  1.00  0.00     0.020 A 
HETATM   17  C   UNL     1      40.460 -12.433  -3.232  1.00  0.00     0.038 A 
HETATM   18  C   UNL     1      40.889 -13.756  -3.095  1.00  0.00     0.068 A 
HETATM   19  C   UNL     1      41.648 -14.119  -1.976  1.00  0.00     0.038 A 
HETATM   20  C   UNL     1      42.000 -13.171  -1.012  1.00  0.00     0.020 A 
BRANCH  18  21
HETATM   21  O   UNL     1      40.640 -14.771  -3.977  1.00  0.00    -0.351 OA
BRANCH  21  22
HETATM   22  C   UNL     1      39.857 -15.863  -3.490  1.00  0.00     0.175 C 
BRANCH  22  23
HETATM   23  C   UNL     1      38.537 -15.882  -4.253  1.00  0.00     0.022 C 
HETATM   24  C   UNL     1      37.446 -15.133  -3.506  1.00  0.00     0.007 C 
ENDBRANCH  22  23
ENDBRANCH  21  22
ENDBRANCH  18  21
ENDBRANCH  12  15
ENDBRANCH   9  11
ENDBRANCH   7   9
ENDBRANCH   1   7
BRANCH   3  25
HETATM   25  O   UNL     1      39.548 -16.433   1.902  1.00  0.00    -0.360 OA
HETATM   26  H   UNL     1      39.605 -17.077   2.631  1.00  0.00     0.217 HD
ENDBRANCH   3  25
BRANCH   4  27
HETATM   27  C   UNL     1      42.387 -16.904   2.587  1.00  0.00     0.183 A 
HETATM   28  O   UNL     1      43.107 -17.125   3.735  1.00  0.00    -0.288 OA
HETATM   29  C   UNL     1      43.585 -18.395   3.591  1.00  0.00     0.112 A 
HETATM   30  C   UNL     1      43.118 -18.881   2.382  1.00  0.00     0.094 A 
HETATM   31  C   UNL     1      44.393 -19.097   4.485  1.00  0.00    -0.025 A 
HETATM   32  N   UNL     1      42.375 -17.919   1.744  1.00  0.00    -0.221 NA
HETATM   33  C   UNL     1      43.443 -20.189   2.004  1.00  0.00     0.041 A 
HETATM   34  C   UNL     1      44.257 -20.953   2.862  1.00  0.00    -0.059 A 
HETATM   35  C   UNL     1      44.714 -20.407   4.076  1.00  0.00     0.016 A 
HETATM   36  C   UNL     1      44.586 -22.375   2.504  1.00  0.00     0.048 C 
HETATM   37  C   UNL     1      44.925 -18.531   5.761  1.00  0.00     0.051 C 
ENDBRANCH   4  27
TORSDOF 9
ENDMDL
MODEL 3
REMARK VINA RESULT:      -8.2      2.350      4.495
REMARK  9 active torsions:
REMARK  status: ('A' for Active; 'I' for Inactive)
REMARK    1  A    between atoms: C_2  and  C_3 
REMARK    2  A    between atoms: C_3  and  O_4 
REMARK    3  A    between atoms: O_4  and  C_5 
REMARK    4  A    between atoms: C_8  and  C_9 
REMARK       I    between atoms: C_9  and  N_10 
REMARK    5  A    between atoms: N_10  and  C_11 
REMARK    6  A    between atoms: C_11  and  N_12 
REMARK    7  A    between atoms: N_12  and  C_13 
REMARK    8  A    between atoms: C_15  and  O_16 
REMARK    9  A    between atoms: C_17  and  C_18 
ROOT
HETATM    1  C   UNL     1      40.256 -12.692   4.360  1.00  0.00     0.036 A 
HETATM    2  C   UNL     1      39.887 -13.801   5.115  1.00  0.00     0.067 A 
HETATM    3  C   UNL     1      40.470 -15.053   4.880  1.00  0.00     0.082 A 
HETATM    4  C   UNL     1      41.418 -15.239   3.867  1.00  0.00     0.050 A 
HETATM    5  C   UNL     1      41.757 -14.129   3.082  1.00  0.00     0.021 A 
HETATM    6  C   UNL     1      41.184 -12.875   3.327  1.00  0.00     0.030 A 
ENDROOT
BRANCH   1   7
HETATM    7  N   UNL     1      39.752 -11.386   4.526  1.00  0.00    -0.333 N 
HETATM    8  H   UNL     1      39.954 -10.961   5.429  1.00  0.00     0.168 HD
BRANCH   7   9
HETATM    9  C   UNL     1      39.051 -10.536   3.735  1.00  0.00     0.179 C 
HETATM   10  S   UNL     1      39.772  -9.090   3.301  1.00  0.00    -0.040 SA
BRANCH   9  11
HETATM   11  N   UNL     1      37.810 -10.836   3.277  1.00  0.00    -0.299 N 
HETATM   12  C   UNL     1      37.506 -11.193   1.973  1.00  0.00     0.257 C 
HETATM   13  O   UNL     1      36.478 -10.800   1.428  1.00  0.00    -0.267 OA
HETATM   14  H   UNL     1      37.111 -10.176   3.588  1.00  0.00     0.171 HD
BRANCH  12  15
HETATM   15  C   UNL     1      38.401 -12.117   1.253  1.00  0.00     0.032 A 
HETATM   16  C   UNL     1      38.181 -13.487   1.415  1.00  0.00     0.020 A 
HETATM   17  C   UNL     1      38.936 -14.408   0.683  1.00  0.00     0.038 A 
HETATM   18  C   UNL     1      39.904 -13.962  -0.221  1.00  0.00     0.068 A 
HETATM   19  C   UNL     1      40.119 -12.587  -0.372  1.00  0.00     0.038 A 
HETATM   20  C   UNL     1      39.361 -11.661   0.349  1.00  0.00     0.020 A 
BRANCH  18  21
HETATM   21  O   UNL     1      40.690 -14.759  -1.007  1.00  0.00    -0.351 OA
BRANCH  21  22
HETATM   22  C   UNL     1      40.637 -14.519  -2.414  1.00  0.00     0.175 C 
BRANCH  22  23
HETATM   23  C   UNL     1      40.452 -15.858  -3.121  1.00  0.00     0.022 C 
HETATM   24  C   UNL     1      39.201 -15.868  -3.983  1.00  0.00     0.007 C 
ENDBRANCH  22  23
ENDBRANCH  21  22
ENDBRANCH  18  21
ENDBRANCH  12  15
ENDBRANCH   9  11
ENDBRANCH   7   9
ENDBRANCH   1   7
BRANCH   3  25
HETATM   25  O   UNL     1      40.022 -16.064   5.692  1.00  0.00    -0.360 OA
HETATM   26  H   UNL     1      40.279 -16.921   5.304  1.00  0.00     0.217 HD
ENDBRANCH   3  25
BRANCH   4  27
HETATM   27  C   UNL     1      42.044 -16.525   3.582  1.00  0.00     0.183 A 
HETATM   28  O   UNL     1      42.873 -17.019   4.558  1.00  0.00    -0.288 OA
HETATM   29  C   UNL     1      43.333 -18.197   4.041  1.00  0.00     0.112 A 
HETATM   30  C   UNL     1      42.748 -18.362   2.797  1.00  0.00     0.094 A 
HETATM   31  C   UNL     1      44.224 -19.087   4.638  1.00  0.00    -0.025 A 
HETATM   32  N   UNL     1      41.947 -17.285   2.507  1.00  0.00    -0.221 NA
HETATM   33  C   UNL     1      43.032 -19.518   2.061  1.00  0.00     0.041 A 
HETATM   34  C   UNL     1      43.926 -20.459   2.607  1.00  0.00    -0.059 A 
HETATM   35  C   UNL     1      44.502 -20.237   3.872  1.00  0.00     0.016 A 
HETATM   36  C   UNL     1      44.217 -21.729   1.860  1.00  0.00     0.048 C 
HETATM   37  C   UNL     1      44.881 -18.860   5.961  1.00  0.00     0.051 C 
ENDBRANCH   4  27
TORSDOF 9
ENDMDL
MODEL 4
REMARK VINA RESULT:      -8.0      3.330      7.481
REMARK  9 active torsions:
REMARK  status: ('A' for Active; 'I' for Inactive)
REMARK    1  A    between atoms: C_2  and  C_3 
REMARK    2  A    between atoms: C_3  and  O_4 
REMARK    3  A    between atoms: O_4  and  C_5 
REMARK    4  A    between atoms: C_8  and  C_9 
REMARK       I    between atoms: C_9  and  N_10 
REMARK    5  A    between atoms: N_10  and  C_11 
REMARK    6  A    between atoms: C_11  and  N_12 
REMARK    7  A    between atoms: N_12  and  C_13 
REMARK    8  A    between atoms: C_15  and  O_16 
REMARK    9  A    between atoms: C_17  and  C_18 
ROOT
HETATM    1  C   UNL     1      39.679 -11.730   4.352  1.00  0.00     0.036 A 
HETATM    2  C   UNL     1      39.176 -12.334   5.500  1.00  0.00     0.067 A 
HETATM    3  C   UNL     1      39.739 -12.066   6.755  1.00  0.00     0.082 A 
HETATM    4  C   UNL     1      40.836 -11.208   6.895  1.00  0.00     0.050 A 
HETATM    5  C   UNL     1      41.365 -10.633   5.732  1.00  0.00     0.021 A 
HETATM    6  C   UNL     1      40.793 -10.891   4.480  1.00  0.00     0.030 A 
ENDROOT
BRANCH   1   7
HETATM    7  N   UNL     1      39.177 -11.911   3.047  1.00  0.00    -0.333 N 
HETATM    8  H   UNL     1      38.163 -11.864   2.969  1.00  0.00     0.168 HD
BRANCH   7   9
HETATM    9  C   UNL     1      39.748 -12.126   1.836  1.00  0.00     0.179 C 
HETATM   10  S   UNL     1      40.366 -10.808   1.012  1.00  0.00    -0.040 SA
BRANCH   9  11
HETATM   11  N   UNL     1      39.849 -13.367   1.297  1.00  0.00    -0.299 N 
HETATM   12  C   UNL     1      40.932 -14.217   1.451  1.00  0.00     0.257 C 
HETATM   13  O   UNL     1      41.329 -14.917   0.522  1.00  0.00    -0.267 OA
HETATM   14  H   UNL     1      39.569 -13.392   0.326  1.00  0.00     0.171 HD
BRANCH  12  15
HETATM   15  C   UNL     1      41.574 -14.334   2.772  1.00  0.00     0.032 A 
HETATM   16  C   UNL     1      42.759 -13.624   2.981  1.00  0.00     0.020 A 
HETATM   17  C   UNL     1      43.359 -13.621   4.243  1.00  0.00     0.038 A 
HETATM   18  C   UNL     1      42.770 -14.315   5.303  1.00  0.00     0.068 A 
HETATM   19  C   UNL     1      41.584 -15.026   5.082  1.00  0.00     0.038 A 
HETATM   20  C   UNL     1      40.973 -15.026   3.825  1.00  0.00     0.020 A 
BRANCH  18  21
HETATM   21  O   UNL     1      43.246 -14.372   6.584  1.00  0.00    -0.351 OA
BRANCH  21  22
HETATM   22  C   UNL     1      44.544 -14.943   6.758  1.00  0.00     0.175 C 
BRANCH  22  23
HETATM   23  C   UNL     1      44.391 -16.459   6.846  1.00  0.00     0.022 C 
HETATM   24  C   UNL     1      43.436 -16.862   7.956  1.00  0.00     0.007 C 
ENDBRANCH  22  23
ENDBRANCH  21  22
ENDBRANCH  18  21
ENDBRANCH  12  15
ENDBRANCH   9  11
ENDBRANCH   7   9
ENDBRANCH   1   7
BRANCH   3  25
HETATM   25  O   UNL     1      39.153 -12.723   7.807  1.00  0.00    -0.360 OA
HETATM   26  H   UNL     1      39.123 -12.127   8.577  1.00  0.00     0.217 HD
ENDBRANCH   3  25
BRANCH   4  27
HETATM   27  C   UNL     1      41.459 -10.907   8.179  1.00  0.00     0.183 A 
HETATM   28  O   UNL     1      42.821 -11.064   8.238  1.00  0.00    -0.288 OA
HETATM   29  C   UNL     1      43.139 -10.744   9.527  1.00  0.00     0.112 A 
HETATM   30  C   UNL     1      41.965 -10.392  10.170  1.00  0.00     0.094 A 
HETATM   31  C   UNL     1      44.406 -10.756  10.109  1.00  0.00    -0.025 A 
HETATM   32  N   UNL     1      40.902 -10.519   9.311  1.00  0.00    -0.221 NA
HETATM   33  C   UNL     1      42.019  -9.987  11.509  1.00  0.00     0.041 A 
HETATM   34  C   UNL     1      43.269  -9.977  12.158  1.00  0.00    -0.059 A 
HETATM   35  C   UNL     1      44.431 -10.354  11.460  1.00  0.00     0.016 A 
HETATM   36  C   UNL     1      43.364  -9.506  13.581  1.00  0.00     0.048 C 
HETATM   37  C   UNL     1      45.652 -11.188   9.405  1.00  0.00     0.051 C 
ENDBRANCH   4  27
TORSDOF 9
ENDMDL
MODEL 5
REMARK VINA RESULT:      -7.6      3.595      4.139
REMARK  9 active torsions:
REMARK  status: ('A' for Active; 'I' for Inactive)
REMARK    1  A    between atoms: C_2  and  C_3 
REMARK    2  A    between atoms: C_3  and  O_4 
REMARK    3  A    between atoms: O_4  and  C_5 
REMARK    4  A    between atoms: C_8  and  C_9 
REMARK       I    between atoms: C_9  and  N_10 
REMARK    5  A    between atoms: N_10  and  C_11 
REMARK    6  A    between atoms: C_11  and  N_12 
REMARK    7  A    between atoms: N_12  and  C_13 
REMARK    8  A    between atoms: C_15  and  O_16 
REMARK    9  A    between atoms: C_17  and  C_18 
ROOT
HETATM    1  C   UNL     1      40.677 -13.059   5.500  1.00  0.00     0.036 A 
HETATM    2  C   UNL     1      40.185 -14.260   6.001  1.00  0.00     0.067 A 
HETATM    3  C   UNL     1      40.692 -15.486   5.550  1.00  0.00     0.082 A 
HETATM    4  C   UNL     1      41.687 -15.547   4.566  1.00  0.00     0.050 A 
HETATM    5  C   UNL     1      42.151 -14.337   4.035  1.00  0.00     0.021 A 
HETATM    6  C   UNL     1      41.653 -13.112   4.497  1.00  0.00     0.030 A 
ENDROOT
BRANCH   1   7
HETATM    7  N   UNL     1      40.256 -11.774   5.898  1.00  0.00    -0.333 N 
HETATM    8  H   UNL     1      39.803 -11.736   6.809  1.00  0.00     0.168 HD
BRANCH   7   9
HETATM    9  C   UNL     1      40.327 -10.541   5.338  1.00  0.00     0.179 C 
HETATM   10  S   UNL     1      39.069 -10.053   4.348  1.00  0.00    -0.040 SA
BRANCH   9  11
HETATM   11  N   UNL     1      41.365  -9.700   5.576  1.00  0.00    -0.299 N 
HETATM   12  C   UNL     1      41.523  -8.934   6.720  1.00  0.00     0.257 C 
HETATM   13  O   UNL     1      41.966  -7.789   6.663  1.00  0.00    -0.267 OA
HETATM   14  H   UNL     1      41.582  -9.117   4.780  1.00  0.00     0.171 HD
BRANCH  12  15
HETATM   15  C   UNL     1      41.220  -9.530   8.033  1.00  0.00     0.032 A 
HETATM   16  C   UNL     1      42.213 -10.307   8.635  1.00  0.00     0.020 A 
HETATM   17  C   UNL     1      42.017 -10.818   9.921  1.00  0.00     0.038 A 
HETATM   18  C   UNL     1      40.836 -10.543  10.614  1.00  0.00     0.068 A 
HETATM   19  C   UNL     1      39.846  -9.767  10.000  1.00  0.00     0.038 A 
HETATM   20  C   UNL     1      40.038  -9.245   8.718  1.00  0.00     0.020 A 
BRANCH  18  21
HETATM   21  O   UNL     1      40.535 -10.966  11.879  1.00  0.00    -0.351 OA
BRANCH  21  22
HETATM   22  C   UNL     1      41.640 -11.306  12.718  1.00  0.00     0.175 C 
BRANCH  22  23
HETATM   23  C   UNL     1      41.917 -10.127  13.646  1.00  0.00     0.022 C 
HETATM   24  C   UNL     1      43.316  -9.571  13.443  1.00  0.00     0.007 C 
ENDBRANCH  22  23
ENDBRANCH  21  22
ENDBRANCH  18  21
ENDBRANCH  12  15
ENDBRANCH   9  11
ENDBRANCH   7   9
ENDBRANCH   1   7
BRANCH   3  25
HETATM   25  O   UNL     1      40.124 -16.596   6.121  1.00  0.00    -0.360 OA
HETATM   26  H   UNL     1      39.298 -16.808   5.650  1.00  0.00     0.217 HD
ENDBRANCH   3  25
BRANCH   4  27
HETATM   27  C   UNL     1      42.238 -16.799   4.061  1.00  0.00     0.183 A 
HETATM   28  O   UNL     1      42.901 -17.577   4.978  1.00  0.00    -0.288 OA
HETATM   29  C   UNL     1      43.325 -18.656   4.256  1.00  0.00     0.112 A 
HETATM   30  C   UNL     1      42.883 -18.487   2.955  1.00  0.00     0.094 A 
HETATM   31  C   UNL     1      44.063 -19.743   4.722  1.00  0.00    -0.025 A 
HETATM   32  N   UNL     1      42.212 -17.294   2.838  1.00  0.00    -0.221 NA
HETATM   33  C   UNL     1      43.161 -19.479   2.009  1.00  0.00     0.041 A 
HETATM   34  C   UNL     1      43.905 -20.604   2.414  1.00  0.00    -0.059 A 
HETATM   35  C   UNL     1      44.339 -20.722   3.747  1.00  0.00     0.016 A 
HETATM   36  C   UNL     1      44.182 -21.706   1.431  1.00  0.00     0.048 C 
HETATM   37  C   UNL     1      44.571 -19.877   6.122  1.00  0.00     0.051 C 
ENDBRANCH   4  27
TORSDOF 9
ENDMDL
MODEL 6
REMARK VINA RESULT:      -7.6      3.717      7.448
REMARK  9 active torsions:
REMARK  status: ('A' for Active; 'I' for Inactive)
REMARK    1  A    between atoms: C_2  and  C_3 
REMARK    2  A    between atoms: C_3  and  O_4 
REMARK    3  A    between atoms: O_4  and  C_5 
REMARK    4  A    between atoms: C_8  and  C_9 
REMARK       I    between atoms: C_9  and  N_10 
REMARK    5  A    between atoms: N_10  and  C_11 
REMARK    6  A    between atoms: C_11  and  N_12 
REMARK    7  A    between atoms: N_12  and  C_13 
REMARK    8  A    between atoms: C_15  and  O_16 
REMARK    9  A    between atoms: C_17  and  C_18 
ROOT
HETATM    1  C   UNL     1      42.601 -13.881   4.988  1.00  0.00     0.036 A 
HETATM    2  C   UNL     1      41.977 -12.698   4.604  1.00  0.00     0.067 A 
HETATM    3  C   UNL     1      41.858 -12.359   3.250  1.00  0.00     0.082 A 
HETATM    4  C   UNL     1      42.383 -13.177   2.242  1.00  0.00     0.050 A 
HETATM    5  C   UNL     1      43.045 -14.347   2.635  1.00  0.00     0.021 A 
HETATM    6  C   UNL     1      43.152 -14.693   3.988  1.00  0.00     0.030 A 
ENDROOT
BRANCH   1   7
HETATM    7  N   UNL     1      42.755 -14.330   6.316  1.00  0.00    -0.333 N 
HETATM    8  H   UNL     1      41.890 -14.402   6.846  1.00  0.00     0.168 HD
BRANCH   7   9
HETATM    9  C   UNL     1      43.818 -14.711   7.067  1.00  0.00     0.179 C 
HETATM   10  S   UNL     1      45.199 -13.767   7.010  1.00  0.00    -0.040 SA
BRANCH   9  11
HETATM   11  N   UNL     1      43.781 -15.806   7.867  1.00  0.00    -0.299 N 
HETATM   12  C   UNL     1      43.134 -16.993   7.562  1.00  0.00     0.257 C 
HETATM   13  O   UNL     1      42.533 -17.629   8.424  1.00  0.00    -0.267 OA
HETATM   14  H   UNL     1      43.573 -15.576   8.829  1.00  0.00     0.171 HD
BRANCH  12  15
HETATM   15  C   UNL     1      43.232 -17.535   6.196  1.00  0.00     0.032 A 
HETATM   16  C   UNL     1      42.046 -17.686   5.474  1.00  0.00     0.020 A 
HETATM   17  C   UNL     1      42.086 -18.105   4.141  1.00  0.00     0.038 A 
HETATM   18  C   UNL     1      43.313 -18.361   3.523  1.00  0.00     0.068 A 
HETATM   19  C   UNL     1      44.495 -18.210   4.256  1.00  0.00     0.038 A 
HETATM   20  C   UNL     1      44.463 -17.783   5.586  1.00  0.00     0.020 A 
BRANCH  18  21
HETATM   21  O   UNL     1      43.486 -18.755   2.224  1.00  0.00    -0.351 OA
BRANCH  21  22
HETATM   22  C   UNL     1      43.043 -20.072   1.892  1.00  0.00     0.175 C 
BRANCH  22  23
HETATM   23  C   UNL     1      44.095 -21.065   2.375  1.00  0.00     0.022 C 
HETATM   24  C   UNL     1      44.299 -22.195   1.380  1.00  0.00     0.007 C 
ENDBRANCH  22  23
ENDBRANCH  21  22
ENDBRANCH  18  21
ENDBRANCH  12  15
ENDBRANCH   9  11
ENDBRANCH   7   9
ENDBRANCH   1   7
BRANCH   3  25
HETATM   25  O   UNL     1      41.222 -11.168   3.003  1.00  0.00    -0.360 OA
HETATM   26  H   UNL     1      41.153 -10.666   3.836  1.00  0.00     0.217 HD
ENDBRANCH   3  25
BRANCH   4  27
HETATM   27  C   UNL     1      42.289 -12.859   0.822  1.00  0.00     0.183 A 
HETATM   28  O   UNL     1      41.785 -13.850   0.017  1.00  0.00    -0.288 OA
HETATM   29  C   UNL     1      41.823 -13.312  -1.238  1.00  0.00     0.112 A 
HETATM   30  C   UNL     1      42.326 -12.028  -1.125  1.00  0.00     0.094 A 
HETATM   31  C   UNL     1      41.429 -13.923  -2.428  1.00  0.00    -0.025 A 
HETATM   32  N   UNL     1      42.638 -11.758   0.185  1.00  0.00    -0.221 NA
HETATM   33  C   UNL     1      42.439 -11.239  -2.276  1.00  0.00     0.041 A 
HETATM   34  C   UNL     1      42.059 -11.796  -3.512  1.00  0.00    -0.059 A 
HETATM   35  C   UNL     1      41.564 -13.112  -3.572  1.00  0.00     0.016 A 
HETATM   36  C   UNL     1      42.129 -10.960  -4.758  1.00  0.00     0.048 C 
HETATM   37  C   UNL     1      40.936 -15.330  -2.528  1.00  0.00     0.051 C 
ENDBRANCH   4  27
TORSDOF 9
ENDMDL
MODEL 7
REMARK VINA RESULT:      -7.5      3.267      3.645
REMARK  9 active torsions:
REMARK  status: ('A' for Active; 'I' for Inactive)
REMARK    1  A    between atoms: C_2  and  C_3 
REMARK    2  A    between atoms: C_3  and  O_4 
REMARK    3  A    between atoms: O_4  and  C_5 
REMARK    4  A    between atoms: C_8  and  C_9 
REMARK       I    between atoms: C_9  and  N_10 
REMARK    5  A    between atoms: N_10  and  C_11 
REMARK    6  A    between atoms: C_11  and  N_12 
REMARK    7  A    between atoms: N_12  and  C_13 
REMARK    8  A    between atoms: C_15  and  O_16 
REMARK    9  A    between atoms: C_17  and  C_18 
ROOT
HETATM    1  C   UNL     1      41.728 -12.147   3.566  1.00  0.00     0.036 A 
HETATM    2  C   UNL     1      41.330 -12.824   2.418  1.00  0.00     0.067 A 
HETATM    3  C   UNL     1      41.674 -14.168   2.224  1.00  0.00     0.082 A 
HETATM    4  C   UNL     1      42.447 -14.867   3.160  1.00  0.00     0.050 A 
HETATM    5  C   UNL     1      42.879 -14.170   4.295  1.00  0.00     0.021 A 
HETATM    6  C   UNL     1      42.524 -12.830   4.495  1.00  0.00     0.030 A 
ENDROOT
BRANCH   1   7
HETATM    7  N   UNL     1      41.419 -10.805   3.872  1.00  0.00    -0.333 N 
HETATM    8  H   UNL     1      42.088 -10.123   3.522  1.00  0.00     0.168 HD
BRANCH   7   9
HETATM    9  C   UNL     1      40.404 -10.196   4.533  1.00  0.00     0.179 C 
HETATM   10  S   UNL     1      40.377  -8.524   4.563  1.00  0.00    -0.040 SA
BRANCH   9  11
HETATM   11  N   UNL     1      39.414 -10.899   5.139  1.00  0.00    -0.299 N 
HETATM   12  C   UNL     1      39.540 -11.577   6.341  1.00  0.00     0.257 C 
HETATM   13  O   UNL     1      38.998 -12.665   6.518  1.00  0.00    -0.267 OA
HETATM   14  H   UNL     1      38.913 -11.497   4.496  1.00  0.00     0.171 HD
BRANCH  12  15
HETATM   15  C   UNL     1      40.280 -10.947   7.448  1.00  0.00     0.032 A 
HETATM   16  C   UNL     1      39.534 -10.395   8.493  1.00  0.00     0.020 A 
HETATM   17  C   UNL     1      40.183  -9.870   9.615  1.00  0.00     0.038 A 
HETATM   18  C   UNL     1      41.577  -9.906   9.700  1.00  0.00     0.068 A 
HETATM   19  C   UNL     1      42.315 -10.458   8.646  1.00  0.00     0.038 A 
HETATM   20  C   UNL     1      41.673 -10.993   7.526  1.00  0.00     0.020 A 
BRANCH  18  21
HETATM   21  O   UNL     1      42.325  -9.446  10.749  1.00  0.00    -0.351 OA
BRANCH  21  22
HETATM   22  C   UNL     1      42.305 -10.232  11.941  1.00  0.00     0.175 C 
BRANCH  22  23
HETATM   23  C   UNL     1      43.473  -9.796  12.821  1.00  0.00     0.022 C 
HETATM   24  C   UNL     1      43.004  -9.361  14.199  1.00  0.00     0.007 C 
ENDBRANCH  22  23
ENDBRANCH  21  22
ENDBRANCH  18  21
ENDBRANCH  12  15
ENDBRANCH   9  11
ENDBRANCH   7   9
ENDBRANCH   1   7
BRANCH   3  25
HETATM   25  O   UNL     1      41.222 -14.721   1.053  1.00  0.00    -0.360 OA
HETATM   26  H   UNL     1      41.555 -15.634   0.983  1.00  0.00     0.217 HD
ENDBRANCH   3  25
BRANCH   4  27
HETATM   27  C   UNL     1      42.836 -16.263   2.996  1.00  0.00     0.183 A 
HETATM   28  O   UNL     1      43.468 -16.840   4.068  1.00  0.00    -0.288 OA
HETATM   29  C   UNL     1      43.735 -18.113   3.653  1.00  0.00     0.112 A 
HETATM   30  C   UNL     1      43.237 -18.246   2.369  1.00  0.00     0.094 A 
HETATM   31  C   UNL     1      44.384 -19.115   4.374  1.00  0.00    -0.025 A 
HETATM   32  N   UNL     1      42.686 -17.058   1.953  1.00  0.00    -0.221 NA
HETATM   33  C   UNL     1      43.355 -19.479   1.718  1.00  0.00     0.041 A 
HETATM   34  C   UNL     1      44.001 -20.534   2.390  1.00  0.00    -0.059 A 
HETATM   35  C   UNL     1      44.499 -20.343   3.692  1.00  0.00     0.016 A 
HETATM   36  C   UNL     1      44.104 -21.881   1.734  1.00  0.00     0.048 C 
HETATM   37  C   UNL     1      44.957 -18.931   5.742  1.00  0.00     0.051 C 
ENDBRANCH   4  27
TORSDOF 9
ENDMDL
MODEL 8
REMARK VINA RESULT:      -7.5      3.220      7.774
REMARK  9 active torsions:
REMARK  status: ('A' for Active; 'I' for Inactive)
REMARK    1  A    between atoms: C_2  and  C_3 
REMARK    2  A    between atoms: C_3  and  O_4 
REMARK    3  A    between atoms: O_4  and  C_5 
REMARK    4  A    between atoms: C_8  and  C_9 
REMARK       I    between atoms: C_9  and  N_10 
REMARK    5  A    between atoms: N_10  and  C_11 
REMARK    6  A    between atoms: C_11  and  N_12 
REMARK    7  A    between atoms: N_12  and  C_13 
REMARK    8  A    between atoms: C_15  and  O_16 
REMARK    9  A    between atoms: C_17  and  C_18 
ROOT
HETATM    1  C   UNL     1      39.990 -12.005   4.240  1.00  0.00     0.036 A 
HETATM    2  C   UNL     1      41.056 -12.747   4.738  1.00  0.00     0.067 A 
HETATM    3  C   UNL     1      41.609 -12.452   5.991  1.00  0.00     0.082 A 
HETATM    4  C   UNL     1      41.131 -11.392   6.770  1.00  0.00     0.050 A 
HETATM    5  C   UNL     1      40.084 -10.622   6.247  1.00  0.00     0.021 A 
HETATM    6  C   UNL     1      39.522 -10.926   5.001  1.00  0.00     0.030 A 
ENDROOT
BRANCH   1   7
HETATM    7  N   UNL     1      39.344 -12.228   3.006  1.00  0.00    -0.333 N 
HETATM    8  H   UNL     1      38.365 -12.495   3.079  1.00  0.00     0.168 HD
BRANCH   7   9
HETATM    9  C   UNL     1      39.734 -12.157   1.709  1.00  0.00     0.179 C 
HETATM   10  S   UNL     1      40.777 -10.924   1.269  1.00  0.00    -0.040 SA
BRANCH   9  11
HETATM   11  N   UNL     1      39.324 -13.059   0.782  1.00  0.00    -0.299 N 
HETATM   12  C   UNL     1      40.058 -14.156   0.359  1.00  0.00     0.257 C 
HETATM   13  O   UNL     1      40.056 -14.506  -0.818  1.00  0.00    -0.267 OA
HETATM   14  H   UNL     1      38.923 -12.620  -0.035  1.00  0.00     0.171 HD
BRANCH  12  15
HETATM   15  C   UNL     1      40.795 -14.955   1.353  1.00  0.00     0.032 A 
HETATM   16  C   UNL     1      42.144 -14.654   1.553  1.00  0.00     0.020 A 
HETATM   17  C   UNL     1      42.868 -15.314   2.550  1.00  0.00     0.038 A 
HETATM   18  C   UNL     1      42.242 -16.267   3.358  1.00  0.00     0.068 A 
HETATM   19  C   UNL     1      40.890 -16.563   3.147  1.00  0.00     0.038 A 
HETATM   20  C   UNL     1      40.158 -15.901   2.159  1.00  0.00     0.020 A 
BRANCH  18  21
HETATM   21  O   UNL     1      42.834 -16.963   4.376  1.00  0.00    -0.351 OA
BRANCH  21  22
HETATM   22  C   UNL     1      42.750 -18.388   4.308  1.00  0.00     0.175 C 
BRANCH  22  23
HETATM   23  C   UNL     1      43.843 -18.887   3.369  1.00  0.00     0.022 C 
HETATM   24  C   UNL     1      43.261 -19.507   2.110  1.00  0.00     0.007 C 
ENDBRANCH  22  23
ENDBRANCH  21  22
ENDBRANCH  18  21
ENDBRANCH  12  15
ENDBRANCH   9  11
ENDBRANCH   7   9
ENDBRANCH   1   7
BRANCH   3  25
HETATM   25  O   UNL     1      42.655 -13.257   6.368  1.00  0.00    -0.360 OA
HETATM   26  H   UNL     1      43.491 -12.845   6.083  1.00  0.00     0.217 HD
ENDBRANCH   3  25
BRANCH   4  27
HETATM   27  C   UNL     1      41.682 -11.044   8.075  1.00  0.00     0.183 A 
HETATM   28  O   UNL     1      43.044 -11.160   8.202  1.00  0.00    -0.288 OA
HETATM   29  C   UNL     1      43.289 -10.802   9.497  1.00  0.00     0.112 A 
HETATM   30  C   UNL     1      42.076 -10.472  10.076  1.00  0.00     0.094 A 
HETATM   31  C   UNL     1      44.526 -10.764  10.139  1.00  0.00    -0.025 A 
HETATM   32  N   UNL     1      41.060 -10.649   9.170  1.00  0.00    -0.221 NA
HETATM   33  C   UNL     1      42.054 -10.037  11.405  1.00  0.00     0.041 A 
HETATM   34  C   UNL     1      43.269  -9.975  12.113  1.00  0.00    -0.059 A 
HETATM   35  C   UNL     1      44.475 -10.332  11.480  1.00  0.00     0.016 A 
HETATM   36  C   UNL     1      43.282  -9.470  13.528  1.00  0.00     0.048 C 
HETATM   37  C   UNL     1      45.817 -11.173   9.506  1.00  0.00     0.051 C 
ENDBRANCH   4  27
TORSDOF 9
ENDMDL
MODEL 9
REMARK VINA RESULT:      -7.5      2.630      4.597
REMARK  9 active torsions:
REMARK  status: ('A' for Active; 'I' for Inactive)
REMARK    1  A    between atoms: C_2  and  C_3 
REMARK    2  A    between atoms: C_3  and  O_4 
REMARK    3  A    between atoms: O_4  and  C_5 
REMARK    4  A    between atoms: C_8  and  C_9 
REMARK       I    between atoms: C_9  and  N_10 
REMARK    5  A    between atoms: N_10  and  C_11 
REMARK    6  A    between atoms: C_11  and  N_12 
REMARK    7  A    between atoms: N_12  and  C_13 
REMARK    8  A    between atoms: C_15  and  O_16 
REMARK    9  A    between atoms: C_17  and  C_18 
ROOT
HETATM    1  C   UNL     1      40.469 -12.196   5.236  1.00  0.00     0.036 A 
HETATM    2  C   UNL     1      39.860 -13.354   5.709  1.00  0.00     0.067 A 
HETATM    3  C   UNL     1      40.472 -14.603   5.543  1.00  0.00     0.082 A 
HETATM    4  C   UNL     1      41.697 -14.734   4.877  1.00  0.00     0.050 A 
HETATM    5  C   UNL     1      42.287 -13.571   4.367  1.00  0.00     0.021 A 
HETATM    6  C   UNL     1      41.681 -12.321   4.545  1.00  0.00     0.030 A 
ENDROOT
BRANCH   1   7
HETATM    7  N   UNL     1      39.954 -10.890   5.367  1.00  0.00    -0.333 N 
HETATM    8  H   UNL     1      40.462 -10.294   6.018  1.00  0.00     0.168 HD
BRANCH   7   9
HETATM    9  C   UNL     1      38.918 -10.221   4.804  1.00  0.00     0.179 C 
HETATM   10  S   UNL     1      38.782  -8.582   5.108  1.00  0.00    -0.040 SA
BRANCH   9  11
HETATM   11  N   UNL     1      38.018 -10.836   3.995  1.00  0.00    -0.299 N 
HETATM   12  C   UNL     1      38.065 -10.842   2.610  1.00  0.00     0.257 C 
HETATM   13  O   UNL     1      37.041 -10.750   1.938  1.00  0.00    -0.267 OA
HETATM   14  H   UNL     1      37.062 -10.657   4.273  1.00  0.00     0.171 HD
BRANCH  12  15
HETATM   15  C   UNL     1      39.361 -11.033   1.936  1.00  0.00     0.032 A 
HETATM   16  C   UNL     1      39.719 -12.335   1.580  1.00  0.00     0.020 A 
HETATM   17  C   UNL     1      40.891 -12.565   0.854  1.00  0.00     0.038 A 
HETATM   18  C   UNL     1      41.701 -11.493   0.470  1.00  0.00     0.068 A 
HETATM   19  C   UNL     1      41.335 -10.192   0.835  1.00  0.00     0.038 A 
HETATM   20  C   UNL     1      40.160  -9.954   1.553  1.00  0.00     0.020 A 
BRANCH  18  21
HETATM   21  O   UNL     1      42.856 -11.585  -0.257  1.00  0.00    -0.351 OA
BRANCH  21  22
HETATM   22  C   UNL     1      42.741 -12.131  -1.572  1.00  0.00     0.175 C 
BRANCH  22  23
HETATM   23  C   UNL     1      42.558 -10.978  -2.554  1.00  0.00     0.022 C 
HETATM   24  C   UNL     1      42.355 -11.478  -3.974  1.00  0.00     0.007 C 
ENDBRANCH  22  23
ENDBRANCH  21  22
ENDBRANCH  18  21
ENDBRANCH  12  15
ENDBRANCH   9  11
ENDBRANCH   7   9
ENDBRANCH   1   7
BRANCH   3  25
HETATM   25  O   UNL     1      39.771 -15.666   6.054  1.00  0.00    -0.360 OA
HETATM   26  H   UNL     1      40.357 -16.183   6.636  1.00  0.00     0.217 HD
ENDBRANCH   3  25
BRANCH   4  27
HETATM   27  C   UNL     1      42.366 -16.014   4.674  1.00  0.00     0.183 A 
HETATM   28  O   UNL     1      42.736 -16.301   3.384  1.00  0.00    -0.288 OA
HETATM   29  C   UNL     1      43.310 -17.538   3.468  1.00  0.00     0.112 A 
HETATM   30  C   UNL     1      43.276 -17.923   4.797  1.00  0.00     0.094 A 
HETATM   31  C   UNL     1      43.843 -18.291   2.423  1.00  0.00    -0.025 A 
HETATM   32  N   UNL     1      42.655 -16.957   5.551  1.00  0.00    -0.221 NA
HETATM   33  C   UNL     1      43.835 -19.153   5.162  1.00  0.00     0.041 A 
HETATM   34  C   UNL     1      44.391 -19.964   4.155  1.00  0.00    -0.059 A 
HETATM   35  C   UNL     1      44.390 -19.529   2.816  1.00  0.00     0.016 A 
HETATM   36  C   UNL     1      45.037 -21.269   4.522  1.00  0.00     0.048 C 
HETATM   37  C   UNL     1      43.823 -17.873   0.989  1.00  0.00     0.051 C 
ENDBRANCH   4  27
TORSDOF 9
ENDMDL
MODEL 10
REMARK VINA RESULT:      -7.4      3.677      7.338
REMARK  9 active torsions:
REMARK  status: ('A' for Active; 'I' for Inactive)
REMARK    1  A    between atoms: C_2  and  C_3 
REMARK    2  A    between atoms: C_3  and  O_4 
REMARK    3  A    between atoms: O_4  and  C_5 
REMARK    4  A    between atoms: C_8  and  C_9 
REMARK       I    between atoms: C_9  and  N_10 
REMARK    5  A    between atoms: N_10  and  C_11 
REMARK    6  A    between atoms: C_11  and  N_12 
REMARK    7  A    between atoms: N_12  and  C_13 
REMARK    8  A    between atoms: C_15  and  O_16 
REMARK    9  A    between atoms: C_17  and  C_18 
ROOT
HETATM    1  C   UNL     1      42.404 -13.512   3.741  1.00  0.00     0.036 A 
HETATM    2  C   UNL     1      41.173 -12.864   3.771  1.00  0.00     0.067 A 
HETATM    3  C   UNL     1      40.350 -12.841   2.637  1.00  0.00     0.082 A 
HETATM    4  C   UNL     1      40.744 -13.440   1.435  1.00  0.00     0.050 A 
HETATM    5  C   UNL     1      42.001 -14.056   1.398  1.00  0.00     0.021 A 
HETATM    6  C   UNL     1      42.818 -14.092   2.535  1.00  0.00     0.030 A 
ENDROOT
BRANCH   1   7
HETATM    7  N   UNL     1      43.299 -13.616   4.826  1.00  0.00    -0.333 N 
HETATM    8  H   UNL     1      44.152 -13.068   4.730  1.00  0.00     0.168 HD
BRANCH   7   9
HETATM    9  C   UNL     1      43.281 -14.286   6.005  1.00  0.00     0.179 C 
HETATM   10  S   UNL     1      44.706 -14.382   6.876  1.00  0.00    -0.040 SA
BRANCH   9  11
HETATM   11  N   UNL     1      42.149 -14.850   6.496  1.00  0.00    -0.299 N 
HETATM   12  C   UNL     1      41.508 -15.952   5.954  1.00  0.00     0.257 C 
HETATM   13  O   UNL     1      40.282 -16.021   5.917  1.00  0.00    -0.267 OA
HETATM   14  H   UNL     1      41.444 -14.165   6.729  1.00  0.00     0.171 HD
BRANCH  12  15
HETATM   15  C   UNL     1      42.313 -17.091   5.478  1.00  0.00     0.032 A 
HETATM   16  C   UNL     1      42.405 -17.287   4.098  1.00  0.00     0.020 A 
HETATM   17  C   UNL     1      43.232 -18.292   3.588  1.00  0.00     0.038 A 
HETATM   18  C   UNL     1      43.978 -19.094   4.454  1.00  0.00     0.068 A 
HETATM   19  C   UNL     1      43.876 -18.892   5.836  1.00  0.00     0.038 A 
HETATM   20  C   UNL     1      43.059 -17.884   6.353  1.00  0.00     0.020 A 
BRANCH  18  21
HETATM   21  O   UNL     1      44.835 -20.093   4.079  1.00  0.00    -0.351 OA
BRANCH  21  22
HETATM   22  C   UNL     1      44.555 -20.742   2.838  1.00  0.00     0.175 C 
BRANCH  22  23
HETATM   23  C   UNL     1      44.461 -22.243   3.094  1.00  0.00     0.022 C 
HETATM   24  C   UNL     1      44.756 -22.583   4.544  1.00  0.00     0.007 C 
ENDBRANCH  22  23
ENDBRANCH  21  22
ENDBRANCH  18  21
ENDBRANCH  12  15
ENDBRANCH   9  11
ENDBRANCH   7   9
ENDBRANCH   1   7
BRANCH   3  25
HETATM   25  O   UNL     1      39.163 -12.171   2.795  1.00  0.00    -0.360 OA
HETATM   26  H   UNL     1      38.740 -12.463   3.623  1.00  0.00     0.217 HD
ENDBRANCH   3  25
BRANCH   4  27
HETATM   27  C   UNL     1      39.924 -13.433   0.229  1.00  0.00     0.183 A 
HETATM   28  O   UNL     1      40.206 -14.407  -0.696  1.00  0.00    -0.288 OA
HETATM   29  C   UNL     1      39.327 -14.167  -1.713  1.00  0.00     0.112 A 
HETATM   30  C   UNL     1      38.551 -13.082  -1.346  1.00  0.00     0.094 A 
HETATM   31  C   UNL     1      39.211 -14.874  -2.909  1.00  0.00    -0.025 A 
HETATM   32  N   UNL     1      38.952 -12.610  -0.120  1.00  0.00    -0.221 NA
HETATM   33  C   UNL     1      37.541 -12.645  -2.210  1.00  0.00     0.041 A 
HETATM   34  C   UNL     1      37.370 -13.316  -3.436  1.00  0.00    -0.059 A 
HETATM   35  C   UNL     1      38.194 -14.408  -3.766  1.00  0.00     0.016 A 
HETATM   36  C   UNL     1      36.265 -12.898  -4.365  1.00  0.00     0.048 C 
HETATM   37  C   UNL     1      40.095 -16.013  -3.303  1.00  0.00     0.051 C 
ENDBRANCH   4  27
TORSDOF 9
ENDMDL
