MODEL 1
REMARK VINA RESULT:      -8.8      0.000      0.000
REMARK  9 active torsions:
REMARK  status: ('A' for Active; 'I' for Inactive)
REMARK    1  A    between atoms: C_2  and  N_3 
REMARK    2  A    between atoms: C_4  and  S_5 
REMARK    3  A    between atoms: S_5  and  C_6 
REMARK    4  A    between atoms: C_6  and  C_7 
REMARK       I    between atoms: C_7  and  N_8 
REMARK    5  A    between atoms: N_8  and  C_9 
REMARK    6  A    between atoms: C_12  and  O_13 
REMARK    7  A    between atoms: C_19  and  C_20 
REMARK    8  A    between atoms: C_23  and  S_24 
REMARK    9  A    between atoms: S_24  and  N_25 
ROOT
HETATM    1  N   UNL     1      40.792 -14.402   4.610  1.00  0.00    -0.308 N 
HETATM    2  C   UNL     1      40.565 -14.649   3.282  1.00  0.00     0.192 A 
HETATM    3  N   UNL     1      39.963 -13.623   2.732  1.00  0.00    -0.122 NA
HETATM    4  N   UNL     1      39.830 -12.656   3.692  1.00  0.00    -0.128 NA
HETATM    5  C   UNL     1      40.349 -13.109   4.822  1.00  0.00     0.164 A 
ENDROOT
BRANCH   5   6
HETATM    6  C   UNL     1      40.365 -12.359   6.077  1.00  0.00     0.012 A 
HETATM    7  C   UNL     1      41.504 -11.610   6.408  1.00  0.00     0.017 A 
HETATM    8  C   UNL     1      41.568 -10.895   7.605  1.00  0.00     0.026 A 
HETATM    9  C   UNL     1      40.488 -10.942   8.490  1.00  0.00     0.074 A 
HETATM   10  C   UNL     1      39.353 -11.699   8.190  1.00  0.00     0.026 A 
HETATM   11  C   UNL     1      39.299 -12.409   6.986  1.00  0.00     0.017 A 
BRANCH   9  12
HETATM   12  S   UNL     1      40.575 -10.048  10.012  1.00  0.00     0.243 S 
HETATM   13  O   UNL     1      41.584  -9.025   9.876  1.00  0.00    -0.206 OA
HETATM   14  O   UNL     1      39.236  -9.731  10.459  1.00  0.00    -0.206 OA
BRANCH  12  15
HETATM   15  N   UNL     1      41.161 -11.206  11.133  1.00  0.00    -0.203 NA
HETATM   16  C   UNL     1      40.508 -11.210  12.480  1.00  0.00     0.135 C 
HETATM   17  C   UNL     1      41.064 -10.119  13.422  1.00  0.00     0.250 C 
HETATM   18  N   UNL     1      42.589 -10.160  13.478  1.00  0.00    -0.073 N 
HETATM   19  H   UNL     1      42.858 -11.058  13.899  1.00  0.00     0.279 HD
HETATM   20  C   UNL     1      43.141  -9.075  14.360  1.00  0.00     0.269 C 
HETATM   21  C   UNL     1      43.206 -10.108  12.081  1.00  0.00     0.250 C 
HETATM   22  C   UNL     1      42.653 -11.262  11.230  1.00  0.00     0.135 C 
ENDBRANCH  12  15
ENDBRANCH   9  12
ENDBRANCH   5   6
BRANCH   1  23
HETATM   23  C   UNL     1      41.236 -15.353   5.610  1.00  0.00     0.128 C 
HETATM   24  C   UNL     1      42.727 -15.292   5.899  1.00  0.00     0.027 C 
ENDBRANCH   1  23
BRANCH   2  25
HETATM   25  S   UNL     1      41.018 -16.106   2.472  1.00  0.00    -0.081 SA
BRANCH  25  26
HETATM   26  C   UNL     1      42.746 -15.763   2.040  1.00  0.00     0.185 C 
BRANCH  26  27
HETATM   27  C   UNL     1      43.554 -17.046   1.907  1.00  0.00     0.231 C 
HETATM   28  N   UNL     1      42.996 -18.107   2.599  1.00  0.00    -0.327 N 
HETATM   29  H   UNL     1      42.028 -17.984   2.895  1.00  0.00     0.169 HD
HETATM   30  O   UNL     1      44.592 -17.075   1.249  1.00  0.00    -0.272 OA
BRANCH  28  31
HETATM   31  C   UNL     1      43.542 -19.385   2.820  1.00  0.00     0.034 A 
HETATM   32  C   UNL     1      43.297 -20.357   1.838  1.00  0.00     0.032 A 
HETATM   33  C   UNL     1      43.766 -21.665   1.993  1.00  0.00     0.039 A 
HETATM   34  C   UNL     1      44.487 -21.997   3.133  1.00  0.00     0.065 A 
HETATM   35  C   UNL     1      44.747 -21.045   4.110  1.00  0.00     0.039 A 
HETATM   36  C   UNL     1      44.271 -19.739   3.956  1.00  0.00     0.032 A 
BRANCH  34  37
HETATM   37  O   UNL     1      44.957 -23.261   3.333  1.00  0.00    -0.361 OA
HETATM   38  H   UNL     1      45.900 -23.283   3.105  1.00  0.00     0.217 HD
ENDBRANCH  34  37
ENDBRANCH  28  31
ENDBRANCH  26  27
ENDBRANCH  25  26
ENDBRANCH   2  25
TORSDOF 9
ENDMDL
MODEL 2
REMARK VINA RESULT:      -8.7      5.460      8.807
REMARK  9 active torsions:
REMARK  status: ('A' for Active; 'I' for Inactive)
REMARK    1  A    between atoms: C_2  and  N_3 
REMARK    2  A    between atoms: C_4  and  S_5 
REMARK    3  A    between atoms: S_5  and  C_6 
REMARK    4  A    between atoms: C_6  and  C_7 
REMARK       I    between atoms: C_7  and  N_8 
REMARK    5  A    between atoms: N_8  and  C_9 
REMARK    6  A    between atoms: C_12  and  O_13 
REMARK    7  A    between atoms: C_19  and  C_20 
REMARK    8  A    between atoms: C_23  and  S_24 
REMARK    9  A    between atoms: S_24  and  N_25 
ROOT
HETATM    1  N   UNL     1      42.540 -16.241   5.277  1.00  0.00    -0.308 N 
HETATM    2  C   UNL     1      42.298 -17.026   6.374  1.00  0.00     0.192 A 
HETATM    3  N   UNL     1      41.276 -17.814   6.143  1.00  0.00    -0.122 NA
HETATM    4  N   UNL     1      40.860 -17.589   4.859  1.00  0.00    -0.128 NA
HETATM    5  C   UNL     1      41.631 -16.658   4.322  1.00  0.00     0.164 A 
ENDROOT
BRANCH   5   6
HETATM    6  C   UNL     1      41.469 -16.139   2.964  1.00  0.00     0.012 A 
HETATM    7  C   UNL     1      40.419 -15.246   2.698  1.00  0.00     0.017 A 
HETATM    8  C   UNL     1      40.217 -14.742   1.412  1.00  0.00     0.026 A 
HETATM    9  C   UNL     1      41.062 -15.148   0.376  1.00  0.00     0.074 A 
HETATM   10  C   UNL     1      42.098 -16.053   0.615  1.00  0.00     0.026 A 
HETATM   11  C   UNL     1      42.294 -16.549   1.908  1.00  0.00     0.017 A 
BRANCH   9  12
HETATM   12  S   UNL     1      40.797 -14.521  -1.255  1.00  0.00     0.243 S 
HETATM   13  O   UNL     1      40.971 -15.608  -2.189  1.00  0.00    -0.206 OA
HETATM   14  O   UNL     1      39.604 -13.702  -1.265  1.00  0.00    -0.206 OA
BRANCH  12  15
HETATM   15  N   UNL     1      42.096 -13.426  -1.487  1.00  0.00    -0.203 NA
HETATM   16  C   UNL     1      42.021 -12.141  -0.721  1.00  0.00     0.135 C 
HETATM   17  C   UNL     1      41.107 -11.092  -1.392  1.00  0.00     0.250 C 
HETATM   18  N   UNL     1      41.462 -10.909  -2.865  1.00  0.00    -0.073 N 
HETATM   19  H   UNL     1      42.413 -10.521  -2.907  1.00  0.00     0.279 HD
HETATM   20  C   UNL     1      40.551  -9.919  -3.536  1.00  0.00     0.269 C 
HETATM   21  C   UNL     1      41.481 -12.242  -3.611  1.00  0.00     0.250 C 
HETATM   22  C   UNL     1      42.460 -13.205  -2.921  1.00  0.00     0.135 C 
ENDBRANCH  12  15
ENDBRANCH   9  12
ENDBRANCH   5   6
BRANCH   1  23
HETATM   23  C   UNL     1      43.434 -15.102   5.201  1.00  0.00     0.128 C 
HETATM   24  C   UNL     1      42.788 -13.784   5.596  1.00  0.00     0.027 C 
ENDBRANCH   1  23
BRANCH   2  25
HETATM   25  S   UNL     1      43.221 -16.971   7.833  1.00  0.00    -0.081 SA
BRANCH  25  26
HETATM   26  C   UNL     1      44.706 -17.900   7.362  1.00  0.00     0.185 C 
BRANCH  26  27
HETATM   27  C   UNL     1      44.356 -19.136   6.544  1.00  0.00     0.231 C 
HETATM   28  N   UNL     1      44.861 -19.089   5.256  1.00  0.00    -0.327 N 
HETATM   29  H   UNL     1      45.583 -18.389   5.088  1.00  0.00     0.169 HD
HETATM   30  O   UNL     1      43.684 -20.044   7.027  1.00  0.00    -0.272 OA
BRANCH  28  31
HETATM   31  C   UNL     1      44.611 -19.974   4.191  1.00  0.00     0.034 A 
HETATM   32  C   UNL     1      43.947 -19.448   3.073  1.00  0.00     0.032 A 
HETATM   33  C   UNL     1      43.620 -20.263   1.985  1.00  0.00     0.039 A 
HETATM   34  C   UNL     1      43.965 -21.608   2.017  1.00  0.00     0.065 A 
HETATM   35  C   UNL     1      44.632 -22.144   3.112  1.00  0.00     0.039 A 
HETATM   36  C   UNL     1      44.950 -21.328   4.202  1.00  0.00     0.032 A 
BRANCH  34  37
HETATM   37  O   UNL     1      43.660 -22.445   0.986  1.00  0.00    -0.361 OA
HETATM   38  H   UNL     1      44.481 -22.842   0.653  1.00  0.00     0.217 HD
ENDBRANCH  34  37
ENDBRANCH  28  31
ENDBRANCH  26  27
ENDBRANCH  25  26
ENDBRANCH   2  25
TORSDOF 9
ENDMDL
MODEL 3
REMARK VINA RESULT:      -8.5      5.496      8.826
REMARK  9 active torsions:
REMARK  status: ('A' for Active; 'I' for Inactive)
REMARK    1  A    between atoms: C_2  and  N_3 
REMARK    2  A    between atoms: C_4  and  S_5 
REMARK    3  A    between atoms: S_5  and  C_6 
REMARK    4  A    between atoms: C_6  and  C_7 
REMARK       I    between atoms: C_7  and  N_8 
REMARK    5  A    between atoms: N_8  and  C_9 
REMARK    6  A    between atoms: C_12  and  O_13 
REMARK    7  A    between atoms: C_19  and  C_20 
REMARK    8  A    between atoms: C_23  and  S_24 
REMARK    9  A    between atoms: S_24  and  N_25 
ROOT
HETATM    1  N   UNL     1      42.647 -16.152   5.617  1.00  0.00    -0.308 N 
HETATM    2  C   UNL     1      43.466 -16.119   6.716  1.00  0.00     0.192 A 
HETATM    3  N   UNL     1      44.346 -15.156   6.588  1.00  0.00    -0.122 NA
HETATM    4  N   UNL     1      44.082 -14.504   5.414  1.00  0.00    -0.128 NA
HETATM    5  C   UNL     1      43.044 -15.084   4.833  1.00  0.00     0.164 A 
ENDROOT
BRANCH   5   6
HETATM    6  C   UNL     1      42.489 -14.673   3.545  1.00  0.00     0.012 A 
HETATM    7  C   UNL     1      41.769 -13.471   3.465  1.00  0.00     0.017 A 
HETATM    8  C   UNL     1      41.206 -13.052   2.258  1.00  0.00     0.026 A 
HETATM    9  C   UNL     1      41.349 -13.851   1.122  1.00  0.00     0.074 A 
HETATM   10  C   UNL     1      42.042 -15.061   1.184  1.00  0.00     0.026 A 
HETATM   11  C   UNL     1      42.605 -15.470   2.397  1.00  0.00     0.017 A 
BRANCH   9  12
HETATM   12  S   UNL     1      40.624 -13.326  -0.403  1.00  0.00     0.243 S 
HETATM   13  O   UNL     1      39.627 -14.298  -0.784  1.00  0.00    -0.206 OA
HETATM   14  O   UNL     1      40.311 -11.915  -0.324  1.00  0.00    -0.206 OA
BRANCH  12  15
HETATM   15  N   UNL     1      41.913 -13.439  -1.528  1.00  0.00    -0.203 NA
HETATM   16  C   UNL     1      42.751 -12.209  -1.696  1.00  0.00     0.135 C 
HETATM   17  C   UNL     1      42.109 -11.168  -2.640  1.00  0.00     0.250 C 
HETATM   18  N   UNL     1      41.681 -11.805  -3.959  1.00  0.00    -0.073 N 
HETATM   19  H   UNL     1      42.532 -12.129  -4.436  1.00  0.00     0.279 HD
HETATM   20  C   UNL     1      41.019 -10.807  -4.868  1.00  0.00     0.269 C 
HETATM   21  C   UNL     1      40.792 -13.027  -3.733  1.00  0.00     0.250 C 
HETATM   22  C   UNL     1      41.527 -14.041  -2.842  1.00  0.00     0.135 C 
ENDBRANCH  12  15
ENDBRANCH   9  12
ENDBRANCH   5   6
BRANCH   1  23
HETATM   23  C   UNL     1      41.693 -17.188   5.272  1.00  0.00     0.128 C 
HETATM   24  C   UNL     1      40.359 -17.060   5.990  1.00  0.00     0.027 C 
ENDBRANCH   1  23
BRANCH   2  25
HETATM   25  S   UNL     1      43.335 -17.196   8.059  1.00  0.00    -0.081 SA
BRANCH  25  26
HETATM   26  C   UNL     1      44.683 -18.363   7.724  1.00  0.00     0.185 C 
BRANCH  26  27
HETATM   27  C   UNL     1      44.248 -19.457   6.759  1.00  0.00     0.231 C 
HETATM   28  N   UNL     1      44.789 -19.306   5.494  1.00  0.00    -0.327 N 
HETATM   29  H   UNL     1      45.575 -18.659   5.422  1.00  0.00     0.169 HD
HETATM   30  O   UNL     1      43.484 -20.350   7.118  1.00  0.00    -0.272 OA
BRANCH  28  31
HETATM   31  C   UNL     1      44.491 -20.033   4.327  1.00  0.00     0.034 A 
HETATM   32  C   UNL     1      44.796 -21.402   4.338  1.00  0.00     0.032 A 
HETATM   33  C   UNL     1      44.571 -22.195   3.209  1.00  0.00     0.039 A 
HETATM   34  C   UNL     1      44.034 -21.614   2.068  1.00  0.00     0.065 A 
HETATM   35  C   UNL     1      43.717 -20.262   2.042  1.00  0.00     0.039 A 
HETATM   36  C   UNL     1      43.949 -19.469   3.170  1.00  0.00     0.032 A 
BRANCH  34  37
HETATM   37  O   UNL     1      43.806 -22.344   0.939  1.00  0.00    -0.361 OA
HETATM   38  H   UNL     1      43.203 -23.073   1.155  1.00  0.00     0.217 HD
ENDBRANCH  34  37
ENDBRANCH  28  31
ENDBRANCH  26  27
ENDBRANCH  25  26
ENDBRANCH   2  25
TORSDOF 9
ENDMDL
MODEL 4
REMARK VINA RESULT:      -8.4      1.636      2.373
REMARK  9 active torsions:
REMARK  status: ('A' for Active; 'I' for Inactive)
REMARK    1  A    between atoms: C_2  and  N_3 
REMARK    2  A    between atoms: C_4  and  S_5 
REMARK    3  A    between atoms: S_5  and  C_6 
REMARK    4  A    between atoms: C_6  and  C_7 
REMARK       I    between atoms: C_7  and  N_8 
REMARK    5  A    between atoms: N_8  and  C_9 
REMARK    6  A    between atoms: C_12  and  O_13 
REMARK    7  A    between atoms: C_19  and  C_20 
REMARK    8  A    between atoms: C_23  and  S_24 
REMARK    9  A    between atoms: S_24  and  N_25 
ROOT
HETATM    1  N   UNL     1      40.708 -14.987   3.280  1.00  0.00    -0.308 N 
HETATM    2  C   UNL     1      40.967 -16.295   2.968  1.00  0.00     0.192 A 
HETATM    3  N   UNL     1      41.348 -16.945   4.041  1.00  0.00    -0.122 NA
HETATM    4  N   UNL     1      41.295 -16.073   5.094  1.00  0.00    -0.128 NA
HETATM    5  C   UNL     1      40.888 -14.895   4.648  1.00  0.00     0.164 A 
ENDROOT
BRANCH   5   6
HETATM    6  C   UNL     1      40.735 -13.708   5.487  1.00  0.00     0.012 A 
HETATM    7  C   UNL     1      39.485 -13.440   6.067  1.00  0.00     0.017 A 
HETATM    8  C   UNL     1      39.292 -12.306   6.859  1.00  0.00     0.026 A 
HETATM    9  C   UNL     1      40.354 -11.421   7.060  1.00  0.00     0.074 A 
HETATM   10  C   UNL     1      41.599 -11.658   6.474  1.00  0.00     0.026 A 
HETATM   11  C   UNL     1      41.783 -12.798   5.685  1.00  0.00     0.017 A 
BRANCH   9  12
HETATM   12  S   UNL     1      40.104  -9.979   8.051  1.00  0.00     0.243 S 
HETATM   13  O   UNL     1      41.240  -9.107   7.870  1.00  0.00    -0.206 OA
HETATM   14  O   UNL     1      38.750  -9.501   7.869  1.00  0.00    -0.206 OA
BRANCH  12  15
HETATM   15  N   UNL     1      40.159 -10.574   9.658  1.00  0.00    -0.203 NA
HETATM   16  C   UNL     1      39.345  -9.825  10.667  1.00  0.00     0.135 C 
HETATM   17  C   UNL     1      40.051  -8.552  11.187  1.00  0.00     0.250 C 
HETATM   18  N   UNL     1      41.474  -8.858  11.649  1.00  0.00    -0.073 N 
HETATM   19  H   UNL     1      41.406  -9.491  12.456  1.00  0.00     0.279 HD
HETATM   20  C   UNL     1      42.182  -7.618  12.118  1.00  0.00     0.269 C 
HETATM   21  C   UNL     1      42.275  -9.582  10.568  1.00  0.00     0.250 C 
HETATM   22  C   UNL     1      41.540 -10.866  10.154  1.00  0.00     0.135 C 
ENDBRANCH  12  15
ENDBRANCH   9  12
ENDBRANCH   5   6
BRANCH   1  23
HETATM   23  C   UNL     1      40.471 -13.899   2.351  1.00  0.00     0.128 C 
HETATM   24  C   UNL     1      41.735 -13.179   1.911  1.00  0.00     0.027 C 
ENDBRANCH   1  23
BRANCH   2  25
HETATM   25  S   UNL     1      40.805 -16.968   1.385  1.00  0.00    -0.081 SA
BRANCH  25  26
HETATM   26  C   UNL     1      42.462 -16.692   0.699  1.00  0.00     0.185 C 
BRANCH  26  27
HETATM   27  C   UNL     1      43.480 -17.654   1.294  1.00  0.00     0.231 C 
HETATM   28  N   UNL     1      42.910 -18.836   1.735  1.00  0.00    -0.327 N 
HETATM   29  H   UNL     1      41.965 -19.024   1.400  1.00  0.00     0.169 HD
HETATM   30  O   UNL     1      44.670 -17.354   1.361  1.00  0.00    -0.272 OA
BRANCH  28  31
HETATM   31  C   UNL     1      43.516 -19.875   2.464  1.00  0.00     0.034 A 
HETATM   32  C   UNL     1      43.949 -19.568   3.763  1.00  0.00     0.032 A 
HETATM   33  C   UNL     1      44.599 -20.527   4.546  1.00  0.00     0.039 A 
HETATM   34  C   UNL     1      44.809 -21.798   4.027  1.00  0.00     0.065 A 
HETATM   35  C   UNL     1      44.378 -22.122   2.747  1.00  0.00     0.039 A 
HETATM   36  C   UNL     1      43.736 -21.159   1.963  1.00  0.00     0.032 A 
BRANCH  34  37
HETATM   37  O   UNL     1      45.446 -22.764   4.749  1.00  0.00    -0.361 OA
HETATM   38  H   UNL     1      46.404 -22.648   4.646  1.00  0.00     0.217 HD
ENDBRANCH  34  37
ENDBRANCH  28  31
ENDBRANCH  26  27
ENDBRANCH  25  26
ENDBRANCH   2  25
TORSDOF 9
ENDMDL
MODEL 5
REMARK VINA RESULT:      -8.0      5.616      8.602
REMARK  9 active torsions:
REMARK  status: ('A' for Active; 'I' for Inactive)
REMARK    1  A    between atoms: C_2  and  N_3 
REMARK    2  A    between atoms: C_4  and  S_5 
REMARK    3  A    between atoms: S_5  and  C_6 
REMARK    4  A    between atoms: C_6  and  C_7 
REMARK       I    between atoms: C_7  and  N_8 
REMARK    5  A    between atoms: N_8  and  C_9 
REMARK    6  A    between atoms: C_12  and  O_13 
REMARK    7  A    between atoms: C_19  and  C_20 
REMARK    8  A    between atoms: C_23  and  S_24 
REMARK    9  A    between atoms: S_24  and  N_25 
ROOT
HETATM    1  N   UNL     1      42.646 -16.216   5.538  1.00  0.00    -0.308 N 
HETATM    2  C   UNL     1      43.420 -16.149   6.667  1.00  0.00     0.192 A 
HETATM    3  N   UNL     1      44.277 -15.162   6.564  1.00  0.00    -0.122 NA
HETATM    4  N   UNL     1      44.040 -14.529   5.375  1.00  0.00    -0.128 NA
HETATM    5  C   UNL     1      43.042 -15.143   4.760  1.00  0.00     0.164 A 
ENDROOT
BRANCH   5   6
HETATM    6  C   UNL     1      42.525 -14.760   3.447  1.00  0.00     0.012 A 
HETATM    7  C   UNL     1      42.810 -15.573   2.340  1.00  0.00     0.017 A 
HETATM    8  C   UNL     1      42.352 -15.233   1.065  1.00  0.00     0.026 A 
HETATM    9  C   UNL     1      41.616 -14.058   0.892  1.00  0.00     0.074 A 
HETATM   10  C   UNL     1      41.341 -13.224   1.978  1.00  0.00     0.026 A 
HETATM   11  C   UNL     1      41.801 -13.576   3.251  1.00  0.00     0.017 A 
BRANCH   9  12
HETATM   12  S   UNL     1      41.049 -13.621  -0.724  1.00  0.00     0.243 S 
HETATM   13  O   UNL     1      42.189 -13.199  -1.502  1.00  0.00    -0.206 OA
HETATM   14  O   UNL     1      40.143 -14.641  -1.206  1.00  0.00    -0.206 OA
BRANCH  12  15
HETATM   15  N   UNL     1      40.068 -12.240  -0.452  1.00  0.00    -0.203 NA
HETATM   16  C   UNL     1      38.617 -12.503  -0.192  1.00  0.00     0.135 C 
HETATM   17  C   UNL     1      37.807 -12.739  -1.486  1.00  0.00     0.250 C 
HETATM   18  N   UNL     1      38.058 -11.632  -2.507  1.00  0.00    -0.073 N 
HETATM   19  H   UNL     1      37.699 -10.756  -2.106  1.00  0.00     0.279 HD
HETATM   20  C   UNL     1      37.304 -11.875  -3.784  1.00  0.00     0.269 C 
HETATM   21  C   UNL     1      39.550 -11.435  -2.769  1.00  0.00     0.250 C 
HETATM   22  C   UNL     1      40.272 -11.141  -1.445  1.00  0.00     0.135 C 
ENDBRANCH  12  15
ENDBRANCH   9  12
ENDBRANCH   5   6
BRANCH   1  23
HETATM   23  C   UNL     1      41.736 -17.282   5.167  1.00  0.00     0.128 C 
HETATM   24  C   UNL     1      40.364 -17.172   5.811  1.00  0.00     0.027 C 
ENDBRANCH   1  23
BRANCH   2  25
HETATM   25  S   UNL     1      43.269 -17.219   8.015  1.00  0.00    -0.081 SA
BRANCH  25  26
HETATM   26  C   UNL     1      44.660 -18.351   7.741  1.00  0.00     0.185 C 
BRANCH  26  27
HETATM   27  C   UNL     1      44.274 -19.496   6.814  1.00  0.00     0.231 C 
HETATM   28  N   UNL     1      44.880 -19.409   5.572  1.00  0.00    -0.327 N 
HETATM   29  H   UNL     1      45.668 -18.766   5.507  1.00  0.00     0.169 HD
HETATM   30  O   UNL     1      43.493 -20.371   7.181  1.00  0.00    -0.272 OA
BRANCH  28  31
HETATM   31  C   UNL     1      44.641 -20.198   4.431  1.00  0.00     0.034 A 
HETATM   32  C   UNL     1      44.132 -19.540   3.302  1.00  0.00     0.032 A 
HETATM   33  C   UNL     1      43.827 -20.250   2.137  1.00  0.00     0.039 A 
HETATM   34  C   UNL     1      44.037 -21.622   2.104  1.00  0.00     0.065 A 
HETATM   35  C   UNL     1      44.550 -22.289   3.210  1.00  0.00     0.039 A 
HETATM   36  C   UNL     1      44.848 -21.577   4.376  1.00  0.00     0.032 A 
BRANCH  34  37
HETATM   37  O   UNL     1      43.745 -22.360   0.995  1.00  0.00    -0.361 OA
HETATM   38  H   UNL     1      44.571 -22.552   0.522  1.00  0.00     0.217 HD
ENDBRANCH  34  37
ENDBRANCH  28  31
ENDBRANCH  26  27
ENDBRANCH  25  26
ENDBRANCH   2  25
TORSDOF 9
ENDMDL
MODEL 6
REMARK VINA RESULT:      -7.9      5.405      9.546
REMARK  9 active torsions:
REMARK  status: ('A' for Active; 'I' for Inactive)
REMARK    1  A    between atoms: C_2  and  N_3 
REMARK    2  A    between atoms: C_4  and  S_5 
REMARK    3  A    between atoms: S_5  and  C_6 
REMARK    4  A    between atoms: C_6  and  C_7 
REMARK       I    between atoms: C_7  and  N_8 
REMARK    5  A    between atoms: N_8  and  C_9 
REMARK    6  A    between atoms: C_12  and  O_13 
REMARK    7  A    between atoms: C_19  and  C_20 
REMARK    8  A    between atoms: C_23  and  S_24 
REMARK    9  A    between atoms: S_24  and  N_25 
ROOT
HETATM    1  N   UNL     1      41.838 -14.832   3.561  1.00  0.00    -0.308 N 
HETATM    2  C   UNL     1      42.838 -15.051   4.472  1.00  0.00     0.192 A 
HETATM    3  N   UNL     1      43.971 -15.267   3.848  1.00  0.00    -0.122 NA
HETATM    4  N   UNL     1      43.737 -15.141   2.506  1.00  0.00    -0.128 NA
HETATM    5  C   UNL     1      42.458 -14.856   2.325  1.00  0.00     0.164 A 
ENDROOT
BRANCH   5   6
HETATM    6  C   UNL     1      41.834 -14.674   1.015  1.00  0.00     0.012 A 
HETATM    7  C   UNL     1      41.498 -15.806   0.258  1.00  0.00     0.017 A 
HETATM    8  C   UNL     1      40.918 -15.676  -1.006  1.00  0.00     0.026 A 
HETATM    9  C   UNL     1      40.689 -14.401  -1.527  1.00  0.00     0.074 A 
HETATM   10  C   UNL     1      41.037 -13.261  -0.799  1.00  0.00     0.026 A 
HETATM   11  C   UNL     1      41.614 -13.402   0.468  1.00  0.00     0.017 A 
BRANCH   9  12
HETATM   12  S   UNL     1      39.969 -14.237  -3.133  1.00  0.00     0.243 S 
HETATM   13  O   UNL     1      40.149 -12.873  -3.569  1.00  0.00    -0.206 OA
HETATM   14  O   UNL     1      40.379 -15.353  -3.958  1.00  0.00    -0.206 OA
BRANCH  12  15
HETATM   15  N   UNL     1      38.293 -14.475  -2.855  1.00  0.00    -0.203 NA
HETATM   16  C   UNL     1      37.387 -14.199  -4.014  1.00  0.00     0.135 C 
HETATM   17  C   UNL     1      37.075 -12.696  -4.191  1.00  0.00     0.250 C 
HETATM   18  N   UNL     1      36.605 -12.070  -2.880  1.00  0.00    -0.073 N 
HETATM   19  H   UNL     1      35.712 -12.515  -2.629  1.00  0.00     0.279 HD
HETATM   20  C   UNL     1      36.337 -10.599  -3.034  1.00  0.00     0.269 C 
HETATM   21  C   UNL     1      37.586 -12.342  -1.741  1.00  0.00     0.250 C 
HETATM   22  C   UNL     1      37.791 -13.857  -1.588  1.00  0.00     0.135 C 
ENDBRANCH  12  15
ENDBRANCH   9  12
ENDBRANCH   5   6
BRANCH   1  23
HETATM   23  C   UNL     1      40.414 -14.768   3.829  1.00  0.00     0.128 C 
HETATM   24  C   UNL     1      39.871 -13.353   3.935  1.00  0.00     0.027 C 
ENDBRANCH   1  23
BRANCH   2  25
HETATM   25  S   UNL     1      42.614 -15.037   6.184  1.00  0.00    -0.081 SA
BRANCH  25  26
HETATM   26  C   UNL     1      43.466 -16.562   6.676  1.00  0.00     0.185 C 
BRANCH  26  27
HETATM   27  C   UNL     1      43.045 -17.741   5.810  1.00  0.00     0.231 C 
HETATM   28  N   UNL     1      44.098 -18.285   5.093  1.00  0.00    -0.327 N 
HETATM   29  H   UNL     1      45.031 -18.012   5.401  1.00  0.00     0.169 HD
HETATM   30  O   UNL     1      41.877 -18.120   5.781  1.00  0.00    -0.272 OA
BRANCH  28  31
HETATM   31  C   UNL     1      44.050 -19.272   4.092  1.00  0.00     0.034 A 
HETATM   32  C   UNL     1      44.647 -20.506   4.391  1.00  0.00     0.032 A 
HETATM   33  C   UNL     1      44.683 -21.532   3.442  1.00  0.00     0.039 A 
HETATM   34  C   UNL     1      44.115 -21.321   2.192  1.00  0.00     0.065 A 
HETATM   35  C   UNL     1      43.511 -20.109   1.883  1.00  0.00     0.039 A 
HETATM   36  C   UNL     1      43.482 -19.082   2.831  1.00  0.00     0.032 A 
BRANCH  34  37
HETATM   37  O   UNL     1      44.134 -22.287   1.231  1.00  0.00    -0.361 OA
HETATM   38  H   UNL     1      44.869 -22.894   1.413  1.00  0.00     0.217 HD
ENDBRANCH  34  37
ENDBRANCH  28  31
ENDBRANCH  26  27
ENDBRANCH  25  26
ENDBRANCH   2  25
TORSDOF 9
ENDMDL
MODEL 7
REMARK VINA RESULT:      -7.9      1.537      2.343
REMARK  9 active torsions:
REMARK  status: ('A' for Active; 'I' for Inactive)
REMARK    1  A    between atoms: C_2  and  N_3 
REMARK    2  A    between atoms: C_4  and  S_5 
REMARK    3  A    between atoms: S_5  and  C_6 
REMARK    4  A    between atoms: C_6  and  C_7 
REMARK       I    between atoms: C_7  and  N_8 
REMARK    5  A    between atoms: N_8  and  C_9 
REMARK    6  A    between atoms: C_12  and  O_13 
REMARK    7  A    between atoms: C_19  and  C_20 
REMARK    8  A    between atoms: C_23  and  S_24 
REMARK    9  A    between atoms: S_24  and  N_25 
ROOT
HETATM    1  N   UNL     1      39.873 -13.281   4.070  1.00  0.00    -0.308 N 
HETATM    2  C   UNL     1      39.981 -14.500   3.455  1.00  0.00     0.192 A 
HETATM    3  N   UNL     1      40.529 -15.366   4.273  1.00  0.00    -0.122 NA
HETATM    4  N   UNL     1      40.744 -14.732   5.466  1.00  0.00    -0.128 NA
HETATM    5  C   UNL     1      40.329 -13.480   5.360  1.00  0.00     0.164 A 
ENDROOT
BRANCH   5   6
HETATM    6  C   UNL     1      40.423 -12.491   6.432  1.00  0.00     0.012 A 
HETATM    7  C   UNL     1      39.314 -12.285   7.268  1.00  0.00     0.017 A 
HETATM    8  C   UNL     1      39.355 -11.336   8.291  1.00  0.00     0.026 A 
HETATM    9  C   UNL     1      40.510 -10.572   8.471  1.00  0.00     0.074 A 
HETATM   10  C   UNL     1      41.616 -10.745   7.637  1.00  0.00     0.026 A 
HETATM   11  C   UNL     1      41.566 -11.701   6.616  1.00  0.00     0.017 A 
BRANCH   9  12
HETATM   12  S   UNL     1      40.556  -9.361   9.758  1.00  0.00     0.243 S 
HETATM   13  O   UNL     1      41.932  -9.177  10.153  1.00  0.00    -0.206 OA
HETATM   14  O   UNL     1      39.720  -8.238   9.390  1.00  0.00    -0.206 OA
BRANCH  12  15
HETATM   15  N   UNL     1      39.741 -10.120  11.062  1.00  0.00    -0.203 NA
HETATM   16  C   UNL     1      39.346  -9.231  12.200  1.00  0.00     0.135 C 
HETATM   17  C   UNL     1      40.509  -8.953  13.179  1.00  0.00     0.250 C 
HETATM   18  N   UNL     1      41.186 -10.250  13.617  1.00  0.00    -0.073 N 
HETATM   19  H   UNL     1      40.494 -10.794  14.149  1.00  0.00     0.279 HD
HETATM   20  C   UNL     1      42.344  -9.986  14.538  1.00  0.00     0.269 C 
HETATM   21  C   UNL     1      41.609 -11.098  12.419  1.00  0.00     0.250 C 
HETATM   22  C   UNL     1      40.387 -11.384  11.533  1.00  0.00     0.135 C 
ENDBRANCH  12  15
ENDBRANCH   9  12
ENDBRANCH   5   6
BRANCH   1  23
HETATM   23  C   UNL     1      39.523 -12.019   3.447  1.00  0.00     0.128 C 
HETATM   24  C   UNL     1      40.709 -11.274   2.857  1.00  0.00     0.027 C 
ENDBRANCH   1  23
BRANCH   2  25
HETATM   25  S   UNL     1      39.463 -14.825   1.839  1.00  0.00    -0.081 SA
BRANCH  25  26
HETATM   26  C   UNL     1      41.005 -15.390   1.067  1.00  0.00     0.185 C 
BRANCH  26  27
HETATM   27  C   UNL     1      41.357 -16.807   1.495  1.00  0.00     0.231 C 
HETATM   28  N   UNL     1      42.431 -16.854   2.368  1.00  0.00    -0.327 N 
HETATM   29  H   UNL     1      42.690 -15.968   2.801  1.00  0.00     0.169 HD
HETATM   30  O   UNL     1      40.727 -17.772   1.069  1.00  0.00    -0.272 OA
BRANCH  28  31
HETATM   31  C   UNL     1      43.116 -17.988   2.844  1.00  0.00     0.034 A 
HETATM   32  C   UNL     1      43.205 -18.136   4.236  1.00  0.00     0.032 A 
HETATM   33  C   UNL     1      43.902 -19.209   4.798  1.00  0.00     0.039 A 
HETATM   34  C   UNL     1      44.506 -20.139   3.963  1.00  0.00     0.065 A 
HETATM   35  C   UNL     1      44.419 -20.014   2.582  1.00  0.00     0.039 A 
HETATM   36  C   UNL     1      43.729 -18.935   2.022  1.00  0.00     0.032 A 
BRANCH  34  37
HETATM   37  O   UNL     1      45.205 -21.198   4.463  1.00  0.00    -0.361 OA
HETATM   38  H   UNL     1      44.613 -21.965   4.516  1.00  0.00     0.217 HD
ENDBRANCH  34  37
ENDBRANCH  28  31
ENDBRANCH  26  27
ENDBRANCH  25  26
ENDBRANCH   2  25
TORSDOF 9
ENDMDL
MODEL 8
REMARK VINA RESULT:      -7.8      5.422      9.037
REMARK  9 active torsions:
REMARK  status: ('A' for Active; 'I' for Inactive)
REMARK    1  A    between atoms: C_2  and  N_3 
REMARK    2  A    between atoms: C_4  and  S_5 
REMARK    3  A    between atoms: S_5  and  C_6 
REMARK    4  A    between atoms: C_6  and  C_7 
REMARK       I    between atoms: C_7  and  N_8 
REMARK    5  A    between atoms: N_8  and  C_9 
REMARK    6  A    between atoms: C_12  and  O_13 
REMARK    7  A    between atoms: C_19  and  C_20 
REMARK    8  A    between atoms: C_23  and  S_24 
REMARK    9  A    between atoms: S_24  and  N_25 
ROOT
HETATM    1  N   UNL     1      41.300 -15.854   4.099  1.00  0.00    -0.308 N 
HETATM    2  C   UNL     1      41.815 -15.524   5.326  1.00  0.00     0.192 A 
HETATM    3  N   UNL     1      42.096 -14.244   5.363  1.00  0.00    -0.122 NA
HETATM    4  N   UNL     1      41.718 -13.701   4.165  1.00  0.00    -0.128 NA
HETATM    5  C   UNL     1      41.215 -14.661   3.406  1.00  0.00     0.164 A 
ENDROOT
BRANCH   5   6
HETATM    6  C   UNL     1      40.728 -14.459   2.042  1.00  0.00     0.012 A 
HETATM    7  C   UNL     1      41.651 -14.441   0.985  1.00  0.00     0.017 A 
HETATM    8  C   UNL     1      41.230 -14.232  -0.330  1.00  0.00     0.026 A 
HETATM    9  C   UNL     1      39.874 -14.021  -0.589  1.00  0.00     0.074 A 
HETATM   10  C   UNL     1      38.942 -14.013   0.451  1.00  0.00     0.026 A 
HETATM   11  C   UNL     1      39.374 -14.227   1.764  1.00  0.00     0.017 A 
BRANCH   9  12
HETATM   12  S   UNL     1      39.343 -13.742  -2.252  1.00  0.00     0.243 S 
HETATM   13  O   UNL     1      40.449 -14.037  -3.133  1.00  0.00    -0.206 OA
HETATM   14  O   UNL     1      38.042 -14.345  -2.447  1.00  0.00    -0.206 OA
BRANCH  12  15
HETATM   15  N   UNL     1      39.069 -12.050  -2.314  1.00  0.00    -0.203 NA
HETATM   16  C   UNL     1      38.814 -11.473  -3.672  1.00  0.00     0.135 C 
HETATM   17  C   UNL     1      40.110 -11.224  -4.475  1.00  0.00     0.250 C 
HETATM   18  N   UNL     1      41.128 -10.436  -3.654  1.00  0.00    -0.073 N 
HETATM   19  H   UNL     1      40.725  -9.507  -3.474  1.00  0.00     0.279 HD
HETATM   20  C   UNL     1      42.407 -10.224  -4.413  1.00  0.00     0.269 C 
HETATM   21  C   UNL     1      41.386 -11.090  -2.298  1.00  0.00     0.250 C 
HETATM   22  C   UNL     1      40.060 -11.242  -1.537  1.00  0.00     0.135 C 
ENDBRANCH  12  15
ENDBRANCH   9  12
ENDBRANCH   5   6
BRANCH   1  23
HETATM   23  C   UNL     1      41.064 -17.189   3.584  1.00  0.00     0.128 C 
HETATM   24  C   UNL     1      42.082 -17.638   2.549  1.00  0.00     0.027 C 
ENDBRANCH   1  23
BRANCH   2  25
HETATM   25  S   UNL     1      42.048 -16.647   6.617  1.00  0.00    -0.081 SA
BRANCH  25  26
HETATM   26  C   UNL     1      43.829 -16.483   6.928  1.00  0.00     0.185 C 
BRANCH  26  27
HETATM   27  C   UNL     1      44.602 -17.675   6.382  1.00  0.00     0.231 C 
HETATM   28  N   UNL     1      43.810 -18.540   5.646  1.00  0.00    -0.327 N 
HETATM   29  H   UNL     1      42.904 -18.172   5.355  1.00  0.00     0.169 HD
HETATM   30  O   UNL     1      45.802 -17.810   6.612  1.00  0.00    -0.272 OA
BRANCH  28  31
HETATM   31  C   UNL     1      44.149 -19.803   5.126  1.00  0.00     0.034 A 
HETATM   32  C   UNL     1      44.296 -19.896   3.735  1.00  0.00     0.032 A 
HETATM   33  C   UNL     1      44.593 -21.120   3.127  1.00  0.00     0.039 A 
HETATM   34  C   UNL     1      44.748 -22.251   3.918  1.00  0.00     0.065 A 
HETATM   35  C   UNL     1      44.616 -22.174   5.299  1.00  0.00     0.039 A 
HETATM   36  C   UNL     1      44.312 -20.951   5.903  1.00  0.00     0.032 A 
BRANCH  34  37
HETATM   37  O   UNL     1      45.028 -23.468   3.372  1.00  0.00    -0.361 OA
HETATM   38  H   UNL     1      44.528 -23.561   2.545  1.00  0.00     0.217 HD
ENDBRANCH  34  37
ENDBRANCH  28  31
ENDBRANCH  26  27
ENDBRANCH  25  26
ENDBRANCH   2  25
TORSDOF 9
ENDMDL
MODEL 9
REMARK VINA RESULT:      -7.6      5.289      8.762
REMARK  9 active torsions:
REMARK  status: ('A' for Active; 'I' for Inactive)
REMARK    1  A    between atoms: C_2  and  N_3 
REMARK    2  A    between atoms: C_4  and  S_5 
REMARK    3  A    between atoms: S_5  and  C_6 
REMARK    4  A    between atoms: C_6  and  C_7 
REMARK       I    between atoms: C_7  and  N_8 
REMARK    5  A    between atoms: N_8  and  C_9 
REMARK    6  A    between atoms: C_12  and  O_13 
REMARK    7  A    between atoms: C_19  and  C_20 
REMARK    8  A    between atoms: C_23  and  S_24 
REMARK    9  A    between atoms: S_24  and  N_25 
ROOT
HETATM    1  N   UNL     1      42.227 -14.569   4.273  1.00  0.00    -0.308 N 
HETATM    2  C   UNL     1      43.272 -14.512   5.157  1.00  0.00     0.192 A 
HETATM    3  N   UNL     1      44.307 -13.942   4.588  1.00  0.00    -0.122 NA
HETATM    4  N   UNL     1      43.934 -13.567   3.326  1.00  0.00    -0.128 NA
HETATM    5  C   UNL     1      42.673 -13.921   3.136  1.00  0.00     0.164 A 
ENDROOT
BRANCH   5   6
HETATM    6  C   UNL     1      41.938 -13.705   1.891  1.00  0.00     0.012 A 
HETATM    7  C   UNL     1      41.843 -14.755   0.965  1.00  0.00     0.017 A 
HETATM    8  C   UNL     1      41.166 -14.584  -0.245  1.00  0.00     0.026 A 
HETATM    9  C   UNL     1      40.594 -13.345  -0.541  1.00  0.00     0.074 A 
HETATM   10  C   UNL     1      40.697 -12.280   0.357  1.00  0.00     0.026 A 
HETATM   11  C   UNL     1      41.373 -12.463   1.567  1.00  0.00     0.017 A 
BRANCH   9  12
HETATM   12  S   UNL     1      39.751 -13.126  -2.079  1.00  0.00     0.243 S 
HETATM   13  O   UNL     1      39.160 -14.389  -2.452  1.00  0.00    -0.206 OA
HETATM   14  O   UNL     1      38.964 -11.912  -2.024  1.00  0.00    -0.206 OA
BRANCH  12  15
HETATM   15  N   UNL     1      41.012 -12.795  -3.192  1.00  0.00    -0.203 NA
HETATM   16  C   UNL     1      42.403 -13.081  -2.716  1.00  0.00     0.135 C 
HETATM   17  C   UNL     1      42.981 -11.953  -1.832  1.00  0.00     0.250 C 
HETATM   18  N   UNL     1      42.828 -10.590  -2.502  1.00  0.00    -0.073 N 
HETATM   19  H   UNL     1      43.402 -10.600  -3.355  1.00  0.00     0.279 HD
HETATM   20  C   UNL     1      43.351  -9.482  -1.630  1.00  0.00     0.269 C 
HETATM   21  C   UNL     1      41.384 -10.329  -2.927  1.00  0.00     0.250 C 
HETATM   22  C   UNL     1      40.908 -11.458  -3.854  1.00  0.00     0.135 C 
ENDBRANCH  12  15
ENDBRANCH   9  12
ENDBRANCH   5   6
BRANCH   1  23
HETATM   23  C   UNL     1      40.988 -15.305   4.436  1.00  0.00     0.128 C 
HETATM   24  C   UNL     1      39.831 -14.459   4.939  1.00  0.00     0.027 C 
ENDBRANCH   1  23
BRANCH   2  25
HETATM   25  S   UNL     1      43.212 -15.108   6.777  1.00  0.00    -0.081 SA
BRANCH  25  26
HETATM   26  C   UNL     1      44.324 -16.538   6.682  1.00  0.00     0.185 C 
BRANCH  26  27
HETATM   27  C   UNL     1      43.706 -17.674   5.880  1.00  0.00     0.231 C 
HETATM   28  N   UNL     1      44.624 -18.324   5.072  1.00  0.00    -0.327 N 
HETATM   29  H   UNL     1      45.606 -18.144   5.282  1.00  0.00     0.169 HD
HETATM   30  O   UNL     1      42.509 -17.935   5.972  1.00  0.00    -0.272 OA
BRANCH  28  31
HETATM   31  C   UNL     1      44.381 -19.308   4.096  1.00  0.00     0.034 A 
HETATM   32  C   UNL     1      44.871 -20.595   4.360  1.00  0.00     0.032 A 
HETATM   33  C   UNL     1      44.712 -21.626   3.429  1.00  0.00     0.039 A 
HETATM   34  C   UNL     1      44.054 -21.366   2.233  1.00  0.00     0.065 A 
HETATM   35  C   UNL     1      43.554 -20.099   1.960  1.00  0.00     0.039 A 
HETATM   36  C   UNL     1      43.721 -19.068   2.890  1.00  0.00     0.032 A 
BRANCH  34  37
HETATM   37  O   UNL     1      43.883 -22.335   1.290  1.00  0.00    -0.361 OA
HETATM   38  H   UNL     1      44.067 -21.956   0.416  1.00  0.00     0.217 HD
ENDBRANCH  34  37
ENDBRANCH  28  31
ENDBRANCH  26  27
ENDBRANCH  25  26
ENDBRANCH   2  25
TORSDOF 9
ENDMDL
MODEL 10
REMARK VINA RESULT:      -7.6      7.008     11.477
REMARK  9 active torsions:
REMARK  status: ('A' for Active; 'I' for Inactive)
REMARK    1  A    between atoms: C_2  and  N_3 
REMARK    2  A    between atoms: C_4  and  S_5 
REMARK    3  A    between atoms: S_5  and  C_6 
REMARK    4  A    between atoms: C_6  and  C_7 
REMARK       I    between atoms: C_7  and  N_8 
REMARK    5  A    between atoms: N_8  and  C_9 
REMARK    6  A    between atoms: C_12  and  O_13 
REMARK    7  A    between atoms: C_19  and  C_20 
REMARK    8  A    between atoms: C_23  and  S_24 
REMARK    9  A    between atoms: S_24  and  N_25 
ROOT
HETATM    1  N   UNL     1      40.387 -14.195   0.235  1.00  0.00    -0.308 N 
HETATM    2  C   UNL     1      40.627 -14.818   1.432  1.00  0.00     0.192 A 
HETATM    3  N   UNL     1      39.506 -14.958   2.096  1.00  0.00    -0.122 NA
HETATM    4  N   UNL     1      38.496 -14.468   1.314  1.00  0.00    -0.128 NA
HETATM    5  C   UNL     1      39.015 -14.027   0.180  1.00  0.00     0.164 A 
ENDROOT
BRANCH   5   6
HETATM    6  C   UNL     1      38.239 -13.409  -0.894  1.00  0.00     0.012 A 
HETATM    7  C   UNL     1      38.180 -14.044  -2.144  1.00  0.00     0.017 A 
HETATM    8  C   UNL     1      37.465 -13.478  -3.201  1.00  0.00     0.026 A 
HETATM    9  C   UNL     1      36.816 -12.256  -3.013  1.00  0.00     0.074 A 
HETATM   10  C   UNL     1      36.881 -11.597  -1.784  1.00  0.00     0.026 A 
HETATM   11  C   UNL     1      37.596 -12.174  -0.730  1.00  0.00     0.017 A 
BRANCH   9  12
HETATM   12  S   UNL     1      35.923 -11.533  -4.357  1.00  0.00     0.243 S 
HETATM   13  O   UNL     1      35.176 -10.408  -3.847  1.00  0.00    -0.206 OA
HETATM   14  O   UNL     1      36.802 -11.400  -5.499  1.00  0.00    -0.206 OA
BRANCH  12  15
HETATM   15  N   UNL     1      34.795 -12.747  -4.796  1.00  0.00    -0.203 NA
HETATM   16  C   UNL     1      35.196 -13.643  -5.927  1.00  0.00     0.135 C 
HETATM   17  C   UNL     1      34.950 -13.008  -7.315  1.00  0.00     0.250 C 
HETATM   18  N   UNL     1      33.527 -12.469  -7.433  1.00  0.00    -0.073 N 
HETATM   19  H   UNL     1      32.888 -13.272  -7.374  1.00  0.00     0.279 HD
HETATM   20  C   UNL     1      33.292 -11.814  -8.765  1.00  0.00     0.269 C 
HETATM   21  C   UNL     1      33.183 -11.527  -6.281  1.00  0.00     0.250 C 
HETATM   22  C   UNL     1      33.391 -12.252  -4.942  1.00  0.00     0.135 C 
ENDBRANCH  12  15
ENDBRANCH   9  12
ENDBRANCH   5   6
BRANCH   1  23
HETATM   23  C   UNL     1      41.374 -13.668  -0.687  1.00  0.00     0.128 C 
HETATM   24  C   UNL     1      41.948 -12.324  -0.272  1.00  0.00     0.027 C 
ENDBRANCH   1  23
BRANCH   2  25
HETATM   25  S   UNL     1      42.187 -15.337   1.963  1.00  0.00    -0.081 SA
BRANCH  25  26
HETATM   26  C   UNL     1      41.863 -15.752   3.699  1.00  0.00     0.185 C 
BRANCH  26  27
HETATM   27  C   UNL     1      42.142 -17.221   3.984  1.00  0.00     0.231 C 
HETATM   28  N   UNL     1      43.231 -17.707   3.281  1.00  0.00    -0.327 N 
HETATM   29  H   UNL     1      43.844 -17.004   2.869  1.00  0.00     0.169 HD
HETATM   30  O   UNL     1      41.434 -17.861   4.758  1.00  0.00    -0.272 OA
BRANCH  28  31
HETATM   31  C   UNL     1      43.680 -19.037   3.183  1.00  0.00     0.034 A 
HETATM   32  C   UNL     1      43.333 -19.739   2.020  1.00  0.00     0.032 A 
HETATM   33  C   UNL     1      43.701 -21.078   1.855  1.00  0.00     0.039 A 
HETATM   34  C   UNL     1      44.423 -21.712   2.857  1.00  0.00     0.065 A 
HETATM   35  C   UNL     1      44.784 -21.029   4.012  1.00  0.00     0.039 A 
HETATM   36  C   UNL     1      44.408 -19.693   4.178  1.00  0.00     0.032 A 
BRANCH  34  37
HETATM   37  O   UNL     1      44.796 -23.019   2.747  1.00  0.00    -0.361 OA
HETATM   38  H   UNL     1      44.672 -23.452   3.606  1.00  0.00     0.217 HD
ENDBRANCH  34  37
ENDBRANCH  28  31
ENDBRANCH  26  27
ENDBRANCH  25  26
ENDBRANCH   2  25
TORSDOF 9
ENDMDL
