MODEL 1
REMARK VINA RESULT:      -8.6      0.000      0.000
REMARK  2 active torsions:
REMARK  status: ('A' for Active; 'I' for Inactive)
REMARK       I    between atoms: N_5  and  C_6 
REMARK    1  A    between atoms: C_6  and  C_7 
REMARK    2  A    between atoms: N_11  and  C_12 
ROOT
HETATM    1  C   UNL     1      44.282 -20.739   2.114  1.00  0.00     0.050 C 
HETATM    2  C   UNL     1      43.972 -19.444   2.811  1.00  0.00    -0.030 A 
HETATM    3  C   UNL     1      43.850 -19.341   4.211  1.00  0.00     0.087 A 
HETATM    4  C   UNL     1      43.563 -18.093   4.799  1.00  0.00     0.160 A 
HETATM    5  N   UNL     1      43.388 -17.994   6.209  1.00  0.00    -0.287 N 
HETATM    6  C   UNL     1      43.106 -16.833   6.953  1.00  0.00     0.263 C 
HETATM    7  O   UNL     1      43.221 -16.852   8.184  1.00  0.00    -0.267 OA
HETATM    8  C   UNL     1      43.700 -19.161   7.028  1.00  0.00     0.237 C 
HETATM    9  C   UNL     1      43.971 -20.488   6.350  1.00  0.00     0.240 C 
HETATM   10  O   UNL     1      44.173 -21.526   6.978  1.00  0.00    -0.271 OA
HETATM   11  N   UNL     1      44.027 -20.489   4.992  1.00  0.00    -0.322 N 
HETATM   12  N   UNL     1      43.456 -16.990   4.036  1.00  0.00    -0.241 NA
HETATM   13  C   UNL     1      43.579 -17.096   2.697  1.00  0.00     0.119 A 
HETATM   14  C   UNL     1      43.826 -18.285   2.047  1.00  0.00     0.028 A 
HETATM   15  H   UNL     1      44.242 -21.383   4.570  1.00  0.00     0.169 HD
ENDROOT
BRANCH   6  16
HETATM   16  C   UNL     1      42.686 -15.589   6.331  1.00  0.00     0.076 C 
HETATM   17  C   UNL     1      43.458 -14.409   6.179  1.00  0.00     0.068 C 
HETATM   18  C   UNL     1      44.857 -14.173   6.614  1.00  0.00     0.073 C 
HETATM   19  N   UNL     1      42.780 -13.441   5.554  1.00  0.00    -0.172 NA
HETATM   20  N   UNL     1      41.571 -13.990   5.271  1.00  0.00    -0.244 N 
HETATM   21  C   UNL     1      41.438 -15.227   5.862  1.00  0.00     0.138 C 
BRANCH  20  22
HETATM   22  C   UNL     1      40.640 -13.308   4.439  1.00  0.00     0.058 A 
HETATM   23  C   UNL     1      40.429 -13.763   3.127  1.00  0.00     0.031 A 
HETATM   24  C   UNL     1      39.486 -13.138   2.306  1.00  0.00     0.002 A 
HETATM   25  C   UNL     1      38.751 -12.058   2.787  1.00  0.00     0.000 A 
HETATM   26  C   UNL     1      38.958 -11.598   4.087  1.00  0.00     0.002 A 
HETATM   27  C   UNL     1      39.899 -12.218   4.914  1.00  0.00     0.031 A 
ENDBRANCH  20  22
ENDBRANCH   6  16
TORSDOF 2
ENDMDL
MODEL 2
REMARK VINA RESULT:      -8.4      3.680      7.686
REMARK  2 active torsions:
REMARK  status: ('A' for Active; 'I' for Inactive)
REMARK       I    between atoms: N_5  and  C_6 
REMARK    1  A    between atoms: C_6  and  C_7 
REMARK    2  A    between atoms: N_11  and  C_12 
ROOT
HETATM    1  C   UNL     1      39.195 -13.448  -2.910  1.00  0.00     0.050 C 
HETATM    2  C   UNL     1      39.856 -14.195  -1.786  1.00  0.00    -0.030 A 
HETATM    3  C   UNL     1      39.559 -13.953  -0.430  1.00  0.00     0.087 A 
HETATM    4  C   UNL     1      40.213 -14.695   0.574  1.00  0.00     0.160 A 
HETATM    5  N   UNL     1      39.953 -14.419   1.946  1.00  0.00    -0.287 N 
HETATM    6  C   UNL     1      40.511 -15.065   3.066  1.00  0.00     0.263 C 
HETATM    7  O   UNL     1      40.016 -14.888   4.184  1.00  0.00    -0.267 OA
HETATM    8  C   UNL     1      38.869 -13.499   2.274  1.00  0.00     0.237 C 
HETATM    9  C   UNL     1      38.218 -12.700   1.164  1.00  0.00     0.240 C 
HETATM   10  O   UNL     1      37.348 -11.857   1.374  1.00  0.00    -0.271 OA
HETATM   11  N   UNL     1      38.606 -12.980  -0.109  1.00  0.00    -0.322 N 
HETATM   12  N   UNL     1      41.081 -15.669   0.244  1.00  0.00    -0.241 NA
HETATM   13  C   UNL     1      41.357 -15.898  -1.057  1.00  0.00     0.119 A 
HETATM   14  C   UNL     1      40.783 -15.192  -2.092  1.00  0.00     0.028 A 
HETATM   15  H   UNL     1      38.129 -12.454  -0.830  1.00  0.00     0.169 HD
ENDROOT
BRANCH   6  16
HETATM   16  C   UNL     1      41.658 -15.951   2.966  1.00  0.00     0.076 C 
HETATM   17  C   UNL     1      43.027 -15.585   3.029  1.00  0.00     0.068 C 
HETATM   18  C   UNL     1      43.599 -14.228   3.212  1.00  0.00     0.073 C 
HETATM   19  N   UNL     1      43.837 -16.642   2.912  1.00  0.00    -0.172 NA
HETATM   20  N   UNL     1      43.003 -17.708   2.796  1.00  0.00    -0.244 N 
HETATM   21  C   UNL     1      41.693 -17.301   2.674  1.00  0.00     0.138 C 
BRANCH  20  22
HETATM   22  C   UNL     1      43.512 -19.036   2.835  1.00  0.00     0.058 A 
HETATM   23  C   UNL     1      44.290 -19.442   3.932  1.00  0.00     0.031 A 
HETATM   24  C   UNL     1      44.762 -20.754   4.015  1.00  0.00     0.002 A 
HETATM   25  C   UNL     1      44.464 -21.668   3.007  1.00  0.00     0.000 A 
HETATM   26  C   UNL     1      43.696 -21.271   1.913  1.00  0.00     0.002 A 
HETATM   27  C   UNL     1      43.220 -19.959   1.823  1.00  0.00     0.031 A 
ENDBRANCH  20  22
ENDBRANCH   6  16
TORSDOF 2
ENDMDL
MODEL 3
REMARK VINA RESULT:      -8.4      2.209      6.951
REMARK  2 active torsions:
REMARK  status: ('A' for Active; 'I' for Inactive)
REMARK       I    between atoms: N_5  and  C_6 
REMARK    1  A    between atoms: C_6  and  C_7 
REMARK    2  A    between atoms: N_11  and  C_12 
ROOT
HETATM    1  C   UNL     1      41.012 -11.317   1.746  1.00  0.00     0.050 C 
HETATM    2  C   UNL     1      41.405 -12.665   2.284  1.00  0.00    -0.030 A 
HETATM    3  C   UNL     1      40.902 -13.179   3.495  1.00  0.00     0.087 A 
HETATM    4  C   UNL     1      41.308 -14.454   3.938  1.00  0.00     0.160 A 
HETATM    5  N   UNL     1      40.841 -14.956   5.186  1.00  0.00    -0.287 N 
HETATM    6  C   UNL     1      41.142 -16.201   5.770  1.00  0.00     0.263 C 
HETATM    7  O   UNL     1      40.479 -16.601   6.733  1.00  0.00    -0.267 OA
HETATM    8  C   UNL     1      39.800 -14.210   5.885  1.00  0.00     0.237 C 
HETATM    9  C   UNL     1      39.419 -12.831   5.390  1.00  0.00     0.240 C 
HETATM   10  O   UNL     1      38.601 -12.119   5.969  1.00  0.00    -0.271 OA
HETATM   11  N   UNL     1      39.994 -12.410   4.232  1.00  0.00    -0.322 N 
HETATM   12  N   UNL     1      42.134 -15.204   3.185  1.00  0.00    -0.241 NA
HETATM   13  C   UNL     1      42.608 -14.706   2.025  1.00  0.00     0.119 A 
HETATM   14  C   UNL     1      42.283 -13.457   1.542  1.00  0.00     0.028 A 
HETATM   15  H   UNL     1      39.695 -11.499   3.909  1.00  0.00     0.169 HD
ENDROOT
BRANCH   6  16
HETATM   16  C   UNL     1      42.209 -17.056   5.279  1.00  0.00     0.076 C 
HETATM   17  C   UNL     1      43.577 -17.010   5.651  1.00  0.00     0.068 C 
HETATM   18  C   UNL     1      44.229 -16.089   6.615  1.00  0.00     0.073 C 
HETATM   19  N   UNL     1      44.301 -17.942   5.022  1.00  0.00    -0.172 NA
HETATM   20  N   UNL     1      43.407 -18.619   4.257  1.00  0.00    -0.244 N 
HETATM   21  C   UNL     1      42.173 -18.009   4.279  1.00  0.00     0.138 C 
BRANCH  20  22
HETATM   22  C   UNL     1      43.787 -19.811   3.579  1.00  0.00     0.058 A 
HETATM   23  C   UNL     1      44.515 -20.793   4.270  1.00  0.00     0.031 A 
HETATM   24  C   UNL     1      44.859 -21.991   3.641  1.00  0.00     0.002 A 
HETATM   25  C   UNL     1      44.482 -22.218   2.319  1.00  0.00     0.000 A 
HETATM   26  C   UNL     1      43.763 -21.246   1.624  1.00  0.00     0.002 A 
HETATM   27  C   UNL     1      43.414 -20.044   2.248  1.00  0.00     0.031 A 
ENDBRANCH  20  22
ENDBRANCH   6  16
TORSDOF 2
ENDMDL
MODEL 4
REMARK VINA RESULT:      -8.4      2.154      6.810
REMARK  2 active torsions:
REMARK  status: ('A' for Active; 'I' for Inactive)
REMARK       I    between atoms: N_5  and  C_6 
REMARK    1  A    between atoms: C_6  and  C_7 
REMARK    2  A    between atoms: N_11  and  C_12 
ROOT
HETATM    1  C   UNL     1      39.017 -13.990   1.380  1.00  0.00     0.050 C 
HETATM    2  C   UNL     1      39.904 -14.838   2.248  1.00  0.00    -0.030 A 
HETATM    3  C   UNL     1      40.778 -14.291   3.209  1.00  0.00     0.087 A 
HETATM    4  C   UNL     1      41.579 -15.144   3.994  1.00  0.00     0.160 A 
HETATM    5  N   UNL     1      42.500 -14.594   4.930  1.00  0.00    -0.287 N 
HETATM    6  C   UNL     1      43.363 -15.298   5.790  1.00  0.00     0.263 C 
HETATM    7  O   UNL     1      43.927 -14.702   6.714  1.00  0.00    -0.267 OA
HETATM    8  C   UNL     1      42.453 -13.158   5.185  1.00  0.00     0.237 C 
HETATM    9  C   UNL     1      41.601 -12.278   4.294  1.00  0.00     0.240 C 
HETATM   10  O   UNL     1      41.567 -11.054   4.407  1.00  0.00    -0.271 OA
HETATM   11  N   UNL     1      40.824 -12.901   3.369  1.00  0.00    -0.322 N 
HETATM   12  N   UNL     1      41.475 -16.480   3.868  1.00  0.00    -0.241 NA
HETATM   13  C   UNL     1      40.633 -16.996   2.949  1.00  0.00     0.119 A 
HETATM   14  C   UNL     1      39.843 -16.226   2.123  1.00  0.00     0.028 A 
HETATM   15  H   UNL     1      40.243 -12.289   2.812  1.00  0.00     0.169 HD
ENDROOT
BRANCH   6  16
HETATM   16  C   UNL     1      43.621 -16.721   5.646  1.00  0.00     0.076 C 
HETATM   17  C   UNL     1      43.585 -17.702   6.669  1.00  0.00     0.068 C 
HETATM   18  C   UNL     1      43.279 -17.506   8.109  1.00  0.00     0.073 C 
HETATM   19  N   UNL     1      43.862 -18.925   6.205  1.00  0.00    -0.172 NA
HETATM   20  N   UNL     1      44.056 -18.755   4.872  1.00  0.00    -0.244 N 
HETATM   21  C   UNL     1      44.065 -17.419   4.539  1.00  0.00     0.138 C 
BRANCH  20  22
HETATM   22  C   UNL     1      44.193 -19.878   4.009  1.00  0.00     0.058 A 
HETATM   23  C   UNL     1      44.671 -21.092   4.529  1.00  0.00     0.031 A 
HETATM   24  C   UNL     1      44.770 -22.220   3.712  1.00  0.00     0.002 A 
HETATM   25  C   UNL     1      44.396 -22.146   2.373  1.00  0.00     0.000 A 
HETATM   26  C   UNL     1      43.925 -20.943   1.847  1.00  0.00     0.002 A 
HETATM   27  C   UNL     1      43.822 -19.809   2.659  1.00  0.00     0.031 A 
ENDBRANCH  20  22
ENDBRANCH   6  16
TORSDOF 2
ENDMDL
MODEL 5
REMARK VINA RESULT:      -8.3      4.076      7.536
REMARK  2 active torsions:
REMARK  status: ('A' for Active; 'I' for Inactive)
REMARK       I    between atoms: N_5  and  C_6 
REMARK    1  A    between atoms: C_6  and  C_7 
REMARK    2  A    between atoms: N_11  and  C_12 
ROOT
HETATM    1  C   UNL     1      41.010 -14.030  -3.519  1.00  0.00     0.050 C 
HETATM    2  C   UNL     1      41.191 -14.485  -2.098  1.00  0.00    -0.030 A 
HETATM    3  C   UNL     1      41.539 -13.606  -1.054  1.00  0.00     0.087 A 
HETATM    4  C   UNL     1      41.688 -14.099   0.258  1.00  0.00     0.160 A 
HETATM    5  N   UNL     1      42.089 -13.224   1.307  1.00  0.00    -0.287 N 
HETATM    6  C   UNL     1      42.277 -13.549   2.663  1.00  0.00     0.263 C 
HETATM    7  O   UNL     1      42.388 -12.646   3.499  1.00  0.00    -0.267 OA
HETATM    8  C   UNL     1      42.151 -11.793   1.027  1.00  0.00     0.237 C 
HETATM    9  C   UNL     1      42.016 -11.313  -0.402  1.00  0.00     0.240 C 
HETATM   10  O   UNL     1      42.127 -10.130  -0.720  1.00  0.00    -0.271 OA
HETATM   11  N   UNL     1      41.721 -12.249  -1.344  1.00  0.00    -0.322 N 
HETATM   12  N   UNL     1      41.449 -15.396   0.528  1.00  0.00    -0.241 NA
HETATM   13  C   UNL     1      41.112 -16.231  -0.477  1.00  0.00     0.119 A 
HETATM   14  C   UNL     1      40.980 -15.829  -1.789  1.00  0.00     0.028 A 
HETATM   15  H   UNL     1      41.605 -11.892  -2.283  1.00  0.00     0.169 HD
ENDROOT
BRANCH   6  16
HETATM   16  C   UNL     1      42.340 -14.921   3.136  1.00  0.00     0.076 C 
HETATM   17  C   UNL     1      41.454 -15.551   4.048  1.00  0.00     0.068 C 
HETATM   18  C   UNL     1      40.271 -14.960   4.723  1.00  0.00     0.073 C 
HETATM   19  N   UNL     1      41.784 -16.827   4.271  1.00  0.00    -0.172 NA
HETATM   20  N   UNL     1      42.870 -17.047   3.487  1.00  0.00    -0.244 N 
HETATM   21  C   UNL     1      43.313 -15.877   2.913  1.00  0.00     0.138 C 
BRANCH  20  22
HETATM   22  C   UNL     1      43.393 -18.361   3.322  1.00  0.00     0.058 A 
HETATM   23  C   UNL     1      43.098 -19.076   2.150  1.00  0.00     0.031 A 
HETATM   24  C   UNL     1      43.637 -20.348   1.946  1.00  0.00     0.002 A 
HETATM   25  C   UNL     1      44.471 -20.915   2.906  1.00  0.00     0.000 A 
HETATM   26  C   UNL     1      44.765 -20.213   4.074  1.00  0.00     0.002 A 
HETATM   27  C   UNL     1      44.229 -18.939   4.287  1.00  0.00     0.031 A 
ENDBRANCH  20  22
ENDBRANCH   6  16
TORSDOF 2
ENDMDL
MODEL 6
REMARK VINA RESULT:      -8.1      3.204      4.468
REMARK  2 active torsions:
REMARK  status: ('A' for Active; 'I' for Inactive)
REMARK       I    between atoms: N_5  and  C_6 
REMARK    1  A    between atoms: C_6  and  C_7 
REMARK    2  A    between atoms: N_11  and  C_12 
ROOT
HETATM    1  C   UNL     1      44.490 -20.119   4.029  1.00  0.00     0.050 C 
HETATM    2  C   UNL     1      43.976 -18.815   3.487  1.00  0.00    -0.030 A 
HETATM    3  C   UNL     1      43.340 -17.851   4.295  1.00  0.00     0.087 A 
HETATM    4  C   UNL     1      42.887 -16.646   3.722  1.00  0.00     0.160 A 
HETATM    5  N   UNL     1      42.198 -15.692   4.523  1.00  0.00    -0.287 N 
HETATM    6  C   UNL     1      41.689 -14.445   4.115  1.00  0.00     0.263 C 
HETATM    7  O   UNL     1      41.333 -13.621   4.965  1.00  0.00    -0.267 OA
HETATM    8  C   UNL     1      42.149 -15.907   5.966  1.00  0.00     0.237 C 
HETATM    9  C   UNL     1      42.618 -17.231   6.532  1.00  0.00     0.240 C 
HETATM   10  O   UNL     1      42.541 -17.508   7.727  1.00  0.00    -0.271 OA
HETATM   11  N   UNL     1      43.180 -18.111   5.661  1.00  0.00    -0.322 N 
HETATM   12  N   UNL     1      43.104 -16.388   2.419  1.00  0.00    -0.241 NA
HETATM   13  C   UNL     1      43.718 -17.314   1.654  1.00  0.00     0.119 A 
HETATM   14  C   UNL     1      44.159 -18.528   2.134  1.00  0.00     0.028 A 
HETATM   15  H   UNL     1      43.514 -18.972   6.074  1.00  0.00     0.169 HD
ENDROOT
BRANCH   6  16
HETATM   16  C   UNL     1      41.567 -14.071   2.716  1.00  0.00     0.076 C 
HETATM   17  C   UNL     1      40.599 -14.539   1.791  1.00  0.00     0.068 C 
HETATM   18  C   UNL     1      39.499 -15.506   2.033  1.00  0.00     0.073 C 
HETATM   19  N   UNL     1      40.755 -13.993   0.580  1.00  0.00    -0.172 NA
HETATM   20  N   UNL     1      41.808 -13.147   0.713  1.00  0.00    -0.244 N 
HETATM   21  C   UNL     1      42.406 -13.290   1.946  1.00  0.00     0.138 C 
BRANCH  20  22
HETATM   22  C   UNL     1      42.154 -12.246  -0.333  1.00  0.00     0.058 A 
HETATM   23  C   UNL     1      42.437 -10.906  -0.021  1.00  0.00     0.031 A 
HETATM   24  C   UNL     1      42.823 -10.015  -1.024  1.00  0.00     0.002 A 
HETATM   25  C   UNL     1      42.928 -10.451  -2.343  1.00  0.00     0.000 A 
HETATM   26  C   UNL     1      42.644 -11.779  -2.661  1.00  0.00     0.002 A 
HETATM   27  C   UNL     1      42.257 -12.678  -1.662  1.00  0.00     0.031 A 
ENDBRANCH  20  22
ENDBRANCH   6  16
TORSDOF 2
ENDMDL
MODEL 7
REMARK VINA RESULT:      -7.9      3.070      7.015
REMARK  2 active torsions:
REMARK  status: ('A' for Active; 'I' for Inactive)
REMARK       I    between atoms: N_5  and  C_6 
REMARK    1  A    between atoms: C_6  and  C_7 
REMARK    2  A    between atoms: N_11  and  C_12 
ROOT
HETATM    1  C   UNL     1      40.603 -15.151  -1.541  1.00  0.00     0.050 C 
HETATM    2  C   UNL     1      41.033 -15.722  -0.219  1.00  0.00    -0.030 A 
HETATM    3  C   UNL     1      41.612 -14.938   0.798  1.00  0.00     0.087 A 
HETATM    4  C   UNL     1      41.987 -15.537   2.017  1.00  0.00     0.160 A 
HETATM    5  N   UNL     1      42.619 -14.759   3.028  1.00  0.00    -0.287 N 
HETATM    6  C   UNL     1      43.049 -15.195   4.296  1.00  0.00     0.263 C 
HETATM    7  O   UNL     1      43.357 -14.364   5.157  1.00  0.00    -0.267 OA
HETATM    8  C   UNL     1      42.689 -13.313   2.846  1.00  0.00     0.237 C 
HETATM    9  C   UNL     1      42.304 -12.718   1.507  1.00  0.00     0.240 C 
HETATM   10  O   UNL     1      42.403 -11.517   1.260  1.00  0.00    -0.271 OA
HETATM   11  N   UNL     1      41.793 -13.568   0.577  1.00  0.00    -0.322 N 
HETATM   12  N   UNL     1      41.748 -16.844   2.235  1.00  0.00    -0.241 NA
HETATM   13  C   UNL     1      41.190 -17.587   1.257  1.00  0.00     0.119 A 
HETATM   14  C   UNL     1      40.826 -17.080   0.028  1.00  0.00     0.028 A 
HETATM   15  H   UNL     1      41.516 -13.135  -0.295  1.00  0.00     0.169 HD
ENDROOT
BRANCH   6  16
HETATM   16  C   UNL     1      43.142 -16.602   4.648  1.00  0.00     0.076 C 
HETATM   17  C   UNL     1      42.423 -17.274   5.669  1.00  0.00     0.068 C 
HETATM   18  C   UNL     1      41.420 -16.704   6.604  1.00  0.00     0.073 C 
HETATM   19  N   UNL     1      42.732 -18.573   5.731  1.00  0.00    -0.172 NA
HETATM   20  N   UNL     1      43.635 -18.763   4.735  1.00  0.00    -0.244 N 
HETATM   21  C   UNL     1      44.009 -17.565   4.170  1.00  0.00     0.138 C 
BRANCH  20  22
HETATM   22  C   UNL     1      44.057 -20.075   4.377  1.00  0.00     0.058 A 
HETATM   23  C   UNL     1      44.038 -20.459   3.026  1.00  0.00     0.031 A 
HETATM   24  C   UNL     1      44.491 -21.724   2.646  1.00  0.00     0.002 A 
HETATM   25  C   UNL     1      44.963 -22.613   3.607  1.00  0.00     0.000 A 
HETATM   26  C   UNL     1      44.982 -22.241   4.951  1.00  0.00     0.002 A 
HETATM   27  C   UNL     1      44.530 -20.976   5.340  1.00  0.00     0.031 A 
ENDBRANCH  20  22
ENDBRANCH   6  16
TORSDOF 2
ENDMDL
MODEL 8
REMARK VINA RESULT:      -7.9      3.033      7.280
REMARK  2 active torsions:
REMARK  status: ('A' for Active; 'I' for Inactive)
REMARK       I    between atoms: N_5  and  C_6 
REMARK    1  A    between atoms: C_6  and  C_7 
REMARK    2  A    between atoms: N_11  and  C_12 
ROOT
HETATM    1  C   UNL     1      43.478 -12.358   7.747  1.00  0.00     0.050 C 
HETATM    2  C   UNL     1      43.237 -13.256   6.567  1.00  0.00    -0.030 A 
HETATM    3  C   UNL     1      41.997 -13.325   5.901  1.00  0.00     0.087 A 
HETATM    4  C   UNL     1      41.841 -14.185   4.796  1.00  0.00     0.160 A 
HETATM    5  N   UNL     1      40.576 -14.296   4.153  1.00  0.00    -0.287 N 
HETATM    6  C   UNL     1      40.252 -15.096   3.041  1.00  0.00     0.263 C 
HETATM    7  O   UNL     1      39.187 -14.910   2.442  1.00  0.00    -0.267 OA
HETATM    8  C   UNL     1      39.519 -13.366   4.540  1.00  0.00     0.237 C 
HETATM    9  C   UNL     1      39.721 -12.484   5.754  1.00  0.00     0.240 C 
HETATM   10  O   UNL     1      38.848 -11.728   6.179  1.00  0.00    -0.271 OA
HETATM   11  N   UNL     1      40.942 -12.522   6.351  1.00  0.00    -0.322 N 
HETATM   12  N   UNL     1      42.884 -14.903   4.341  1.00  0.00    -0.241 NA
HETATM   13  C   UNL     1      44.069 -14.829   4.981  1.00  0.00     0.119 A 
HETATM   14  C   UNL     1      44.289 -14.036   6.087  1.00  0.00     0.028 A 
HETATM   15  H   UNL     1      41.056 -11.898   7.138  1.00  0.00     0.169 HD
ENDROOT
BRANCH   6  16
HETATM   16  C   UNL     1      41.130 -16.145   2.552  1.00  0.00     0.076 C 
HETATM   17  C   UNL     1      41.798 -16.183   1.301  1.00  0.00     0.068 C 
HETATM   18  C   UNL     1      41.757 -15.171   0.215  1.00  0.00     0.073 C 
HETATM   19  N   UNL     1      42.540 -17.286   1.160  1.00  0.00    -0.172 NA
HETATM   20  N   UNL     1      42.382 -17.963   2.325  1.00  0.00    -0.244 N 
HETATM   21  C   UNL     1      41.421 -17.373   3.115  1.00  0.00     0.138 C 
BRANCH  20  22
HETATM   22  C   UNL     1      43.174 -19.110   2.613  1.00  0.00     0.058 A 
HETATM   23  C   UNL     1      43.935 -19.141   3.793  1.00  0.00     0.031 A 
HETATM   24  C   UNL     1      44.684 -20.274   4.120  1.00  0.00     0.002 A 
HETATM   25  C   UNL     1      44.682 -21.379   3.274  1.00  0.00     0.000 A 
HETATM   26  C   UNL     1      43.933 -21.354   2.098  1.00  0.00     0.002 A 
HETATM   27  C   UNL     1      43.180 -20.225   1.764  1.00  0.00     0.031 A 
ENDBRANCH  20  22
ENDBRANCH   6  16
TORSDOF 2
ENDMDL
MODEL 9
REMARK VINA RESULT:      -7.8      2.395      4.775
REMARK  2 active torsions:
REMARK  status: ('A' for Active; 'I' for Inactive)
REMARK       I    between atoms: N_5  and  C_6 
REMARK    1  A    between atoms: C_6  and  C_7 
REMARK    2  A    between atoms: N_11  and  C_12 
ROOT
HETATM    1  C   UNL     1      44.092 -21.133   6.588  1.00  0.00     0.050 C 
HETATM    2  C   UNL     1      43.774 -19.668   6.470  1.00  0.00    -0.030 A 
HETATM    3  C   UNL     1      43.719 -18.998   5.232  1.00  0.00     0.087 A 
HETATM    4  C   UNL     1      43.410 -17.624   5.192  1.00  0.00     0.160 A 
HETATM    5  N   UNL     1      43.404 -16.931   3.949  1.00  0.00    -0.287 N 
HETATM    6  C   UNL     1      43.112 -15.571   3.732  1.00  0.00     0.263 C 
HETATM    7  O   UNL     1      42.908 -15.164   2.583  1.00  0.00    -0.267 OA
HETATM    8  C   UNL     1      43.533 -17.710   2.722  1.00  0.00     0.237 C 
HETATM    9  C   UNL     1      43.898 -19.177   2.814  1.00  0.00     0.240 C 
HETATM   10  O   UNL     1      44.091 -19.878   1.822  1.00  0.00    -0.271 OA
HETATM   11  N   UNL     1      43.966 -19.720   4.059  1.00  0.00    -0.322 N 
HETATM   12  N   UNL     1      43.115 -16.960   6.326  1.00  0.00    -0.241 NA
HETATM   13  C   UNL     1      43.165 -17.610   7.506  1.00  0.00     0.119 A 
HETATM   14  C   UNL     1      43.492 -18.944   7.628  1.00  0.00     0.028 A 
HETATM   15  H   UNL     1      44.180 -20.709   4.086  1.00  0.00     0.169 HD
ENDROOT
BRANCH   6  16
HETATM   16  C   UNL     1      43.031 -14.607   4.816  1.00  0.00     0.076 C 
HETATM   17  C   UNL     1      41.859 -13.982   5.315  1.00  0.00     0.068 C 
HETATM   18  C   UNL     1      40.461 -14.165   4.852  1.00  0.00     0.073 C 
HETATM   19  N   UNL     1      42.125 -13.149   6.327  1.00  0.00    -0.172 NA
HETATM   20  N   UNL     1      43.466 -13.244   6.512  1.00  0.00    -0.244 N 
HETATM   21  C   UNL     1      44.052 -13.997   5.519  1.00  0.00     0.138 C 
BRANCH  20  22
HETATM   22  C   UNL     1      44.090 -12.630   7.635  1.00  0.00     0.058 A 
HETATM   23  C   UNL     1      45.427 -12.941   7.934  1.00  0.00     0.031 A 
HETATM   24  C   UNL     1      46.074 -12.317   9.002  1.00  0.00     0.002 A 
HETATM   25  C   UNL     1      45.395 -11.383   9.780  1.00  0.00     0.000 A 
HETATM   26  C   UNL     1      44.066 -11.072   9.492  1.00  0.00     0.002 A 
HETATM   27  C   UNL     1      43.411 -11.692   8.424  1.00  0.00     0.031 A 
ENDBRANCH  20  22
ENDBRANCH   6  16
TORSDOF 2
ENDMDL
MODEL 10
REMARK VINA RESULT:      -7.7      3.754      5.486
REMARK  2 active torsions:
REMARK  status: ('A' for Active; 'I' for Inactive)
REMARK       I    between atoms: N_5  and  C_6 
REMARK    1  A    between atoms: C_6  and  C_7 
REMARK    2  A    between atoms: N_11  and  C_12 
ROOT
HETATM    1  C   UNL     1      44.337 -14.918   6.989  1.00  0.00     0.050 C 
HETATM    2  C   UNL     1      43.587 -14.793   5.692  1.00  0.00    -0.030 A 
HETATM    3  C   UNL     1      43.209 -15.909   4.920  1.00  0.00     0.087 A 
HETATM    4  C   UNL     1      42.502 -15.720   3.715  1.00  0.00     0.160 A 
HETATM    5  N   UNL     1      42.162 -16.841   2.906  1.00  0.00    -0.287 N 
HETATM    6  C   UNL     1      41.458 -16.830   1.687  1.00  0.00     0.263 C 
HETATM    7  O   UNL     1      41.026 -17.889   1.220  1.00  0.00    -0.267 OA
HETATM    8  C   UNL     1      42.392 -18.178   3.444  1.00  0.00     0.237 C 
HETATM    9  C   UNL     1      43.184 -18.332   4.726  1.00  0.00     0.240 C 
HETATM   10  O   UNL     1      43.474 -19.429   5.200  1.00  0.00    -0.271 OA
HETATM   11  N   UNL     1      43.538 -17.191   5.375  1.00  0.00    -0.322 N 
HETATM   12  N   UNL     1      42.141 -14.483   3.325  1.00  0.00    -0.241 NA
HETATM   13  C   UNL     1      42.503 -13.421   4.073  1.00  0.00     0.119 A 
HETATM   14  C   UNL     1      43.223 -13.523   5.244  1.00  0.00     0.028 A 
HETATM   15  H   UNL     1      44.037 -17.327   6.244  1.00  0.00     0.169 HD
ENDROOT
BRANCH   6  16
HETATM   16  C   UNL     1      41.206 -15.609   0.942  1.00  0.00     0.076 C 
HETATM   17  C   UNL     1      40.036 -14.807   0.989  1.00  0.00     0.068 C 
HETATM   18  C   UNL     1      38.814 -15.028   1.802  1.00  0.00     0.073 C 
HETATM   19  N   UNL     1      40.123 -13.742   0.187  1.00  0.00    -0.172 NA
HETATM   20  N   UNL     1      41.358 -13.825  -0.370  1.00  0.00    -0.244 N 
HETATM   21  C   UNL     1      41.967 -15.018  -0.048  1.00  0.00     0.138 C 
BRANCH  20  22
HETATM   22  C   UNL     1      41.878 -12.754  -1.149  1.00  0.00     0.058 A 
HETATM   23  C   UNL     1      41.786 -12.812  -2.549  1.00  0.00     0.031 A 
HETATM   24  C   UNL     1      42.248 -11.752  -3.332  1.00  0.00     0.002 A 
HETATM   25  C   UNL     1      42.805 -10.629  -2.726  1.00  0.00     0.000 A 
HETATM   26  C   UNL     1      42.904 -10.565  -1.336  1.00  0.00     0.002 A 
HETATM   27  C   UNL     1      42.443 -11.622  -0.545  1.00  0.00     0.031 A 
ENDBRANCH  20  22
ENDBRANCH   6  16
TORSDOF 2
ENDMDL
