MODEL 1
REMARK VINA RESULT:      -8.9      0.000      0.000
REMARK  9 active torsions:
REMARK  status: ('A' for Active; 'I' for Inactive)
REMARK    1  A    between atoms: O_2  and  C_3 
REMARK    2  A    between atoms: C_4  and  C_5 
REMARK    3  A    between atoms: C_9  and  C_10 
REMARK       I    between atoms: C_10  and  N_11 
REMARK    4  A    between atoms: N_11  and  C_12 
REMARK    5  A    between atoms: C_12  and  C_13 
REMARK    6  A    between atoms: C_13  and  C_14 
REMARK    7  A    between atoms: C_14  and  C_15 
REMARK    8  A    between atoms: C_15  and  O_16 
REMARK    9  A    between atoms: O_16  and  C_17 
ROOT
HETATM    1  C   UNL     1      44.593 -11.489   9.411  1.00  0.00     0.270 C 
HETATM    2  N   UNL     1      44.361 -12.669   8.752  1.00  0.00    -0.345 N 
HETATM    3  O   UNL     1      45.573 -10.787   9.185  1.00  0.00    -0.266 OA
HETATM    4  H   UNL     1      43.504 -13.175   8.912  1.00  0.00     0.163 HD
ENDROOT
BRANCH   1   5
HETATM    5  C   UNL     1      43.607 -11.140  10.397  1.00  0.00     0.120 A 
HETATM    6  N   UNL     1      42.302 -11.535  10.285  1.00  0.00    -0.272 N 
HETATM    7  N   UNL     1      41.507 -11.099  11.272  1.00  0.00    -0.174 NA
HETATM    8  H   UNL     1      41.898 -12.094   9.539  1.00  0.00     0.189 HD
HETATM    9  C   UNL     1      42.319 -10.402  12.081  1.00  0.00     0.092 A 
HETATM   10  C   UNL     1      43.647 -10.407  11.567  1.00  0.00     0.071 A 
BRANCH   9  11
HETATM   11  C   UNL     1      41.843  -9.718  13.285  1.00  0.00     0.028 A 
HETATM   12  C   UNL     1      40.732  -8.858  13.307  1.00  0.00     0.080 A 
HETATM   13  C   UNL     1      40.377  -8.191  14.488  1.00  0.00     0.037 A 
HETATM   14  C   UNL     1      41.090  -8.404  15.665  1.00  0.00     0.003 A 
HETATM   15  C   UNL     1      42.176  -9.274  15.666  1.00  0.00     0.001 A 
HETATM   16  C   UNL     1      42.552  -9.920  14.486  1.00  0.00     0.017 A 
BRANCH  12  17
HETATM   17  O   UNL     1      39.945  -8.562  12.224  1.00  0.00    -0.355 OA
HETATM   18  C   UNL     1      38.586  -8.953  12.409  1.00  0.00     0.210 C 
ENDBRANCH  12  17
ENDBRANCH   9  11
ENDBRANCH   1   5
BRANCH   2  19
HETATM   19  C   UNL     1      45.256 -13.156   7.735  1.00  0.00     0.217 C 
BRANCH  19  20
HETATM   20  C   UNL     1      44.706 -14.471   7.210  1.00  0.00    -0.085 C 
BRANCH  20  21
HETATM   21  C   UNL     1      44.232 -15.599   6.759  1.00  0.00    -0.078 C 
BRANCH  21  22
HETATM   22  C   UNL     1      43.680 -16.915   6.235  1.00  0.00     0.269 C 
BRANCH  22  23
HETATM   23  O   UNL     1      43.845 -16.969   4.822  1.00  0.00    -0.339 OA
BRANCH  23  24
HETATM   24  C   UNL     1      43.990 -18.217   4.275  1.00  0.00     0.072 A 
HETATM   25  C   UNL     1      44.371 -19.373   4.965  1.00  0.00     0.076 A 
HETATM   26  C   UNL     1      44.464 -20.550   4.247  1.00  0.00     0.107 A 
HETATM   27  C   UNL     1      44.197 -20.608   2.901  1.00  0.00     0.105 A 
HETATM   28  O   UNL     1      44.819 -21.759   4.759  1.00  0.00    -0.323 OA
HETATM   29  O   UNL     1      44.349 -21.860   2.395  1.00  0.00    -0.323 OA
HETATM   30  C   UNL     1      43.819 -19.490   2.192  1.00  0.00     0.042 A 
HETATM   31  C   UNL     1      44.744 -22.586   3.577  1.00  0.00     0.352 A 
HETATM   32  C   UNL     1      43.717 -18.284   2.894  1.00  0.00     0.040 A 
ENDBRANCH  23  24
ENDBRANCH  22  23
ENDBRANCH  21  22
ENDBRANCH  20  21
ENDBRANCH  19  20
ENDBRANCH   2  19
TORSDOF 9
ENDMDL
MODEL 2
REMARK VINA RESULT:      -8.5      7.915     11.647
REMARK  9 active torsions:
REMARK  status: ('A' for Active; 'I' for Inactive)
REMARK    1  A    between atoms: O_2  and  C_3 
REMARK    2  A    between atoms: C_4  and  C_5 
REMARK    3  A    between atoms: C_9  and  C_10 
REMARK       I    between atoms: C_10  and  N_11 
REMARK    4  A    between atoms: N_11  and  C_12 
REMARK    5  A    between atoms: C_12  and  C_13 
REMARK    6  A    between atoms: C_13  and  C_14 
REMARK    7  A    between atoms: C_14  and  C_15 
REMARK    8  A    between atoms: C_15  and  O_16 
REMARK    9  A    between atoms: O_16  and  C_17 
ROOT
HETATM    1  C   UNL     1      43.021 -14.316   2.953  1.00  0.00     0.270 C 
HETATM    2  N   UNL     1      41.927 -13.803   2.306  1.00  0.00    -0.345 N 
HETATM    3  O   UNL     1      43.975 -13.623   3.291  1.00  0.00    -0.266 OA
HETATM    4  H   UNL     1      41.132 -14.393   2.117  1.00  0.00     0.163 HD
ENDROOT
BRANCH   1   5
HETATM    5  C   UNL     1      42.974 -15.733   3.197  1.00  0.00     0.120 A 
HETATM    6  N   UNL     1      42.130 -16.278   4.124  1.00  0.00    -0.272 N 
HETATM    7  N   UNL     1      42.234 -17.609   4.250  1.00  0.00    -0.174 NA
HETATM    8  H   UNL     1      41.470 -15.780   4.713  1.00  0.00     0.189 HD
HETATM    9  C   UNL     1      43.172 -17.963   3.359  1.00  0.00     0.092 A 
HETATM   10  C   UNL     1      43.660 -16.813   2.675  1.00  0.00     0.071 A 
BRANCH   9  11
HETATM   11  C   UNL     1      43.623 -19.345   3.188  1.00  0.00     0.028 A 
HETATM   12  C   UNL     1      44.370 -20.048   4.148  1.00  0.00     0.080 A 
HETATM   13  C   UNL     1      44.817 -21.350   3.883  1.00  0.00     0.037 A 
HETATM   14  C   UNL     1      44.491 -21.982   2.686  1.00  0.00     0.003 A 
HETATM   15  C   UNL     1      43.729 -21.310   1.736  1.00  0.00     0.001 A 
HETATM   16  C   UNL     1      43.303 -20.002   1.983  1.00  0.00     0.017 A 
BRANCH  12  17
HETATM   17  O   UNL     1      44.757 -19.547   5.364  1.00  0.00    -0.355 OA
HETATM   18  C   UNL     1      43.930 -19.999   6.434  1.00  0.00     0.210 C 
ENDBRANCH  12  17
ENDBRANCH   9  11
ENDBRANCH   1   5
BRANCH   2  19
HETATM   19  C   UNL     1      41.823 -12.403   1.990  1.00  0.00     0.217 C 
BRANCH  19  20
HETATM   20  C   UNL     1      42.109 -12.229   0.507  1.00  0.00    -0.085 C 
BRANCH  20  21
HETATM   21  C   UNL     1      42.355 -12.081  -0.764  1.00  0.00    -0.078 C 
BRANCH  21  22
HETATM   22  C   UNL     1      42.640 -11.909  -2.247  1.00  0.00     0.269 C 
BRANCH  22  23
HETATM   23  O   UNL     1      42.650 -13.185  -2.879  1.00  0.00    -0.339 OA
BRANCH  23  24
HETATM   24  C   UNL     1      41.427 -13.767  -3.089  1.00  0.00     0.072 A 
HETATM   25  C   UNL     1      40.232 -13.089  -3.349  1.00  0.00     0.076 A 
HETATM   26  C   UNL     1      39.091 -13.845  -3.538  1.00  0.00     0.107 A 
HETATM   27  C   UNL     1      39.104 -15.217  -3.477  1.00  0.00     0.105 A 
HETATM   28  O   UNL     1      37.851 -13.349  -3.799  1.00  0.00    -0.323 OA
HETATM   29  O   UNL     1      37.876 -15.758  -3.691  1.00  0.00    -0.323 OA
HETATM   30  C   UNL     1      40.263 -15.916  -3.224  1.00  0.00     0.042 A 
HETATM   31  C   UNL     1      37.085 -14.569  -3.894  1.00  0.00     0.352 A 
HETATM   32  C   UNL     1      41.434 -15.176  -3.028  1.00  0.00     0.040 A 
ENDBRANCH  23  24
ENDBRANCH  22  23
ENDBRANCH  21  22
ENDBRANCH  20  21
ENDBRANCH  19  20
ENDBRANCH   2  19
TORSDOF 9
ENDMDL
MODEL 3
REMARK VINA RESULT:      -8.4      1.601      2.143
REMARK  9 active torsions:
REMARK  status: ('A' for Active; 'I' for Inactive)
REMARK    1  A    between atoms: O_2  and  C_3 
REMARK    2  A    between atoms: C_4  and  C_5 
REMARK    3  A    between atoms: C_9  and  C_10 
REMARK       I    between atoms: C_10  and  N_11 
REMARK    4  A    between atoms: N_11  and  C_12 
REMARK    5  A    between atoms: C_12  and  C_13 
REMARK    6  A    between atoms: C_13  and  C_14 
REMARK    7  A    between atoms: C_14  and  C_15 
REMARK    8  A    between atoms: C_15  and  O_16 
REMARK    9  A    between atoms: O_16  and  C_17 
ROOT
HETATM    1  C   UNL     1      44.367 -12.287  10.308  1.00  0.00     0.270 C 
HETATM    2  N   UNL     1      44.217 -12.414   8.952  1.00  0.00    -0.345 N 
HETATM    3  O   UNL     1      45.372 -12.665  10.901  1.00  0.00    -0.266 OA
HETATM    4  H   UNL     1      43.409 -12.020   8.495  1.00  0.00     0.163 HD
ENDROOT
BRANCH   1   5
HETATM    5  C   UNL     1      43.252 -11.688  10.990  1.00  0.00     0.120 A 
HETATM    6  N   UNL     1      42.916 -12.036  12.269  1.00  0.00    -0.272 N 
HETATM    7  N   UNL     1      41.832 -11.407  12.745  1.00  0.00    -0.174 NA
HETATM    8  H   UNL     1      43.389 -12.713  12.859  1.00  0.00     0.189 HD
HETATM    9  C   UNL     1      41.442 -10.598  11.749  1.00  0.00     0.092 A 
HETATM   10  C   UNL     1      42.311 -10.743  10.630  1.00  0.00     0.071 A 
BRANCH   9  11
HETATM   11  C   UNL     1      40.258  -9.741  11.839  1.00  0.00     0.028 A 
HETATM   12  C   UNL     1      39.221  -9.739  10.890  1.00  0.00     0.080 A 
HETATM   13  C   UNL     1      38.150  -8.844  11.015  1.00  0.00     0.037 A 
HETATM   14  C   UNL     1      38.074  -7.976  12.101  1.00  0.00     0.003 A 
HETATM   15  C   UNL     1      39.078  -7.984  13.063  1.00  0.00     0.001 A 
HETATM   16  C   UNL     1      40.163  -8.855  12.930  1.00  0.00     0.017 A 
BRANCH  12  17
HETATM   17  O   UNL     1      39.171 -10.541   9.779  1.00  0.00    -0.355 OA
HETATM   18  C   UNL     1      38.980  -9.800   8.576  1.00  0.00     0.210 C 
ENDBRANCH  12  17
ENDBRANCH   9  11
ENDBRANCH   1   5
BRANCH   2  19
HETATM   19  C   UNL     1      45.245 -12.994   8.128  1.00  0.00     0.217 C 
BRANCH  19  20
HETATM   20  C   UNL     1      44.640 -14.162   7.367  1.00  0.00    -0.085 C 
BRANCH  20  21
HETATM   21  C   UNL     1      44.120 -15.163   6.714  1.00  0.00    -0.078 C 
BRANCH  21  22
HETATM   22  C   UNL     1      43.513 -16.329   5.951  1.00  0.00     0.269 C 
BRANCH  22  23
HETATM   23  O   UNL     1      44.443 -17.406   5.915  1.00  0.00    -0.339 OA
BRANCH  23  24
HETATM   24  C   UNL     1      44.294 -18.302   4.888  1.00  0.00     0.072 A 
HETATM   25  C   UNL     1      44.675 -19.648   4.916  1.00  0.00     0.076 A 
HETATM   26  C   UNL     1      44.446 -20.405   3.783  1.00  0.00     0.107 A 
HETATM   27  C   UNL     1      43.866 -19.877   2.656  1.00  0.00     0.105 A 
HETATM   28  O   UNL     1      44.753 -21.723   3.641  1.00  0.00    -0.323 OA
HETATM   29  O   UNL     1      43.734 -20.794   1.661  1.00  0.00    -0.323 OA
HETATM   30  C   UNL     1      43.479 -18.557   2.595  1.00  0.00     0.042 A 
HETATM   31  C   UNL     1      44.298 -21.963   2.291  1.00  0.00     0.352 A 
HETATM   32  C   UNL     1      43.699 -17.766   3.728  1.00  0.00     0.040 A 
ENDBRANCH  23  24
ENDBRANCH  22  23
ENDBRANCH  21  22
ENDBRANCH  20  21
ENDBRANCH  19  20
ENDBRANCH   2  19
TORSDOF 9
ENDMDL
MODEL 4
REMARK VINA RESULT:      -8.4      2.861     12.130
REMARK  9 active torsions:
REMARK  status: ('A' for Active; 'I' for Inactive)
REMARK    1  A    between atoms: O_2  and  C_3 
REMARK    2  A    between atoms: C_4  and  C_5 
REMARK    3  A    between atoms: C_9  and  C_10 
REMARK       I    between atoms: C_10  and  N_11 
REMARK    4  A    between atoms: N_11  and  C_12 
REMARK    5  A    between atoms: C_12  and  C_13 
REMARK    6  A    between atoms: C_13  and  C_14 
REMARK    7  A    between atoms: C_14  and  C_15 
REMARK    8  A    between atoms: C_15  and  O_16 
REMARK    9  A    between atoms: O_16  and  C_17 
ROOT
HETATM    1  C   UNL     1      43.173 -14.780   3.598  1.00  0.00     0.270 C 
HETATM    2  N   UNL     1      42.733 -14.715   4.894  1.00  0.00    -0.345 N 
HETATM    3  O   UNL     1      43.246 -13.793   2.874  1.00  0.00    -0.266 OA
HETATM    4  H   UNL     1      42.762 -15.537   5.478  1.00  0.00     0.163 HD
ENDROOT
BRANCH   1   5
HETATM    5  C   UNL     1      43.530 -16.097   3.143  1.00  0.00     0.120 A 
HETATM    6  N   UNL     1      43.926 -16.333   1.855  1.00  0.00    -0.272 N 
HETATM    7  N   UNL     1      44.193 -17.619   1.587  1.00  0.00    -0.174 NA
HETATM    8  H   UNL     1      44.017 -15.647   1.112  1.00  0.00     0.189 HD
HETATM    9  C   UNL     1      43.982 -18.259   2.746  1.00  0.00     0.092 A 
HETATM   10  C   UNL     1      43.567 -17.337   3.749  1.00  0.00     0.071 A 
BRANCH   9  11
HETATM   11  C   UNL     1      44.130 -19.709   2.891  1.00  0.00     0.028 A 
HETATM   12  C   UNL     1      44.633 -20.331   4.047  1.00  0.00     0.080 A 
HETATM   13  C   UNL     1      44.803 -21.722   4.084  1.00  0.00     0.037 A 
HETATM   14  C   UNL     1      44.435 -22.511   2.998  1.00  0.00     0.003 A 
HETATM   15  C   UNL     1      43.910 -21.914   1.857  1.00  0.00     0.001 A 
HETATM   16  C   UNL     1      43.764 -20.525   1.802  1.00  0.00     0.017 A 
BRANCH  12  17
HETATM   17  O   UNL     1      45.029 -19.675   5.183  1.00  0.00    -0.355 OA
HETATM   18  C   UNL     1      44.117 -19.849   6.265  1.00  0.00     0.210 C 
ENDBRANCH  12  17
ENDBRANCH   9  11
ENDBRANCH   1   5
BRANCH   2  19
HETATM   19  C   UNL     1      42.338 -13.469   5.497  1.00  0.00     0.217 C 
BRANCH  19  20
HETATM   20  C   UNL     1      43.345 -13.127   6.582  1.00  0.00    -0.085 C 
BRANCH  20  21
HETATM   21  C   UNL     1      44.211 -12.835   7.512  1.00  0.00    -0.078 C 
BRANCH  21  22
HETATM   22  C   UNL     1      45.221 -12.493   8.595  1.00  0.00     0.269 C 
BRANCH  22  23
HETATM   23  O   UNL     1      44.925 -11.207   9.130  1.00  0.00    -0.339 OA
BRANCH  23  24
HETATM   24  C   UNL     1      43.897 -11.148  10.034  1.00  0.00     0.072 A 
HETATM   25  C   UNL     1      42.656 -10.538   9.822  1.00  0.00     0.076 A 
HETATM   26  C   UNL     1      41.735 -10.577  10.852  1.00  0.00     0.107 A 
HETATM   27  C   UNL     1      42.006 -11.187  12.052  1.00  0.00     0.105 A 
HETATM   28  O   UNL     1      40.487 -10.037  10.814  1.00  0.00    -0.323 OA
HETATM   29  O   UNL     1      40.964 -11.109  12.922  1.00  0.00    -0.323 OA
HETATM   30  C   UNL     1      43.217 -11.796  12.294  1.00  0.00     0.042 A 
HETATM   31  C   UNL     1      40.004 -10.378  12.132  1.00  0.00     0.352 A 
HETATM   32  C   UNL     1      44.169 -11.772  11.269  1.00  0.00     0.040 A 
ENDBRANCH  23  24
ENDBRANCH  22  23
ENDBRANCH  21  22
ENDBRANCH  20  21
ENDBRANCH  19  20
ENDBRANCH   2  19
TORSDOF 9
ENDMDL
MODEL 5
REMARK VINA RESULT:      -8.3      3.287     12.159
REMARK  9 active torsions:
REMARK  status: ('A' for Active; 'I' for Inactive)
REMARK    1  A    between atoms: O_2  and  C_3 
REMARK    2  A    between atoms: C_4  and  C_5 
REMARK    3  A    between atoms: C_9  and  C_10 
REMARK       I    between atoms: C_10  and  N_11 
REMARK    4  A    between atoms: N_11  and  C_12 
REMARK    5  A    between atoms: C_12  and  C_13 
REMARK    6  A    between atoms: C_13  and  C_14 
REMARK    7  A    between atoms: C_14  and  C_15 
REMARK    8  A    between atoms: C_15  and  O_16 
REMARK    9  A    between atoms: O_16  and  C_17 
ROOT
HETATM    1  C   UNL     1      40.505 -14.904   3.764  1.00  0.00     0.270 C 
HETATM    2  N   UNL     1      40.608 -14.267   4.973  1.00  0.00    -0.345 N 
HETATM    3  O   UNL     1      39.595 -14.680   2.973  1.00  0.00    -0.266 OA
HETATM    4  H   UNL     1      41.414 -14.424   5.558  1.00  0.00     0.163 HD
ENDROOT
BRANCH   1   5
HETATM    5  C   UNL     1      41.538 -15.868   3.495  1.00  0.00     0.120 A 
HETATM    6  N   UNL     1      42.734 -15.508   2.939  1.00  0.00    -0.272 N 
HETATM    7  N   UNL     1      43.573 -16.531   2.725  1.00  0.00    -0.174 NA
HETATM    8  H   UNL     1      43.023 -14.572   2.671  1.00  0.00     0.189 HD
HETATM    9  C   UNL     1      42.915 -17.610   3.171  1.00  0.00     0.092 A 
HETATM   10  C   UNL     1      41.633 -17.235   3.666  1.00  0.00     0.071 A 
BRANCH   9  11
HETATM   11  C   UNL     1      43.467 -18.964   3.096  1.00  0.00     0.028 A 
HETATM   12  C   UNL     1      44.321 -19.515   4.067  1.00  0.00     0.080 A 
HETATM   13  C   UNL     1      44.858 -20.798   3.892  1.00  0.00     0.037 A 
HETATM   14  C   UNL     1      44.519 -21.563   2.779  1.00  0.00     0.003 A 
HETATM   15  C   UNL     1      43.654 -21.043   1.822  1.00  0.00     0.001 A 
HETATM   16  C   UNL     1      43.137 -19.754   1.976  1.00  0.00     0.017 A 
BRANCH  12  17
HETATM   17  O   UNL     1      44.731 -18.874   5.208  1.00  0.00    -0.355 OA
HETATM   18  C   UNL     1      44.114 -19.393   6.383  1.00  0.00     0.210 C 
ENDBRANCH  12  17
ENDBRANCH   9  11
ENDBRANCH   1   5
BRANCH   2  19
HETATM   19  C   UNL     1      39.652 -13.275   5.389  1.00  0.00     0.217 C 
BRANCH  19  20
HETATM   20  C   UNL     1      40.394 -12.193   6.155  1.00  0.00    -0.085 C 
BRANCH  20  21
HETATM   21  C   UNL     1      41.030 -11.264   6.813  1.00  0.00    -0.078 C 
BRANCH  21  22
HETATM   22  C   UNL     1      41.771 -10.179   7.578  1.00  0.00     0.269 C 
BRANCH  22  23
HETATM   23  O   UNL     1      42.845 -10.764   8.307  1.00  0.00    -0.339 OA
BRANCH  23  24
HETATM   24  C   UNL     1      42.772 -10.672   9.673  1.00  0.00     0.072 A 
HETATM   25  C   UNL     1      41.602 -10.736  10.436  1.00  0.00     0.076 A 
HETATM   26  C   UNL     1      41.720 -10.625  11.808  1.00  0.00     0.107 A 
HETATM   27  C   UNL     1      42.936 -10.456  12.425  1.00  0.00     0.105 A 
HETATM   28  O   UNL     1      40.689 -10.666  12.694  1.00  0.00    -0.323 OA
HETATM   29  O   UNL     1      42.824 -10.369  13.777  1.00  0.00    -0.323 OA
HETATM   30  C   UNL     1      44.107 -10.388  11.705  1.00  0.00     0.042 A 
HETATM   31  C   UNL     1      41.397 -10.503  13.942  1.00  0.00     0.352 A 
HETATM   32  C   UNL     1      44.016 -10.498  10.313  1.00  0.00     0.040 A 
ENDBRANCH  23  24
ENDBRANCH  22  23
ENDBRANCH  21  22
ENDBRANCH  20  21
ENDBRANCH  19  20
ENDBRANCH   2  19
TORSDOF 9
ENDMDL
MODEL 6
REMARK VINA RESULT:      -8.2      6.414     11.350
REMARK  9 active torsions:
REMARK  status: ('A' for Active; 'I' for Inactive)
REMARK    1  A    between atoms: O_2  and  C_3 
REMARK    2  A    between atoms: C_4  and  C_5 
REMARK    3  A    between atoms: C_9  and  C_10 
REMARK       I    between atoms: C_10  and  N_11 
REMARK    4  A    between atoms: N_11  and  C_12 
REMARK    5  A    between atoms: C_12  and  C_13 
REMARK    6  A    between atoms: C_13  and  C_14 
REMARK    7  A    between atoms: C_14  and  C_15 
REMARK    8  A    between atoms: C_15  and  O_16 
REMARK    9  A    between atoms: O_16  and  C_17 
ROOT
HETATM    1  C   UNL     1      41.198 -16.013   0.557  1.00  0.00     0.270 C 
HETATM    2  N   UNL     1      40.145 -15.777   1.402  1.00  0.00    -0.345 N 
HETATM    3  O   UNL     1      41.296 -15.479  -0.543  1.00  0.00    -0.266 OA
HETATM    4  H   UNL     1      40.143 -16.176   2.328  1.00  0.00     0.163 HD
ENDROOT
BRANCH   1   5
HETATM    5  C   UNL     1      42.175 -16.945   1.050  1.00  0.00     0.120 A 
HETATM    6  N   UNL     1      43.509 -16.799   0.787  1.00  0.00    -0.272 N 
HETATM    7  N   UNL     1      44.281 -17.771   1.293  1.00  0.00    -0.174 NA
HETATM    8  H   UNL     1      43.945 -16.056   0.250  1.00  0.00     0.189 HD
HETATM    9  C   UNL     1      43.428 -18.586   1.930  1.00  0.00     0.092 A 
HETATM   10  C   UNL     1      42.096 -18.100   1.804  1.00  0.00     0.071 A 
BRANCH   9  11
HETATM   11  C   UNL     1      43.857 -19.811   2.607  1.00  0.00     0.028 A 
HETATM   12  C   UNL     1      44.365 -19.843   3.918  1.00  0.00     0.080 A 
HETATM   13  C   UNL     1      44.813 -21.049   4.474  1.00  0.00     0.037 A 
HETATM   14  C   UNL     1      44.720 -22.239   3.757  1.00  0.00     0.003 A 
HETATM   15  C   UNL     1      44.193 -22.230   2.469  1.00  0.00     0.001 A 
HETATM   16  C   UNL     1      43.771 -21.026   1.898  1.00  0.00     0.017 A 
BRANCH  12  17
HETATM   17  O   UNL     1      44.510 -18.749   4.731  1.00  0.00    -0.355 OA
HETATM   18  C   UNL     1      44.549 -19.094   6.114  1.00  0.00     0.210 C 
ENDBRANCH  12  17
ENDBRANCH   9  11
ENDBRANCH   1   5
BRANCH   2  19
HETATM   19  C   UNL     1      39.084 -14.869   1.053  1.00  0.00     0.217 C 
BRANCH  19  20
HETATM   20  C   UNL     1      39.148 -13.680   1.998  1.00  0.00    -0.085 C 
BRANCH  20  21
HETATM   21  C   UNL     1      39.205 -12.661   2.809  1.00  0.00    -0.078 C 
BRANCH  21  22
HETATM   22  C   UNL     1      39.271 -11.471   3.752  1.00  0.00     0.269 C 
BRANCH  22  23
HETATM   23  O   UNL     1      39.313 -11.936   5.098  1.00  0.00    -0.339 OA
BRANCH  23  24
HETATM   24  C   UNL     1      40.254 -12.891   5.381  1.00  0.00     0.072 A 
HETATM   25  C   UNL     1      41.635 -12.681   5.456  1.00  0.00     0.076 A 
HETATM   26  C   UNL     1      42.435 -13.766   5.757  1.00  0.00     0.107 A 
HETATM   27  C   UNL     1      41.916 -15.019   5.978  1.00  0.00     0.105 A 
HETATM   28  O   UNL     1      43.791 -13.739   5.869  1.00  0.00    -0.323 OA
HETATM   29  O   UNL     1      42.878 -15.937   6.257  1.00  0.00    -0.323 OA
HETATM   30  C   UNL     1      40.562 -15.260   5.913  1.00  0.00     0.042 A 
HETATM   31  C   UNL     1      44.064 -15.121   6.186  1.00  0.00     0.352 A 
HETATM   32  C   UNL     1      39.727 -14.178   5.610  1.00  0.00     0.040 A 
ENDBRANCH  23  24
ENDBRANCH  22  23
ENDBRANCH  21  22
ENDBRANCH  20  21
ENDBRANCH  19  20
ENDBRANCH   2  19
TORSDOF 9
ENDMDL
MODEL 7
REMARK VINA RESULT:      -8.1      3.272     12.008
REMARK  9 active torsions:
REMARK  status: ('A' for Active; 'I' for Inactive)
REMARK    1  A    between atoms: O_2  and  C_3 
REMARK    2  A    between atoms: C_4  and  C_5 
REMARK    3  A    between atoms: C_9  and  C_10 
REMARK       I    between atoms: C_10  and  N_11 
REMARK    4  A    between atoms: N_11  and  C_12 
REMARK    5  A    between atoms: C_12  and  C_13 
REMARK    6  A    between atoms: C_13  and  C_14 
REMARK    7  A    between atoms: C_14  and  C_15 
REMARK    8  A    between atoms: C_15  and  O_16 
REMARK    9  A    between atoms: O_16  and  C_17 
ROOT
HETATM    1  C   UNL     1      40.398 -14.199   4.833  1.00  0.00     0.270 C 
HETATM    2  N   UNL     1      39.814 -13.847   6.022  1.00  0.00    -0.345 N 
HETATM    3  O   UNL     1      40.442 -13.443   3.869  1.00  0.00    -0.266 OA
HETATM    4  H   UNL     1      39.869 -14.469   6.814  1.00  0.00     0.163 HD
ENDROOT
BRANCH   1   5
HETATM    5  C   UNL     1      40.947 -15.528   4.796  1.00  0.00     0.120 A 
HETATM    6  N   UNL     1      40.530 -16.505   5.657  1.00  0.00    -0.272 N 
HETATM    7  N   UNL     1      41.164 -17.677   5.510  1.00  0.00    -0.174 NA
HETATM    8  H   UNL     1      39.822 -16.418   6.379  1.00  0.00     0.189 HD
HETATM    9  C   UNL     1      42.024 -17.475   4.501  1.00  0.00     0.092 A 
HETATM   10  C   UNL     1      41.915 -16.138   4.023  1.00  0.00     0.071 A 
BRANCH   9  11
HETATM   11  C   UNL     1      42.949 -18.506   4.028  1.00  0.00     0.028 A 
HETATM   12  C   UNL     1      43.886 -19.153   4.852  1.00  0.00     0.080 A 
HETATM   13  C   UNL     1      44.780 -20.086   4.310  1.00  0.00     0.037 A 
HETATM   14  C   UNL     1      44.726 -20.419   2.959  1.00  0.00     0.003 A 
HETATM   15  C   UNL     1      43.787 -19.808   2.134  1.00  0.00     0.001 A 
HETATM   16  C   UNL     1      42.910 -18.856   2.663  1.00  0.00     0.017 A 
BRANCH  12  17
HETATM   17  O   UNL     1      44.044 -18.922   6.194  1.00  0.00    -0.355 OA
HETATM   18  C   UNL     1      45.142 -18.059   6.478  1.00  0.00     0.210 C 
ENDBRANCH  12  17
ENDBRANCH   9  11
ENDBRANCH   1   5
BRANCH   2  19
HETATM   19  C   UNL     1      39.220 -12.551   6.219  1.00  0.00     0.217 C 
BRANCH  19  20
HETATM   20  C   UNL     1      40.186 -11.706   7.033  1.00  0.00    -0.085 C 
BRANCH  20  21
HETATM   21  C   UNL     1      41.015 -10.981   7.731  1.00  0.00    -0.078 C 
BRANCH  21  22
HETATM   22  C   UNL     1      41.980 -10.135   8.544  1.00  0.00     0.269 C 
BRANCH  22  23
HETATM   23  O   UNL     1      42.660 -10.961   9.483  1.00  0.00    -0.339 OA
BRANCH  23  24
HETATM   24  C   UNL     1      42.399 -10.718  10.806  1.00  0.00     0.072 A 
HETATM   25  C   UNL     1      43.248 -10.056  11.699  1.00  0.00     0.076 A 
HETATM   26  C   UNL     1      42.817  -9.900  13.002  1.00  0.00     0.107 A 
HETATM   27  C   UNL     1      41.600 -10.371  13.431  1.00  0.00     0.105 A 
HETATM   28  O   UNL     1      43.514  -9.284  13.995  1.00  0.00    -0.323 OA
HETATM   29  O   UNL     1      41.376 -10.111  14.746  1.00  0.00    -0.323 OA
HETATM   30  C   UNL     1      40.740 -11.026  12.579  1.00  0.00     0.042 A 
HETATM   31  C   UNL     1      42.593  -9.422  15.098  1.00  0.00     0.352 A 
HETATM   32  C   UNL     1      41.151 -11.199  11.252  1.00  0.00     0.040 A 
ENDBRANCH  23  24
ENDBRANCH  22  23
ENDBRANCH  21  22
ENDBRANCH  20  21
ENDBRANCH  19  20
ENDBRANCH   2  19
TORSDOF 9
ENDMDL
MODEL 8
REMARK VINA RESULT:      -8.0      7.175     11.588
REMARK  9 active torsions:
REMARK  status: ('A' for Active; 'I' for Inactive)
REMARK    1  A    between atoms: O_2  and  C_3 
REMARK    2  A    between atoms: C_4  and  C_5 
REMARK    3  A    between atoms: C_9  and  C_10 
REMARK       I    between atoms: C_10  and  N_11 
REMARK    4  A    between atoms: N_11  and  C_12 
REMARK    5  A    between atoms: C_12  and  C_13 
REMARK    6  A    between atoms: C_13  and  C_14 
REMARK    7  A    between atoms: C_14  and  C_15 
REMARK    8  A    between atoms: C_15  and  O_16 
REMARK    9  A    between atoms: O_16  and  C_17 
ROOT
HETATM    1  C   UNL     1      41.921 -14.991   4.276  1.00  0.00     0.270 C 
HETATM    2  N   UNL     1      40.767 -14.652   3.618  1.00  0.00    -0.345 N 
HETATM    3  O   UNL     1      42.345 -14.358   5.237  1.00  0.00    -0.266 OA
HETATM    4  H   UNL     1      40.413 -15.244   2.883  1.00  0.00     0.163 HD
ENDROOT
BRANCH   1   5
HETATM    5  C   UNL     1      42.607 -16.138   3.746  1.00  0.00     0.120 A 
HETATM    6  N   UNL     1      43.412 -16.052   2.643  1.00  0.00    -0.272 N 
HETATM    7  N   UNL     1      43.951 -17.219   2.262  1.00  0.00    -0.174 NA
HETATM    8  H   UNL     1      43.614 -15.217   2.102  1.00  0.00     0.189 HD
HETATM    9  C   UNL     1      43.500 -18.111   3.156  1.00  0.00     0.092 A 
HETATM   10  C   UNL     1      42.656 -17.470   4.107  1.00  0.00     0.071 A 
BRANCH   9  11
HETATM   11  C   UNL     1      43.828 -19.536   3.089  1.00  0.00     0.028 A 
HETATM   12  C   UNL     1      44.472 -20.239   4.122  1.00  0.00     0.080 A 
HETATM   13  C   UNL     1      44.808 -21.589   3.958  1.00  0.00     0.037 A 
HETATM   14  C   UNL     1      44.469 -22.267   2.789  1.00  0.00     0.003 A 
HETATM   15  C   UNL     1      43.806 -21.594   1.768  1.00  0.00     0.001 A 
HETATM   16  C   UNL     1      43.493 -20.240   1.915  1.00  0.00     0.017 A 
BRANCH  12  17
HETATM   17  O   UNL     1      44.859 -19.695   5.320  1.00  0.00    -0.355 OA
HETATM   18  C   UNL     1      44.035 -20.114   6.405  1.00  0.00     0.210 C 
ENDBRANCH  12  17
ENDBRANCH   9  11
ENDBRANCH   1   5
BRANCH   2  19
HETATM   19  C   UNL     1      39.965 -13.529   4.027  1.00  0.00     0.217 C 
BRANCH  19  20
HETATM   20  C   UNL     1      39.197 -13.028   2.815  1.00  0.00    -0.085 C 
BRANCH  20  21
HETATM   21  C   UNL     1      38.537 -12.600   1.776  1.00  0.00    -0.078 C 
BRANCH  21  22
HETATM   22  C   UNL     1      37.769 -12.099   0.564  1.00  0.00     0.269 C 
BRANCH  22  23
HETATM   23  O   UNL     1      38.685 -11.771  -0.475  1.00  0.00    -0.339 OA
BRANCH  23  24
HETATM   24  C   UNL     1      38.986 -12.774  -1.358  1.00  0.00     0.072 A 
HETATM   25  C   UNL     1      38.060 -13.549  -2.064  1.00  0.00     0.076 A 
HETATM   26  C   UNL     1      38.548 -14.520  -2.916  1.00  0.00     0.107 A 
HETATM   27  C   UNL     1      39.895 -14.736  -3.082  1.00  0.00     0.105 A 
HETATM   28  O   UNL     1      37.790 -15.357  -3.674  1.00  0.00    -0.323 OA
HETATM   29  O   UNL     1      40.155 -15.736  -3.965  1.00  0.00    -0.323 OA
HETATM   30  C   UNL     1      40.833 -13.992  -2.405  1.00  0.00     0.042 A 
HETATM   31  C   UNL     1      38.817 -16.127  -4.337  1.00  0.00     0.352 A 
HETATM   32  C   UNL     1      40.367 -13.001  -1.534  1.00  0.00     0.040 A 
ENDBRANCH  23  24
ENDBRANCH  22  23
ENDBRANCH  21  22
ENDBRANCH  20  21
ENDBRANCH  19  20
ENDBRANCH   2  19
TORSDOF 9
ENDMDL
MODEL 9
REMARK VINA RESULT:      -7.9      3.628     11.812
REMARK  9 active torsions:
REMARK  status: ('A' for Active; 'I' for Inactive)
REMARK    1  A    between atoms: O_2  and  C_3 
REMARK    2  A    between atoms: C_4  and  C_5 
REMARK    3  A    between atoms: C_9  and  C_10 
REMARK       I    between atoms: C_10  and  N_11 
REMARK    4  A    between atoms: N_11  and  C_12 
REMARK    5  A    between atoms: C_12  and  C_13 
REMARK    6  A    between atoms: C_13  and  C_14 
REMARK    7  A    between atoms: C_14  and  C_15 
REMARK    8  A    between atoms: C_15  and  O_16 
REMARK    9  A    between atoms: O_16  and  C_17 
ROOT
HETATM    1  C   UNL     1      42.846 -14.353   3.258  1.00  0.00     0.270 C 
HETATM    2  N   UNL     1      41.631 -13.723   3.334  1.00  0.00    -0.345 N 
HETATM    3  O   UNL     1      43.911 -13.751   3.347  1.00  0.00    -0.266 OA
HETATM    4  H   UNL     1      40.782 -14.265   3.334  1.00  0.00     0.163 HD
ENDROOT
BRANCH   1   5
HETATM    5  C   UNL     1      42.781 -15.775   3.051  1.00  0.00     0.120 A 
HETATM    6  N   UNL     1      41.639 -16.390   2.620  1.00  0.00    -0.272 N 
HETATM    7  N   UNL     1      41.738 -17.722   2.509  1.00  0.00    -0.174 NA
HETATM    8  H   UNL     1      40.754 -15.944   2.399  1.00  0.00     0.189 HD
HETATM    9  C   UNL     1      43.000 -18.001   2.866  1.00  0.00     0.092 A 
HETATM   10  C   UNL     1      43.689 -16.803   3.210  1.00  0.00     0.071 A 
BRANCH   9  11
HETATM   11  C   UNL     1      43.528 -19.366   2.917  1.00  0.00     0.028 A 
HETATM   12  C   UNL     1      44.298 -19.866   3.981  1.00  0.00     0.080 A 
HETATM   13  C   UNL     1      44.819 -21.166   3.926  1.00  0.00     0.037 A 
HETATM   14  C   UNL     1      44.547 -21.995   2.841  1.00  0.00     0.003 A 
HETATM   15  C   UNL     1      43.763 -21.525   1.793  1.00  0.00     0.001 A 
HETATM   16  C   UNL     1      43.263 -20.220   1.828  1.00  0.00     0.017 A 
BRANCH  12  17
HETATM   17  O   UNL     1      44.638 -19.160   5.105  1.00  0.00    -0.355 OA
HETATM   18  C   UNL     1      43.932 -19.598   6.264  1.00  0.00     0.210 C 
ENDBRANCH  12  17
ENDBRANCH   9  11
ENDBRANCH   1   5
BRANCH   2  19
HETATM   19  C   UNL     1      41.528 -12.302   3.539  1.00  0.00     0.217 C 
BRANCH  19  20
HETATM   20  C   UNL     1      40.816 -12.064   4.860  1.00  0.00    -0.085 C 
BRANCH  20  21
HETATM   21  C   UNL     1      40.207 -11.859   5.994  1.00  0.00    -0.078 C 
BRANCH  21  22
HETATM   22  C   UNL     1      39.495 -11.620   7.315  1.00  0.00     0.269 C 
BRANCH  22  23
HETATM   23  O   UNL     1      40.014 -10.445   7.928  1.00  0.00    -0.339 OA
BRANCH  23  24
HETATM   24  C   UNL     1      41.060 -10.624   8.795  1.00  0.00     0.072 A 
HETATM   25  C   UNL     1      42.417 -10.594   8.457  1.00  0.00     0.076 A 
HETATM   26  C   UNL     1      43.338 -10.795   9.467  1.00  0.00     0.107 A 
HETATM   27  C   UNL     1      42.958 -11.019  10.768  1.00  0.00     0.105 A 
HETATM   28  O   UNL     1      44.689 -10.798   9.313  1.00  0.00    -0.323 OA
HETATM   29  O   UNL     1      44.021 -11.190  11.597  1.00  0.00    -0.323 OA
HETATM   30  C   UNL     1      41.632 -11.054  11.136  1.00  0.00     0.042 A 
HETATM   31  C   UNL     1      45.116 -11.050  10.670  1.00  0.00     0.352 A 
HETATM   32  C   UNL     1      40.677 -10.854  10.132  1.00  0.00     0.040 A 
ENDBRANCH  23  24
ENDBRANCH  22  23
ENDBRANCH  21  22
ENDBRANCH  20  21
ENDBRANCH  19  20
ENDBRANCH   2  19
TORSDOF 9
ENDMDL
MODEL 10
REMARK VINA RESULT:      -7.9      7.086     10.888
REMARK  9 active torsions:
REMARK  status: ('A' for Active; 'I' for Inactive)
REMARK    1  A    between atoms: O_2  and  C_3 
REMARK    2  A    between atoms: C_4  and  C_5 
REMARK    3  A    between atoms: C_9  and  C_10 
REMARK       I    between atoms: C_10  and  N_11 
REMARK    4  A    between atoms: N_11  and  C_12 
REMARK    5  A    between atoms: C_12  and  C_13 
REMARK    6  A    between atoms: C_13  and  C_14 
REMARK    7  A    between atoms: C_14  and  C_15 
REMARK    8  A    between atoms: C_15  and  O_16 
REMARK    9  A    between atoms: O_16  and  C_17 
ROOT
HETATM    1  C   UNL     1      41.764 -13.923   3.991  1.00  0.00     0.270 C 
HETATM    2  N   UNL     1      40.536 -13.442   3.619  1.00  0.00    -0.345 N 
HETATM    3  O   UNL     1      42.679 -13.190   4.353  1.00  0.00    -0.266 OA
HETATM    4  H   UNL     1      39.788 -14.083   3.403  1.00  0.00     0.163 HD
ENDROOT
BRANCH   1   5
HETATM    5  C   UNL     1      41.907 -15.351   3.912  1.00  0.00     0.120 A 
HETATM    6  N   UNL     1      40.923 -16.200   4.339  1.00  0.00    -0.272 N 
HETATM    7  N   UNL     1      41.228 -17.500   4.224  1.00  0.00    -0.174 NA
HETATM    8  H   UNL     1      40.024 -15.939   4.732  1.00  0.00     0.189 HD
HETATM    9  C   UNL     1      42.456 -17.516   3.686  1.00  0.00     0.092 A 
HETATM   10  C   UNL     1      42.916 -16.185   3.471  1.00  0.00     0.071 A 
BRANCH   9  11
HETATM   11  C   UNL     1      43.189 -18.754   3.418  1.00  0.00     0.028 A 
HETATM   12  C   UNL     1      44.118 -19.321   4.308  1.00  0.00     0.080 A 
HETATM   13  C   UNL     1      44.826 -20.477   3.951  1.00  0.00     0.037 A 
HETATM   14  C   UNL     1      44.588 -21.106   2.732  1.00  0.00     0.003 A 
HETATM   15  C   UNL     1      43.652 -20.574   1.851  1.00  0.00     0.001 A 
HETATM   16  C   UNL     1      42.963 -19.406   2.189  1.00  0.00     0.017 A 
BRANCH  12  17
HETATM   17  O   UNL     1      44.444 -18.806   5.536  1.00  0.00    -0.355 OA
HETATM   18  C   UNL     1      43.895 -19.563   6.612  1.00  0.00     0.210 C 
ENDBRANCH  12  17
ENDBRANCH   9  11
ENDBRANCH   1   5
BRANCH   2  19
HETATM   19  C   UNL     1      40.235 -12.034   3.643  1.00  0.00     0.217 C 
BRANCH  19  20
HETATM   20  C   UNL     1      40.852 -11.397   2.409  1.00  0.00    -0.085 C 
BRANCH  20  21
HETATM   21  C   UNL     1      41.382 -10.851   1.350  1.00  0.00    -0.078 C 
BRANCH  21  22
HETATM   22  C   UNL     1      42.002 -10.214   0.117  1.00  0.00     0.269 C 
BRANCH  22  23
HETATM   23  O   UNL     1      42.929 -11.121  -0.469  1.00  0.00    -0.339 OA
BRANCH  23  24
HETATM   24  C   UNL     1      42.401 -12.082  -1.290  1.00  0.00     0.072 A 
HETATM   25  C   UNL     1      41.971 -13.352  -0.892  1.00  0.00     0.076 A 
HETATM   26  C   UNL     1      41.462 -14.194  -1.862  1.00  0.00     0.107 A 
HETATM   27  C   UNL     1      41.372 -13.820  -3.180  1.00  0.00     0.105 A 
HETATM   28  O   UNL     1      41.000 -15.456  -1.648  1.00  0.00    -0.323 OA
HETATM   29  O   UNL     1      40.844 -14.797  -3.963  1.00  0.00    -0.323 OA
HETATM   30  C   UNL     1      41.787 -12.578  -3.607  1.00  0.00     0.042 A 
HETATM   31  C   UNL     1      40.610 -15.832  -2.986  1.00  0.00     0.352 A 
HETATM   32  C   UNL     1      42.307 -11.705  -2.645  1.00  0.00     0.040 A 
ENDBRANCH  23  24
ENDBRANCH  22  23
ENDBRANCH  21  22
ENDBRANCH  20  21
ENDBRANCH  19  20
ENDBRANCH   2  19
TORSDOF 9
ENDMDL
