MODEL 1
REMARK VINA RESULT:     -10.1      0.000      0.000
REMARK  4 active torsions:
REMARK  status: ('A' for Active; 'I' for Inactive)
REMARK    1  A    between atoms: C_4  and  C_5 
REMARK    2  A    between atoms: N_8  and  C_9 
REMARK    3  A    between atoms: C_12  and  C_13 
REMARK       I    between atoms: C_13  and  N_14 
REMARK    4  A    between atoms: N_14  and  N_15 
ROOT
HETATM    1  C   UNL     1      41.058 -13.397   3.591  1.00  0.00     0.034 A 
HETATM    2  C   UNL     1      41.947 -12.487   4.174  1.00  0.00     0.030 A 
HETATM    3  C   UNL     1      41.684 -11.904   5.426  1.00  0.00     0.019 A 
HETATM    4  C   UNL     1      40.510 -12.222   6.116  1.00  0.00     0.033 A 
HETATM    5  C   UNL     1      39.605 -13.116   5.535  1.00  0.00     0.019 A 
HETATM    6  C   UNL     1      39.875 -13.686   4.288  1.00  0.00     0.030 A 
ENDROOT
BRANCH   4   7
HETATM    7  C   UNL     1      40.188 -11.703   7.476  1.00  0.00     0.271 C 
HETATM    8  N   UNL     1      41.232 -11.142   8.193  1.00  0.00    -0.242 N 
HETATM    9  H   UNL     1      42.156 -11.003   7.783  1.00  0.00     0.192 HD
HETATM   10  O   UNL     1      39.027 -11.779   7.877  1.00  0.00    -0.266 OA
BRANCH   8  11
HETATM   11  N   UNL     1      40.983 -10.656   9.447  1.00  0.00    -0.166 NA
HETATM   12  C   UNL     1      41.998 -10.465  10.225  1.00  0.00     0.157 A 
HETATM   13  C   UNL     1      43.482 -10.704   9.943  1.00  0.00     0.277 A 
HETATM   14  C   UNL     1      41.927  -9.955  11.589  1.00  0.00     0.027 A 
HETATM   15  O   UNL     1      43.927 -11.136   8.900  1.00  0.00    -0.266 OA
HETATM   16  N   UNL     1      44.143 -10.330  11.094  1.00  0.00    -0.321 N 
HETATM   17  C   UNL     1      43.237  -9.893  12.059  1.00  0.00     0.048 A 
HETATM   18  H   UNL     1      45.144 -10.377  11.202  1.00  0.00     0.169 HD
HETATM   19  C   UNL     1      43.516  -9.443  13.332  1.00  0.00     0.030 A 
HETATM   20  C   UNL     1      42.430  -9.056  14.129  1.00  0.00     0.002 A 
HETATM   21  C   UNL     1      41.106  -9.124  13.646  1.00  0.00     0.001 A 
HETATM   22  C   UNL     1      40.841  -9.580  12.353  1.00  0.00     0.016 A 
ENDBRANCH   8  11
ENDBRANCH   4   7
BRANCH   1  23
HETATM   23  N   UNL     1      41.267 -14.043   2.359  1.00  0.00    -0.335 N 
HETATM   24  C   UNL     1      41.802 -15.255   2.089  1.00  0.00     0.171 A 
HETATM   25  N   UNL     1      42.430 -16.072   2.904  1.00  0.00    -0.223 NA
HETATM   26  S   UNL     1      41.666 -15.845   0.465  1.00  0.00    -0.061 SA
HETATM   27  C   UNL     1      42.809 -17.238   2.251  1.00  0.00     0.076 A 
HETATM   28  C   UNL     1      42.475 -17.282   0.914  1.00  0.00     0.085 A 
HETATM   29  H   UNL     1      40.816 -13.584   1.577  1.00  0.00     0.168 HD
BRANCH  27  30
HETATM   30  C   UNL     1      43.537 -18.295   2.945  1.00  0.00    -0.007 A 
HETATM   31  C   UNL     1      43.902 -18.180   4.296  1.00  0.00     0.014 A 
HETATM   32  C   UNL     1      44.582 -19.218   4.940  1.00  0.00     0.001 A 
HETATM   33  C   UNL     1      44.906 -20.379   4.241  1.00  0.00     0.000 A 
HETATM   34  C   UNL     1      44.559 -20.502   2.897  1.00  0.00     0.001 A 
HETATM   35  C   UNL     1      43.882 -19.463   2.252  1.00  0.00     0.014 A 
ENDBRANCH  27  30
ENDBRANCH   1  23
TORSDOF 4
ENDMDL
MODEL 2
REMARK VINA RESULT:      -9.9      1.678      2.633
REMARK  4 active torsions:
REMARK  status: ('A' for Active; 'I' for Inactive)
REMARK    1  A    between atoms: C_4  and  C_5 
REMARK    2  A    between atoms: N_8  and  C_9 
REMARK    3  A    between atoms: C_12  and  C_13 
REMARK       I    between atoms: C_13  and  N_14 
REMARK    4  A    between atoms: N_14  and  N_15 
ROOT
HETATM    1  C   UNL     1      43.190 -14.273   4.346  1.00  0.00     0.034 A 
HETATM    2  C   UNL     1      42.228 -13.479   4.980  1.00  0.00     0.030 A 
HETATM    3  C   UNL     1      42.441 -12.958   6.269  1.00  0.00     0.019 A 
HETATM    4  C   UNL     1      43.630 -13.234   6.951  1.00  0.00     0.033 A 
HETATM    5  C   UNL     1      44.591 -14.041   6.335  1.00  0.00     0.019 A 
HETATM    6  C   UNL     1      44.368 -14.557   5.056  1.00  0.00     0.030 A 
ENDROOT
BRANCH   4   7
HETATM    7  C   UNL     1      43.964 -12.665   8.288  1.00  0.00     0.271 C 
HETATM    8  N   UNL     1      43.126 -11.672   8.769  1.00  0.00    -0.242 N 
HETATM    9  H   UNL     1      42.271 -11.402   8.283  1.00  0.00     0.192 HD
HETATM   10  O   UNL     1      44.935 -13.114   8.894  1.00  0.00    -0.266 OA
BRANCH   8  11
HETATM   11  N   UNL     1      43.397 -11.118   9.991  1.00  0.00    -0.166 NA
HETATM   12  C   UNL     1      42.394 -10.698  10.690  1.00  0.00     0.157 A 
HETATM   13  C   UNL     1      40.904 -10.731  10.348  1.00  0.00     0.277 A 
HETATM   14  C   UNL     1      42.488 -10.083  12.009  1.00  0.00     0.027 A 
HETATM   15  O   UNL     1      40.440 -11.171   9.316  1.00  0.00    -0.266 OA
HETATM   16  N   UNL     1      40.262 -10.173  11.433  1.00  0.00    -0.321 N 
HETATM   17  C   UNL     1      41.185  -9.792  12.406  1.00  0.00     0.048 A 
HETATM   18  H   UNL     1      39.261 -10.063  11.493  1.00  0.00     0.169 HD
HETATM   19  C   UNL     1      40.927  -9.199  13.624  1.00  0.00     0.030 A 
HETATM   20  C   UNL     1      42.027  -8.903  14.440  1.00  0.00     0.002 A 
HETATM   21  C   UNL     1      43.344  -9.200  14.030  1.00  0.00     0.001 A 
HETATM   22  C   UNL     1      43.587  -9.802  12.793  1.00  0.00     0.016 A 
ENDBRANCH   8  11
ENDBRANCH   4   7
BRANCH   1  23
HETATM   23  N   UNL     1      43.062 -14.803   3.050  1.00  0.00    -0.335 N 
HETATM   24  C   UNL     1      43.167 -16.081   2.616  1.00  0.00     0.171 A 
HETATM   25  N   UNL     1      43.591 -17.136   3.273  1.00  0.00    -0.223 NA
HETATM   26  S   UNL     1      42.690 -16.410   0.982  1.00  0.00    -0.061 SA
HETATM   27  C   UNL     1      43.523 -18.277   2.485  1.00  0.00     0.076 A 
HETATM   28  C   UNL     1      43.057 -18.065   1.204  1.00  0.00     0.085 A 
HETATM   29  H   UNL     1      42.698 -14.144   2.374  1.00  0.00     0.168 HD
BRANCH  27  30
HETATM   30  C   UNL     1      43.955 -19.576   2.990  1.00  0.00    -0.007 A 
HETATM   31  C   UNL     1      44.413 -19.744   4.306  1.00  0.00     0.014 A 
HETATM   32  C   UNL     1      44.803 -21.005   4.768  1.00  0.00     0.001 A 
HETATM   33  C   UNL     1      44.742 -22.109   3.920  1.00  0.00     0.000 A 
HETATM   34  C   UNL     1      44.298 -21.954   2.608  1.00  0.00     0.001 A 
HETATM   35  C   UNL     1      43.912 -20.693   2.145  1.00  0.00     0.014 A 
ENDBRANCH  27  30
ENDBRANCH   1  23
TORSDOF 4
ENDMDL
MODEL 3
REMARK VINA RESULT:      -9.9      2.922     10.273
REMARK  4 active torsions:
REMARK  status: ('A' for Active; 'I' for Inactive)
REMARK    1  A    between atoms: C_4  and  C_5 
REMARK    2  A    between atoms: N_8  and  C_9 
REMARK    3  A    between atoms: C_12  and  C_13 
REMARK       I    between atoms: C_13  and  N_14 
REMARK    4  A    between atoms: N_14  and  N_15 
ROOT
HETATM    1  C   UNL     1      40.634 -11.878   5.225  1.00  0.00     0.034 A 
HETATM    2  C   UNL     1      41.744 -12.059   4.392  1.00  0.00     0.030 A 
HETATM    3  C   UNL     1      42.033 -13.309   3.816  1.00  0.00     0.019 A 
HETATM    4  C   UNL     1      41.210 -14.409   4.076  1.00  0.00     0.033 A 
HETATM    5  C   UNL     1      40.108 -14.245   4.921  1.00  0.00     0.019 A 
HETATM    6  C   UNL     1      39.833 -12.999   5.491  1.00  0.00     0.030 A 
ENDROOT
BRANCH   4   7
HETATM    7  C   UNL     1      41.406 -15.749   3.452  1.00  0.00     0.271 C 
HETATM    8  N   UNL     1      42.710 -16.205   3.350  1.00  0.00    -0.242 N 
HETATM    9  H   UNL     1      43.494 -15.699   3.762  1.00  0.00     0.192 HD
HETATM   10  O   UNL     1      40.415 -16.379   3.085  1.00  0.00    -0.266 OA
BRANCH   8  11
HETATM   11  N   UNL     1      42.937 -17.428   2.781  1.00  0.00    -0.166 NA
HETATM   12  C   UNL     1      43.502 -18.331   3.514  1.00  0.00     0.157 A 
HETATM   13  C   UNL     1      43.966 -18.236   4.967  1.00  0.00     0.277 A 
HETATM   14  C   UNL     1      43.820 -19.686   3.079  1.00  0.00     0.027 A 
HETATM   15  O   UNL     1      43.869 -17.245   5.661  1.00  0.00    -0.266 OA
HETATM   16  N   UNL     1      44.488 -19.476   5.272  1.00  0.00    -0.321 N 
HETATM   17  C   UNL     1      44.406 -20.326   4.170  1.00  0.00     0.048 A 
HETATM   18  H   UNL     1      44.873 -19.712   6.173  1.00  0.00     0.169 HD
HETATM   19  C   UNL     1      44.824 -21.637   4.087  1.00  0.00     0.030 A 
HETATM   20  C   UNL     1      44.638 -22.294   2.863  1.00  0.00     0.002 A 
HETATM   21  C   UNL     1      44.046 -21.638   1.762  1.00  0.00     0.001 A 
HETATM   22  C   UNL     1      43.626 -20.310   1.865  1.00  0.00     0.016 A 
ENDBRANCH   8  11
ENDBRANCH   4   7
BRANCH   1  23
HETATM   23  N   UNL     1      40.264 -10.654   5.811  1.00  0.00    -0.335 N 
HETATM   24  C   UNL     1      40.561 -10.145   7.028  1.00  0.00     0.171 A 
HETATM   25  N   UNL     1      41.131 -10.745   8.049  1.00  0.00    -0.223 NA
HETATM   26  S   UNL     1      40.150  -8.487   7.323  1.00  0.00    -0.061 SA
HETATM   27  C   UNL     1      41.288  -9.872   9.118  1.00  0.00     0.076 A 
HETATM   28  C   UNL     1      40.806  -8.599   8.897  1.00  0.00     0.085 A 
HETATM   29  H   UNL     1      39.831 -10.007   5.164  1.00  0.00     0.168 HD
BRANCH  27  30
HETATM   30  C   UNL     1      41.885 -10.311  10.375  1.00  0.00    -0.007 A 
HETATM   31  C   UNL     1      43.264 -10.209  10.617  1.00  0.00     0.014 A 
HETATM   32  C   UNL     1      43.805 -10.619  11.839  1.00  0.00     0.001 A 
HETATM   33  C   UNL     1      42.974 -11.137  12.831  1.00  0.00     0.000 A 
HETATM   34  C   UNL     1      41.605 -11.253  12.600  1.00  0.00     0.001 A 
HETATM   35  C   UNL     1      41.064 -10.847  11.377  1.00  0.00     0.014 A 
ENDBRANCH  27  30
ENDBRANCH   1  23
TORSDOF 4
ENDMDL
MODEL 4
REMARK VINA RESULT:      -9.3      6.227      9.714
REMARK  4 active torsions:
REMARK  status: ('A' for Active; 'I' for Inactive)
REMARK    1  A    between atoms: C_4  and  C_5 
REMARK    2  A    between atoms: N_8  and  C_9 
REMARK    3  A    between atoms: C_12  and  C_13 
REMARK       I    between atoms: C_13  and  N_14 
REMARK    4  A    between atoms: N_14  and  N_15 
ROOT
HETATM    1  C   UNL     1      42.236 -15.039   4.004  1.00  0.00     0.034 A 
HETATM    2  C   UNL     1      40.948 -15.379   3.574  1.00  0.00     0.030 A 
HETATM    3  C   UNL     1      40.396 -14.828   2.404  1.00  0.00     0.019 A 
HETATM    4  C   UNL     1      41.132 -13.914   1.643  1.00  0.00     0.033 A 
HETATM    5  C   UNL     1      42.413 -13.554   2.072  1.00  0.00     0.019 A 
HETATM    6  C   UNL     1      42.949 -14.103   3.239  1.00  0.00     0.030 A 
ENDROOT
BRANCH   4   7
HETATM    7  C   UNL     1      40.650 -13.339   0.355  1.00  0.00     0.271 C 
HETATM    8  N   UNL     1      41.570 -13.265  -0.679  1.00  0.00    -0.242 N 
HETATM    9  H   UNL     1      42.504 -13.666  -0.601  1.00  0.00     0.192 HD
HETATM   10  O   UNL     1      39.475 -12.985   0.270  1.00  0.00    -0.266 OA
BRANCH   8  11
HETATM   11  N   UNL     1      41.172 -12.741  -1.878  1.00  0.00    -0.166 NA
HETATM   12  C   UNL     1      41.768 -11.669  -2.287  1.00  0.00     0.157 A 
HETATM   13  C   UNL     1      42.888 -10.877  -1.613  1.00  0.00     0.277 A 
HETATM   14  C   UNL     1      41.479 -10.972  -3.534  1.00  0.00     0.027 A 
HETATM   15  O   UNL     1      43.388 -11.158  -0.543  1.00  0.00    -0.266 OA
HETATM   16  N   UNL     1      43.171  -9.833  -2.468  1.00  0.00    -0.321 N 
HETATM   17  C   UNL     1      42.348  -9.884  -3.592  1.00  0.00     0.048 A 
HETATM   18  H   UNL     1      43.878  -9.138  -2.285  1.00  0.00     0.169 HD
HETATM   19  C   UNL     1      42.330  -9.014  -4.662  1.00  0.00     0.030 A 
HETATM   20  C   UNL     1      41.405  -9.270  -5.682  1.00  0.00     0.002 A 
HETATM   21  C   UNL     1      40.527 -10.373  -5.616  1.00  0.00     0.001 A 
HETATM   22  C   UNL     1      40.559 -11.244  -4.525  1.00  0.00     0.016 A 
ENDBRANCH   8  11
ENDBRANCH   4   7
BRANCH   1  23
HETATM   23  N   UNL     1      42.865 -15.569   5.144  1.00  0.00    -0.335 N 
HETATM   24  C   UNL     1      43.470 -16.765   5.331  1.00  0.00     0.171 A 
HETATM   25  N   UNL     1      43.468 -17.814   4.541  1.00  0.00    -0.223 NA
HETATM   26  S   UNL     1      44.373 -16.984   6.794  1.00  0.00    -0.061 SA
HETATM   27  C   UNL     1      44.230 -18.845   5.076  1.00  0.00     0.076 A 
HETATM   28  C   UNL     1      44.794 -18.565   6.303  1.00  0.00     0.085 A 
HETATM   29  H   UNL     1      43.006 -14.892   5.883  1.00  0.00     0.168 HD
BRANCH  27  30
HETATM   30  C   UNL     1      44.369 -20.124   4.387  1.00  0.00    -0.007 A 
HETATM   31  C   UNL     1      44.196 -20.240   2.999  1.00  0.00     0.014 A 
HETATM   32  C   UNL     1      44.354 -21.476   2.363  1.00  0.00     0.001 A 
HETATM   33  C   UNL     1      44.684 -22.606   3.108  1.00  0.00     0.000 A 
HETATM   34  C   UNL     1      44.849 -22.506   4.488  1.00  0.00     0.001 A 
HETATM   35  C   UNL     1      44.687 -21.272   5.124  1.00  0.00     0.014 A 
ENDBRANCH  27  30
ENDBRANCH   1  23
TORSDOF 4
ENDMDL
MODEL 5
REMARK VINA RESULT:      -9.0      1.564      2.525
REMARK  4 active torsions:
REMARK  status: ('A' for Active; 'I' for Inactive)
REMARK    1  A    between atoms: C_4  and  C_5 
REMARK    2  A    between atoms: N_8  and  C_9 
REMARK    3  A    between atoms: C_12  and  C_13 
REMARK       I    between atoms: C_13  and  N_14 
REMARK    4  A    between atoms: N_14  and  N_15 
ROOT
HETATM    1  C   UNL     1      41.237 -13.248   4.198  1.00  0.00     0.034 A 
HETATM    2  C   UNL     1      42.332 -13.439   5.048  1.00  0.00     0.030 A 
HETATM    3  C   UNL     1      42.527 -12.634   6.185  1.00  0.00     0.019 A 
HETATM    4  C   UNL     1      41.623 -11.610   6.484  1.00  0.00     0.033 A 
HETATM    5  C   UNL     1      40.535 -11.398   5.632  1.00  0.00     0.019 A 
HETATM    6  C   UNL     1      40.353 -12.200   4.503  1.00  0.00     0.030 A 
ENDROOT
BRANCH   4   7
HETATM    7  C   UNL     1      41.718 -10.759   7.704  1.00  0.00     0.271 C 
HETATM    8  N   UNL     1      41.202 -11.288   8.876  1.00  0.00    -0.242 N 
HETATM    9  H   UNL     1      40.856 -12.246   8.931  1.00  0.00     0.192 HD
HETATM   10  O   UNL     1      42.259  -9.658   7.615  1.00  0.00    -0.266 OA
BRANCH   8  11
HETATM   11  N   UNL     1      41.264 -10.541  10.020  1.00  0.00    -0.166 NA
HETATM   12  C   UNL     1      40.158 -10.045  10.469  1.00  0.00     0.157 A 
HETATM   13  C   UNL     1      38.746 -10.176   9.899  1.00  0.00     0.277 A 
HETATM   14  C   UNL     1      40.031  -9.226  11.669  1.00  0.00     0.027 A 
HETATM   15  O   UNL     1      38.460 -10.788   8.890  1.00  0.00    -0.266 OA
HETATM   16  N   UNL     1      37.930  -9.473  10.761  1.00  0.00    -0.321 N 
HETATM   17  C   UNL     1      38.679  -8.915  11.796  1.00  0.00     0.048 A 
HETATM   18  H   UNL     1      36.933  -9.385  10.638  1.00  0.00     0.169 HD
HETATM   19  C   UNL     1      38.221  -8.145  12.844  1.00  0.00     0.030 A 
HETATM   20  C   UNL     1      39.169  -7.690  13.770  1.00  0.00     0.002 A 
HETATM   21  C   UNL     1      40.537  -8.009  13.633  1.00  0.00     0.001 A 
HETATM   22  C   UNL     1      40.984  -8.791  12.566  1.00  0.00     0.016 A 
ENDBRANCH   8  11
ENDBRANCH   4   7
BRANCH   1  23
HETATM   23  N   UNL     1      40.959 -14.029   3.062  1.00  0.00    -0.335 N 
HETATM   24  C   UNL     1      41.336 -15.293   2.759  1.00  0.00     0.171 A 
HETATM   25  N   UNL     1      42.211 -16.056   3.375  1.00  0.00    -0.223 NA
HETATM   26  S   UNL     1      40.593 -16.040   1.383  1.00  0.00    -0.061 SA
HETATM   27  C   UNL     1      42.300 -17.303   2.772  1.00  0.00     0.076 A 
HETATM   28  C   UNL     1      41.489 -17.467   1.668  1.00  0.00     0.085 A 
HETATM   29  H   UNL     1      40.256 -13.629   2.455  1.00  0.00     0.168 HD
BRANCH  27  30
HETATM   30  C   UNL     1      43.218 -18.323   3.267  1.00  0.00    -0.007 A 
HETATM   31  C   UNL     1      43.689 -18.317   4.589  1.00  0.00     0.014 A 
HETATM   32  C   UNL     1      44.553 -19.319   5.042  1.00  0.00     0.001 A 
HETATM   33  C   UNL     1      44.957 -20.334   4.177  1.00  0.00     0.000 A 
HETATM   34  C   UNL     1      44.506 -20.346   2.859  1.00  0.00     0.001 A 
HETATM   35  C   UNL     1      43.645 -19.343   2.406  1.00  0.00     0.014 A 
ENDBRANCH  27  30
ENDBRANCH   1  23
TORSDOF 4
ENDMDL
MODEL 6
REMARK VINA RESULT:      -8.9      3.596     11.148
REMARK  4 active torsions:
REMARK  status: ('A' for Active; 'I' for Inactive)
REMARK    1  A    between atoms: C_4  and  C_5 
REMARK    2  A    between atoms: N_8  and  C_9 
REMARK    3  A    between atoms: C_12  and  C_13 
REMARK       I    between atoms: C_13  and  N_14 
REMARK    4  A    between atoms: N_14  and  N_15 
ROOT
HETATM    1  C   UNL     1      43.887 -12.553   7.938  1.00  0.00     0.034 A 
HETATM    2  C   UNL     1      42.859 -12.325   7.016  1.00  0.00     0.030 A 
HETATM    3  C   UNL     1      42.538 -13.271   6.027  1.00  0.00     0.019 A 
HETATM    4  C   UNL     1      43.256 -14.468   5.940  1.00  0.00     0.033 A 
HETATM    5  C   UNL     1      44.297 -14.699   6.844  1.00  0.00     0.019 A 
HETATM    6  C   UNL     1      44.611 -13.751   7.820  1.00  0.00     0.030 A 
ENDROOT
BRANCH   4   7
HETATM    7  C   UNL     1      42.935 -15.552   4.967  1.00  0.00     0.271 C 
HETATM    8  N   UNL     1      43.973 -16.398   4.612  1.00  0.00    -0.242 N 
HETATM    9  H   UNL     1      44.889 -16.348   5.058  1.00  0.00     0.192 HD
HETATM   10  O   UNL     1      41.781 -15.650   4.553  1.00  0.00    -0.266 OA
BRANCH   8  11
HETATM   11  N   UNL     1      43.726 -17.405   3.720  1.00  0.00    -0.166 NA
HETATM   12  C   UNL     1      44.162 -18.585   4.016  1.00  0.00     0.157 A 
HETATM   13  C   UNL     1      44.933 -19.040   5.254  1.00  0.00     0.277 A 
HETATM   14  C   UNL     1      43.992 -19.775   3.190  1.00  0.00     0.027 A 
HETATM   15  O   UNL     1      45.265 -18.315   6.169  1.00  0.00    -0.266 OA
HETATM   16  N   UNL     1      45.144 -20.393   5.084  1.00  0.00    -0.321 N 
HETATM   17  C   UNL     1      44.596 -20.826   3.877  1.00  0.00     0.048 A 
HETATM   18  H   UNL     1      45.631 -20.970   5.752  1.00  0.00     0.169 HD
HETATM   19  C   UNL     1      44.607 -22.103   3.359  1.00  0.00     0.030 A 
HETATM   20  C   UNL     1      43.990 -22.297   2.116  1.00  0.00     0.002 A 
HETATM   21  C   UNL     1      43.381 -21.227   1.425  1.00  0.00     0.001 A 
HETATM   22  C   UNL     1      43.378 -19.940   1.966  1.00  0.00     0.016 A 
ENDBRANCH   8  11
ENDBRANCH   4   7
BRANCH   1  23
HETATM   23  N   UNL     1      44.246 -11.670   8.972  1.00  0.00    -0.335 N 
HETATM   24  C   UNL     1      43.469 -10.975   9.835  1.00  0.00     0.171 A 
HETATM   25  N   UNL     1      42.166 -10.811   9.812  1.00  0.00    -0.223 NA
HETATM   26  S   UNL     1      44.258 -10.179  11.157  1.00  0.00    -0.061 SA
HETATM   27  C   UNL     1      41.739 -10.049  10.891  1.00  0.00     0.076 A 
HETATM   28  C   UNL     1      42.748  -9.617  11.726  1.00  0.00     0.085 A 
HETATM   29  H   UNL     1      45.235 -11.673   9.185  1.00  0.00     0.168 HD
BRANCH  27  30
HETATM   30  C   UNL     1      40.330  -9.716  11.076  1.00  0.00    -0.007 A 
HETATM   31  C   UNL     1      39.817  -9.335  12.326  1.00  0.00     0.014 A 
HETATM   32  C   UNL     1      38.466  -9.002  12.469  1.00  0.00     0.001 A 
HETATM   33  C   UNL     1      37.615  -9.050  11.367  1.00  0.00     0.000 A 
HETATM   34  C   UNL     1      38.110  -9.436  10.123  1.00  0.00     0.001 A 
HETATM   35  C   UNL     1      39.459  -9.772   9.980  1.00  0.00     0.014 A 
ENDBRANCH  27  30
ENDBRANCH   1  23
TORSDOF 4
ENDMDL
MODEL 7
REMARK VINA RESULT:      -8.9      5.317      9.030
REMARK  4 active torsions:
REMARK  status: ('A' for Active; 'I' for Inactive)
REMARK    1  A    between atoms: C_4  and  C_5 
REMARK    2  A    between atoms: N_8  and  C_9 
REMARK    3  A    between atoms: C_12  and  C_13 
REMARK       I    between atoms: C_13  and  N_14 
REMARK    4  A    between atoms: N_14  and  N_15 
ROOT
HETATM    1  C   UNL     1      42.005 -15.105   5.524  1.00  0.00     0.034 A 
HETATM    2  C   UNL     1      40.656 -14.931   5.852  1.00  0.00     0.030 A 
HETATM    3  C   UNL     1      39.804 -14.142   5.059  1.00  0.00     0.019 A 
HETATM    4  C   UNL     1      40.299 -13.503   3.918  1.00  0.00     0.033 A 
HETATM    5  C   UNL     1      41.649 -13.654   3.590  1.00  0.00     0.019 A 
HETATM    6  C   UNL     1      42.488 -14.437   4.388  1.00  0.00     0.030 A 
ENDROOT
BRANCH   4   7
HETATM    7  C   UNL     1      39.449 -12.707   2.986  1.00  0.00     0.271 C 
HETATM    8  N   UNL     1      38.664 -13.420   2.095  1.00  0.00    -0.242 N 
HETATM    9  H   UNL     1      38.594 -14.437   2.129  1.00  0.00     0.192 HD
HETATM   10  O   UNL     1      39.472 -11.480   3.069  1.00  0.00    -0.266 OA
BRANCH   8  11
HETATM   11  N   UNL     1      37.871 -12.731   1.219  1.00  0.00    -0.166 NA
HETATM   12  C   UNL     1      38.082 -12.910  -0.044  1.00  0.00     0.157 A 
HETATM   13  C   UNL     1      39.113 -13.808  -0.726  1.00  0.00     0.277 A 
HETATM   14  C   UNL     1      37.338 -12.264  -1.119  1.00  0.00     0.027 A 
HETATM   15  O   UNL     1      39.920 -14.502  -0.144  1.00  0.00    -0.266 OA
HETATM   16  N   UNL     1      38.909 -13.644  -2.081  1.00  0.00    -0.321 N 
HETATM   17  C   UNL     1      37.873 -12.740  -2.314  1.00  0.00     0.048 A 
HETATM   18  H   UNL     1      39.449 -14.119  -2.787  1.00  0.00     0.169 HD
HETATM   19  C   UNL     1      37.382 -12.320  -3.532  1.00  0.00     0.030 A 
HETATM   20  C   UNL     1      36.329 -11.396  -3.515  1.00  0.00     0.002 A 
HETATM   21  C   UNL     1      35.793 -10.917  -2.300  1.00  0.00     0.001 A 
HETATM   22  C   UNL     1      36.302 -11.355  -1.076  1.00  0.00     0.016 A 
ENDBRANCH   8  11
ENDBRANCH   4   7
BRANCH   1  23
HETATM   23  N   UNL     1      42.910 -15.901   6.249  1.00  0.00    -0.335 N 
HETATM   24  C   UNL     1      43.534 -17.049   5.902  1.00  0.00     0.171 A 
HETATM   25  N   UNL     1      43.318 -17.814   4.856  1.00  0.00    -0.223 NA
HETATM   26  S   UNL     1      44.790 -17.625   6.950  1.00  0.00    -0.061 SA
HETATM   27  C   UNL     1      44.187 -18.897   4.839  1.00  0.00     0.076 A 
HETATM   28  C   UNL     1      45.057 -18.953   5.908  1.00  0.00     0.085 A 
HETATM   29  H   UNL     1      43.244 -15.465   7.099  1.00  0.00     0.168 HD
BRANCH  27  30
HETATM   30  C   UNL     1      44.131 -19.900   3.780  1.00  0.00    -0.007 A 
HETATM   31  C   UNL     1      44.674 -21.183   3.947  1.00  0.00     0.014 A 
HETATM   32  C   UNL     1      44.589 -22.131   2.922  1.00  0.00     0.001 A 
HETATM   33  C   UNL     1      43.963 -21.805   1.721  1.00  0.00     0.000 A 
HETATM   34  C   UNL     1      43.428 -20.531   1.539  1.00  0.00     0.001 A 
HETATM   35  C   UNL     1      43.516 -19.583   2.562  1.00  0.00     0.014 A 
ENDBRANCH  27  30
ENDBRANCH   1  23
TORSDOF 4
ENDMDL
MODEL 8
REMARK VINA RESULT:      -8.7      3.248     10.764
REMARK  4 active torsions:
REMARK  status: ('A' for Active; 'I' for Inactive)
REMARK    1  A    between atoms: C_4  and  C_5 
REMARK    2  A    between atoms: N_8  and  C_9 
REMARK    3  A    between atoms: C_12  and  C_13 
REMARK       I    between atoms: C_13  and  N_14 
REMARK    4  A    between atoms: N_14  and  N_15 
ROOT
HETATM    1  C   UNL     1      40.808 -12.194   5.459  1.00  0.00     0.034 A 
HETATM    2  C   UNL     1      39.852 -13.176   5.747  1.00  0.00     0.030 A 
HETATM    3  C   UNL     1      40.202 -14.534   5.842  1.00  0.00     0.019 A 
HETATM    4  C   UNL     1      41.526 -14.935   5.640  1.00  0.00     0.033 A 
HETATM    5  C   UNL     1      42.486 -13.966   5.334  1.00  0.00     0.019 A 
HETATM    6  C   UNL     1      42.127 -12.619   5.237  1.00  0.00     0.030 A 
ENDROOT
BRANCH   4   7
HETATM    7  C   UNL     1      41.993 -16.343   5.790  1.00  0.00     0.271 C 
HETATM    8  N   UNL     1      43.220 -16.657   5.229  1.00  0.00    -0.242 N 
HETATM    9  H   UNL     1      43.822 -15.946   4.813  1.00  0.00     0.192 HD
HETATM   10  O   UNL     1      41.287 -17.135   6.412  1.00  0.00    -0.266 OA
BRANCH   8  11
HETATM   11  N   UNL     1      43.686 -17.938   5.339  1.00  0.00    -0.166 NA
HETATM   12  C   UNL     1      43.681 -18.668   4.273  1.00  0.00     0.157 A 
HETATM   13  C   UNL     1      43.222 -18.303   2.861  1.00  0.00     0.277 A 
HETATM   14  C   UNL     1      44.138 -20.051   4.200  1.00  0.00     0.027 A 
HETATM   15  O   UNL     1      42.769 -17.224   2.538  1.00  0.00    -0.266 OA
HETATM   16  N   UNL     1      43.438 -19.430   2.097  1.00  0.00    -0.321 N 
HETATM   17  C   UNL     1      43.973 -20.455   2.877  1.00  0.00     0.048 A 
HETATM   18  H   UNL     1      43.229 -19.485   1.112  1.00  0.00     0.169 HD
HETATM   19  C   UNL     1      44.318 -21.727   2.472  1.00  0.00     0.030 A 
HETATM   20  C   UNL     1      44.839 -22.591   3.444  1.00  0.00     0.002 A 
HETATM   21  C   UNL     1      45.002 -22.175   4.782  1.00  0.00     0.001 A 
HETATM   22  C   UNL     1      44.648 -20.882   5.175  1.00  0.00     0.016 A 
ENDBRANCH   8  11
ENDBRANCH   4   7
BRANCH   1  23
HETATM   23  N   UNL     1      40.541 -10.816   5.378  1.00  0.00    -0.335 N 
HETATM   24  C   UNL     1      40.305  -9.914   6.358  1.00  0.00     0.171 A 
HETATM   25  N   UNL     1      40.089 -10.132   7.636  1.00  0.00    -0.223 NA
HETATM   26  S   UNL     1      40.271  -8.239   5.912  1.00  0.00    -0.061 SA
HETATM   27  C   UNL     1      39.913  -8.939   8.324  1.00  0.00     0.076 A 
HETATM   28  C   UNL     1      39.978  -7.807   7.539  1.00  0.00     0.085 A 
HETATM   29  H   UNL     1      40.691 -10.426   4.457  1.00  0.00     0.168 HD
BRANCH  27  30
HETATM   30  C   UNL     1      39.643  -8.921   9.758  1.00  0.00    -0.007 A 
HETATM   31  C   UNL     1      38.385  -9.265  10.279  1.00  0.00     0.014 A 
HETATM   32  C   UNL     1      38.161  -9.258  11.659  1.00  0.00     0.001 A 
HETATM   33  C   UNL     1      39.188  -8.905  12.531  1.00  0.00     0.000 A 
HETATM   34  C   UNL     1      40.438  -8.552  12.027  1.00  0.00     0.001 A 
HETATM   35  C   UNL     1      40.662  -8.555  10.647  1.00  0.00     0.014 A 
ENDBRANCH  27  30
ENDBRANCH   1  23
TORSDOF 4
ENDMDL
MODEL 9
REMARK VINA RESULT:      -8.5      6.071     10.095
REMARK  4 active torsions:
REMARK  status: ('A' for Active; 'I' for Inactive)
REMARK    1  A    between atoms: C_4  and  C_5 
REMARK    2  A    between atoms: N_8  and  C_9 
REMARK    3  A    between atoms: C_12  and  C_13 
REMARK       I    between atoms: C_13  and  N_14 
REMARK    4  A    between atoms: N_14  and  N_15 
ROOT
HETATM    1  C   UNL     1      42.155 -14.372   3.735  1.00  0.00     0.034 A 
HETATM    2  C   UNL     1      42.821 -13.429   2.944  1.00  0.00     0.030 A 
HETATM    3  C   UNL     1      42.189 -12.813   1.849  1.00  0.00     0.019 A 
HETATM    4  C   UNL     1      40.870 -13.143   1.522  1.00  0.00     0.033 A 
HETATM    5  C   UNL     1      40.200 -14.097   2.294  1.00  0.00     0.019 A 
HETATM    6  C   UNL     1      40.839 -14.706   3.377  1.00  0.00     0.030 A 
ENDROOT
BRANCH   4   7
HETATM    7  C   UNL     1      40.106 -12.488   0.423  1.00  0.00     0.271 C 
HETATM    8  N   UNL     1      40.601 -12.647  -0.862  1.00  0.00    -0.242 N 
HETATM    9  H   UNL     1      41.394 -13.255  -1.064  1.00  0.00     0.192 HD
HETATM   10  O   UNL     1      39.081 -11.868   0.704  1.00  0.00    -0.266 OA
BRANCH   8  11
HETATM   11  N   UNL     1      39.934 -12.060  -1.902  1.00  0.00    -0.166 NA
HETATM   12  C   UNL     1      40.636 -11.660  -2.911  1.00  0.00     0.157 A 
HETATM   13  C   UNL     1      42.146 -11.752  -3.126  1.00  0.00     0.277 A 
HETATM   14  C   UNL     1      40.100 -11.016  -4.104  1.00  0.00     0.027 A 
HETATM   15  O   UNL     1      42.931 -12.229  -2.332  1.00  0.00    -0.266 OA
HETATM   16  N   UNL     1      42.380 -11.194  -4.366  1.00  0.00    -0.321 N 
HETATM   17  C   UNL     1      41.185 -10.761  -4.940  1.00  0.00     0.048 A 
HETATM   18  H   UNL     1      43.296 -11.118  -4.779  1.00  0.00     0.169 HD
HETATM   19  C   UNL     1      41.013 -10.154  -6.166  1.00  0.00     0.030 A 
HETATM   20  C   UNL     1      39.707  -9.803  -6.531  1.00  0.00     0.002 A 
HETATM   21  C   UNL     1      38.613 -10.062  -5.678  1.00  0.00     0.001 A 
HETATM   22  C   UNL     1      38.805 -10.680  -4.441  1.00  0.00     0.016 A 
ENDBRANCH   8  11
ENDBRANCH   4   7
BRANCH   1  23
HETATM   23  N   UNL     1      42.709 -15.007   4.861  1.00  0.00    -0.335 N 
HETATM   24  C   UNL     1      43.256 -16.238   4.988  1.00  0.00     0.171 A 
HETATM   25  N   UNL     1      43.250 -17.228   4.126  1.00  0.00    -0.223 NA
HETATM   26  S   UNL     1      44.080 -16.596   6.471  1.00  0.00    -0.061 SA
HETATM   27  C   UNL     1      43.944 -18.325   4.619  1.00  0.00     0.076 A 
HETATM   28  C   UNL     1      44.461 -18.157   5.886  1.00  0.00     0.085 A 
HETATM   29  H   UNL     1      42.841 -14.390   5.652  1.00  0.00     0.168 HD
BRANCH  27  30
HETATM   30  C   UNL     1      44.064 -19.558   3.848  1.00  0.00    -0.007 A 
HETATM   31  C   UNL     1      44.675 -20.706   4.376  1.00  0.00     0.014 A 
HETATM   32  C   UNL     1      44.758 -21.880   3.621  1.00  0.00     0.001 A 
HETATM   33  C   UNL     1      44.235 -21.918   2.330  1.00  0.00     0.000 A 
HETATM   34  C   UNL     1      43.635 -20.782   1.790  1.00  0.00     0.001 A 
HETATM   35  C   UNL     1      43.554 -19.608   2.543  1.00  0.00     0.014 A 
ENDBRANCH  27  30
ENDBRANCH   1  23
TORSDOF 4
ENDMDL
MODEL 10
REMARK VINA RESULT:      -8.5      5.566     10.005
REMARK  4 active torsions:
REMARK  status: ('A' for Active; 'I' for Inactive)
REMARK    1  A    between atoms: C_4  and  C_5 
REMARK    2  A    between atoms: N_8  and  C_9 
REMARK    3  A    between atoms: C_12  and  C_13 
REMARK       I    between atoms: C_13  and  N_14 
REMARK    4  A    between atoms: N_14  and  N_15 
ROOT
HETATM    1  C   UNL     1      41.210 -12.031   3.208  1.00  0.00     0.034 A 
HETATM    2  C   UNL     1      40.371 -12.675   4.124  1.00  0.00     0.030 A 
HETATM    3  C   UNL     1      40.636 -13.984   4.566  1.00  0.00     0.019 A 
HETATM    4  C   UNL     1      41.751 -14.676   4.085  1.00  0.00     0.033 A 
HETATM    5  C   UNL     1      42.587 -14.049   3.156  1.00  0.00     0.019 A 
HETATM    6  C   UNL     1      42.312 -12.751   2.720  1.00  0.00     0.030 A 
ENDROOT
BRANCH   4   7
HETATM    7  C   UNL     1      42.141 -16.036   4.554  1.00  0.00     0.271 C 
HETATM    8  N   UNL     1      43.384 -16.502   4.153  1.00  0.00    -0.242 N 
HETATM    9  H   UNL     1      44.042 -15.914   3.642  1.00  0.00     0.192 HD
HETATM   10  O   UNL     1      41.363 -16.657   5.277  1.00  0.00    -0.266 OA
BRANCH   8  11
HETATM   11  N   UNL     1      43.781 -17.747   4.557  1.00  0.00    -0.166 NA
HETATM   12  C   UNL     1      43.787 -18.688   3.670  1.00  0.00     0.157 A 
HETATM   13  C   UNL     1      43.408 -18.615   2.192  1.00  0.00     0.277 A 
HETATM   14  C   UNL     1      44.179 -20.070   3.916  1.00  0.00     0.027 A 
HETATM   15  O   UNL     1      43.022 -17.614   1.624  1.00  0.00    -0.266 OA
HETATM   16  N   UNL     1      43.601 -19.887   1.696  1.00  0.00    -0.321 N 
HETATM   17  C   UNL     1      44.051 -20.741   2.701  1.00  0.00     0.048 A 
HETATM   18  H   UNL     1      43.432 -20.143   0.735  1.00  0.00     0.169 HD
HETATM   19  C   UNL     1      44.352 -22.083   2.594  1.00  0.00     0.030 A 
HETATM   20  C   UNL     1      44.787 -22.739   3.753  1.00  0.00     0.002 A 
HETATM   21  C   UNL     1      44.913 -22.052   4.979  1.00  0.00     0.001 A 
HETATM   22  C   UNL     1      44.605 -20.693   5.070  1.00  0.00     0.016 A 
ENDBRANCH   8  11
ENDBRANCH   4   7
BRANCH   1  23
HETATM   23  N   UNL     1      41.028 -10.716   2.743  1.00  0.00    -0.335 N 
HETATM   24  C   UNL     1      41.075 -10.221   1.485  1.00  0.00     0.171 A 
HETATM   25  N   UNL     1      41.480 -10.817   0.386  1.00  0.00    -0.223 NA
HETATM   26  S   UNL     1      40.543  -8.588   1.249  1.00  0.00    -0.061 SA
HETATM   27  C   UNL     1      41.349  -9.979  -0.714  1.00  0.00     0.076 A 
HETATM   28  C   UNL     1      40.857  -8.724  -0.426  1.00  0.00     0.085 A 
HETATM   29  H   UNL     1      40.670 -10.082   3.446  1.00  0.00     0.168 HD
BRANCH  27  30
HETATM   30  C   UNL     1      41.749 -10.411  -2.049  1.00  0.00    -0.007 A 
HETATM   31  C   UNL     1      42.017 -11.757  -2.343  1.00  0.00     0.014 A 
HETATM   32  C   UNL     1      42.379 -12.145  -3.637  1.00  0.00     0.001 A 
HETATM   33  C   UNL     1      42.479 -11.192  -4.648  1.00  0.00     0.000 A 
HETATM   34  C   UNL     1      42.225  -9.851  -4.367  1.00  0.00     0.001 A 
HETATM   35  C   UNL     1      41.867  -9.463  -3.074  1.00  0.00     0.014 A 
ENDBRANCH  27  30
ENDBRANCH   1  23
TORSDOF 4
ENDMDL
