MODEL 1
REMARK VINA RESULT:      -9.5      0.000      0.000
REMARK  8 active torsions:
REMARK  status: ('A' for Active; 'I' for Inactive)
REMARK    1  A    between atoms: C_4  and  C_5 
REMARK    2  A    between atoms: C_5  and  N_6 
REMARK    3  A    between atoms: C_5  and  C_36 
REMARK    4  A    between atoms: N_10  and  C_11 
REMARK    5  A    between atoms: C_13  and  C_14 
REMARK       I    between atoms: C_14  and  N_15 
REMARK    6  A    between atoms: N_15  and  C_16 
REMARK    7  A    between atoms: C_19  and  O_20 
REMARK    8  A    between atoms: O_20  and  C_21 
ROOT
HETATM    1  C   UNL     1      39.428 -11.372   4.045  1.00  0.00     0.181 C 
HETATM    2  N   UNL     1      38.691 -12.262   4.747  1.00  0.00    -0.351 N 
HETATM    3  C   UNL     1      39.330 -12.954   5.856  1.00  0.00     0.185 C 
HETATM    4  C   UNL     1      40.157 -11.959   6.638  1.00  0.00     0.140 C 
HETATM    5  C   UNL     1      41.007 -11.147   5.692  1.00  0.00     0.248 C 
HETATM    6  O   UNL     1      42.111 -10.751   6.059  1.00  0.00    -0.271 OA
HETATM    7  N   UNL     1      40.507 -10.805   4.459  1.00  0.00    -0.185 NA
HETATM    8  H   UNL     1      38.081 -12.844   4.179  1.00  0.00     0.163 HD
ENDROOT
BRANCH   1   9
HETATM    9  N   UNL     1      38.918 -11.159   2.783  1.00  0.00    -0.250 NA
HETATM   10  C   UNL     1      38.135 -12.293   2.229  1.00  0.00     0.126 C 
HETATM   11  C   UNL     1      39.069 -13.427   1.752  1.00  0.00     0.251 C 
HETATM   12  N   UNL     1      40.023 -12.885   0.682  1.00  0.00    -0.057 N 
HETATM   13  H   UNL     1      39.435 -12.510  -0.068  1.00  0.00     0.281 HD
HETATM   14  C   UNL     1      40.811 -11.689   1.206  1.00  0.00     0.251 C 
HETATM   15  C   UNL     1      39.858 -10.611   1.771  1.00  0.00     0.126 C 
BRANCH  12  16
HETATM   16  C   UNL     1      40.841 -13.985   0.004  1.00  0.00     0.254 C 
BRANCH  16  17
HETATM   17  C   UNL     1      40.318 -14.485  -1.341  1.00  0.00    -0.023 A 
HETATM   18  C   UNL     1      39.096 -13.977  -1.828  1.00  0.00     0.009 A 
HETATM   19  C   UNL     1      38.551 -14.429  -3.032  1.00  0.00     0.001 A 
HETATM   20  C   UNL     1      39.215 -15.395  -3.779  1.00  0.00     0.000 A 
HETATM   21  C   UNL     1      40.428 -15.901  -3.328  1.00  0.00     0.001 A 
HETATM   22  C   UNL     1      40.977 -15.447  -2.126  1.00  0.00     0.009 A 
ENDBRANCH  16  17
BRANCH  16  23
HETATM   23  C   UNL     1      41.330 -15.025   1.013  1.00  0.00    -0.023 A 
HETATM   24  C   UNL     1      40.585 -16.214   1.169  1.00  0.00     0.009 A 
HETATM   25  C   UNL     1      41.002 -17.222   2.040  1.00  0.00     0.001 A 
HETATM   26  C   UNL     1      42.173 -17.064   2.773  1.00  0.00     0.000 A 
HETATM   27  C   UNL     1      42.922 -15.899   2.638  1.00  0.00     0.001 A 
HETATM   28  C   UNL     1      42.507 -14.888   1.765  1.00  0.00     0.009 A 
ENDBRANCH  16  23
ENDBRANCH  12  16
ENDBRANCH   1   9
BRANCH   3  29
HETATM   29  C   UNL     1      40.167 -14.155   5.347  1.00  0.00     0.245 C 
HETATM   30  N   UNL     1      41.154 -14.547   6.240  1.00  0.00    -0.325 N 
HETATM   31  H   UNL     1      41.314 -13.965   7.054  1.00  0.00     0.169 HD
HETATM   32  O   UNL     1      39.911 -14.694   4.269  1.00  0.00    -0.271 OA
BRANCH  30  33
HETATM   33  C   UNL     1      41.962 -15.704   6.172  1.00  0.00     0.035 A 
HETATM   34  C   UNL     1      41.464 -17.009   6.213  1.00  0.00     0.032 A 
HETATM   35  C   UNL     1      42.338 -18.101   6.193  1.00  0.00     0.039 A 
HETATM   36  C   UNL     1      43.713 -17.897   6.108  1.00  0.00     0.076 A 
HETATM   37  C   UNL     1      44.224 -16.602   6.079  1.00  0.00     0.039 A 
HETATM   38  C   UNL     1      43.350 -15.510   6.104  1.00  0.00     0.032 A 
BRANCH  36  39
HETATM   39  O   UNL     1      44.517 -19.012   6.153  1.00  0.00    -0.311 OA
BRANCH  39  40
HETATM   40  C   UNL     1      44.554 -19.826   5.044  1.00  0.00     0.076 A 
HETATM   41  C   UNL     1      44.720 -21.192   5.282  1.00  0.00     0.037 A 
HETATM   42  C   UNL     1      44.717 -22.092   4.216  1.00  0.00     0.003 A 
HETATM   43  C   UNL     1      44.537 -21.629   2.914  1.00  0.00     0.000 A 
HETATM   44  C   UNL     1      44.351 -20.267   2.676  1.00  0.00     0.003 A 
HETATM   45  C   UNL     1      44.350 -19.364   3.740  1.00  0.00     0.037 A 
ENDBRANCH  39  40
ENDBRANCH  36  39
ENDBRANCH  30  33
ENDBRANCH   3  29
TORSDOF 8
ENDMDL
MODEL 2
REMARK VINA RESULT:      -9.5      0.901      2.978
REMARK  8 active torsions:
REMARK  status: ('A' for Active; 'I' for Inactive)
REMARK    1  A    between atoms: C_4  and  C_5 
REMARK    2  A    between atoms: C_5  and  N_6 
REMARK    3  A    between atoms: C_5  and  C_36 
REMARK    4  A    between atoms: N_10  and  C_11 
REMARK    5  A    between atoms: C_13  and  C_14 
REMARK       I    between atoms: C_14  and  N_15 
REMARK    6  A    between atoms: N_15  and  C_16 
REMARK    7  A    between atoms: C_19  and  O_20 
REMARK    8  A    between atoms: O_20  and  C_21 
ROOT
HETATM    1  C   UNL     1      39.732 -11.312   4.545  1.00  0.00     0.181 C 
HETATM    2  N   UNL     1      38.872 -12.291   4.908  1.00  0.00    -0.351 N 
HETATM    3  C   UNL     1      39.280 -13.199   5.969  1.00  0.00     0.185 C 
HETATM    4  C   UNL     1      39.934 -12.397   7.071  1.00  0.00     0.140 C 
HETATM    5  C   UNL     1      40.953 -11.454   6.481  1.00  0.00     0.248 C 
HETATM    6  O   UNL     1      41.962 -11.173   7.124  1.00  0.00    -0.271 OA
HETATM    7  N   UNL     1      40.707 -10.871   5.261  1.00  0.00    -0.185 NA
HETATM    8  H   UNL     1      38.389 -12.735   4.133  1.00  0.00     0.163 HD
ENDROOT
BRANCH   1   9
HETATM    9  N   UNL     1      39.483 -10.851   3.271  1.00  0.00    -0.250 NA
HETATM   10  C   UNL     1      38.390 -11.558   2.556  1.00  0.00     0.126 C 
HETATM   11  C   UNL     1      38.865 -12.939   2.052  1.00  0.00     0.251 C 
HETATM   12  N   UNL     1      40.063 -12.755   1.116  1.00  0.00    -0.057 N 
HETATM   13  H   UNL     1      39.749 -12.142   0.359  1.00  0.00     0.281 HD
HETATM   14  C   UNL     1      41.187 -11.991   1.807  1.00  0.00     0.251 C 
HETATM   15  C   UNL     1      40.664 -10.659   2.391  1.00  0.00     0.126 C 
BRANCH  12  16
HETATM   16  C   UNL     1      40.466 -14.050   0.407  1.00  0.00     0.254 C 
BRANCH  16  17
HETATM   17  C   UNL     1      41.349 -15.010   1.202  1.00  0.00    -0.023 A 
HETATM   18  C   UNL     1      40.977 -16.368   1.284  1.00  0.00     0.009 A 
HETATM   19  C   UNL     1      41.725 -17.280   2.031  1.00  0.00     0.001 A 
HETATM   20  C   UNL     1      42.862 -16.859   2.711  1.00  0.00     0.000 A 
HETATM   21  C   UNL     1      43.258 -15.529   2.634  1.00  0.00     0.001 A 
HETATM   22  C   UNL     1      42.513 -14.616   1.883  1.00  0.00     0.009 A 
ENDBRANCH  16  17
BRANCH  16  23
HETATM   23  C   UNL     1      40.820 -13.801  -1.060  1.00  0.00    -0.023 A 
HETATM   24  C   UNL     1      39.874 -14.150  -2.049  1.00  0.00     0.009 A 
HETATM   25  C   UNL     1      40.116 -13.906  -3.402  1.00  0.00     0.001 A 
HETATM   26  C   UNL     1      41.308 -13.308  -3.796  1.00  0.00     0.000 A 
HETATM   27  C   UNL     1      42.256 -12.958  -2.839  1.00  0.00     0.001 A 
HETATM   28  C   UNL     1      42.015 -13.200  -1.483  1.00  0.00     0.009 A 
ENDBRANCH  16  23
ENDBRANCH  12  16
ENDBRANCH   1   9
BRANCH   3  29
HETATM   29  C   UNL     1      40.204 -14.314   5.415  1.00  0.00     0.245 C 
HETATM   30  N   UNL     1      41.116 -14.778   6.351  1.00  0.00    -0.325 N 
HETATM   31  H   UNL     1      41.179 -14.288   7.236  1.00  0.00     0.169 HD
HETATM   32  O   UNL     1      40.069 -14.734   4.265  1.00  0.00    -0.271 OA
BRANCH  30  33
HETATM   33  C   UNL     1      41.968 -15.900   6.235  1.00  0.00     0.035 A 
HETATM   34  C   UNL     1      41.516 -17.213   6.084  1.00  0.00     0.032 A 
HETATM   35  C   UNL     1      42.427 -18.273   6.028  1.00  0.00     0.039 A 
HETATM   36  C   UNL     1      43.796 -18.027   6.101  1.00  0.00     0.076 A 
HETATM   37  C   UNL     1      44.260 -16.725   6.266  1.00  0.00     0.039 A 
HETATM   38  C   UNL     1      43.349 -15.665   6.326  1.00  0.00     0.032 A 
BRANCH  36  39
HETATM   39  O   UNL     1      44.631 -19.119   6.102  1.00  0.00    -0.311 OA
BRANCH  39  40
HETATM   40  C   UNL     1      44.604 -19.953   5.007  1.00  0.00     0.076 A 
HETATM   41  C   UNL     1      44.675 -21.323   5.269  1.00  0.00     0.037 A 
HETATM   42  C   UNL     1      44.602 -22.239   4.219  1.00  0.00     0.003 A 
HETATM   43  C   UNL     1      44.446 -21.787   2.910  1.00  0.00     0.000 A 
HETATM   44  C   UNL     1      44.354 -20.420   2.649  1.00  0.00     0.003 A 
HETATM   45  C   UNL     1      44.424 -19.500   3.697  1.00  0.00     0.037 A 
ENDBRANCH  39  40
ENDBRANCH  36  39
ENDBRANCH  30  33
ENDBRANCH   3  29
TORSDOF 8
ENDMDL
MODEL 3
REMARK VINA RESULT:      -9.3      1.383      1.666
REMARK  8 active torsions:
REMARK  status: ('A' for Active; 'I' for Inactive)
REMARK    1  A    between atoms: C_4  and  C_5 
REMARK    2  A    between atoms: C_5  and  N_6 
REMARK    3  A    between atoms: C_5  and  C_36 
REMARK    4  A    between atoms: N_10  and  C_11 
REMARK    5  A    between atoms: C_13  and  C_14 
REMARK       I    between atoms: C_14  and  N_15 
REMARK    6  A    between atoms: N_15  and  C_16 
REMARK    7  A    between atoms: C_19  and  O_20 
REMARK    8  A    between atoms: O_20  and  C_21 
ROOT
HETATM    1  C   UNL     1      39.269 -11.089   4.527  1.00  0.00     0.181 C 
HETATM    2  N   UNL     1      38.488 -12.092   4.989  1.00  0.00    -0.351 N 
HETATM    3  C   UNL     1      39.048 -12.987   5.990  1.00  0.00     0.185 C 
HETATM    4  C   UNL     1      39.807 -12.165   7.007  1.00  0.00     0.140 C 
HETATM    5  C   UNL     1      40.720 -11.195   6.299  1.00  0.00     0.248 C 
HETATM    6  O   UNL     1      41.791 -10.884   6.816  1.00  0.00    -0.271 OA
HETATM    7  N   UNL     1      40.311 -10.620   5.120  1.00  0.00    -0.185 NA
HETATM    8  H   UNL     1      37.926 -12.550   4.277  1.00  0.00     0.163 HD
ENDROOT
BRANCH   1   9
HETATM    9  N   UNL     1      38.853 -10.636   3.294  1.00  0.00    -0.250 NA
HETATM   10  C   UNL     1      38.321 -11.689   2.391  1.00  0.00     0.126 C 
HETATM   11  C   UNL     1      39.470 -12.528   1.788  1.00  0.00     0.251 C 
HETATM   12  N   UNL     1      40.418 -11.609   1.011  1.00  0.00    -0.057 N 
HETATM   13  H   UNL     1      39.851 -11.140   0.299  1.00  0.00     0.281 HD
HETATM   14  C   UNL     1      40.948 -10.489   1.900  1.00  0.00     0.251 C 
HETATM   15  C   UNL     1      39.782  -9.728   2.573  1.00  0.00     0.126 C 
BRANCH  12  16
HETATM   16  C   UNL     1      41.467 -12.382   0.207  1.00  0.00     0.254 C 
BRANCH  16  17
HETATM   17  C   UNL     1      41.380 -12.256  -1.313  1.00  0.00    -0.023 A 
HETATM   18  C   UNL     1      42.572 -12.119  -2.053  1.00  0.00     0.009 A 
HETATM   19  C   UNL     1      42.549 -11.959  -3.441  1.00  0.00     0.001 A 
HETATM   20  C   UNL     1      41.337 -11.936  -4.120  1.00  0.00     0.000 A 
HETATM   21  C   UNL     1      40.148 -12.084  -3.415  1.00  0.00     0.001 A 
HETATM   22  C   UNL     1      40.170 -12.248  -2.027  1.00  0.00     0.009 A 
ENDBRANCH  16  17
BRANCH  16  23
HETATM   23  C   UNL     1      41.718 -13.769   0.798  1.00  0.00    -0.023 A 
HETATM   24  C   UNL     1      41.213 -14.895   0.111  1.00  0.00     0.009 A 
HETATM   25  C   UNL     1      41.446 -16.191   0.573  1.00  0.00     0.001 A 
HETATM   26  C   UNL     1      42.190 -16.391   1.732  1.00  0.00     0.000 A 
HETATM   27  C   UNL     1      42.694 -15.297   2.427  1.00  0.00     0.001 A 
HETATM   28  C   UNL     1      42.463 -13.997   1.965  1.00  0.00     0.009 A 
ENDBRANCH  16  23
ENDBRANCH  12  16
ENDBRANCH   1   9
BRANCH   3  29
HETATM   29  C   UNL     1      39.928 -14.075   5.324  1.00  0.00     0.245 C 
HETATM   30  N   UNL     1      40.891 -14.592   6.179  1.00  0.00    -0.325 N 
HETATM   31  H   UNL     1      41.009 -14.150   7.084  1.00  0.00     0.169 HD
HETATM   32  O   UNL     1      39.723 -14.434   4.164  1.00  0.00    -0.271 OA
BRANCH  30  33
HETATM   33  C   UNL     1      41.726 -15.710   5.955  1.00  0.00     0.035 A 
HETATM   34  C   UNL     1      41.256 -17.012   5.768  1.00  0.00     0.032 A 
HETATM   35  C   UNL     1      42.154 -18.072   5.602  1.00  0.00     0.039 A 
HETATM   36  C   UNL     1      43.526 -17.835   5.601  1.00  0.00     0.076 A 
HETATM   37  C   UNL     1      44.009 -16.545   5.801  1.00  0.00     0.039 A 
HETATM   38  C   UNL     1      43.111 -15.485   5.970  1.00  0.00     0.032 A 
BRANCH  36  39
HETATM   39  O   UNL     1      44.352 -18.929   5.496  1.00  0.00    -0.311 OA
BRANCH  39  40
HETATM   40  C   UNL     1      44.285 -19.679   4.343  1.00  0.00     0.076 A 
HETATM   41  C   UNL     1      44.642 -21.024   4.456  1.00  0.00     0.037 A 
HETATM   42  C   UNL     1      44.554 -21.866   3.347  1.00  0.00     0.003 A 
HETATM   43  C   UNL     1      44.097 -21.367   2.129  1.00  0.00     0.000 A 
HETATM   44  C   UNL     1      43.720 -20.029   2.019  1.00  0.00     0.003 A 
HETATM   45  C   UNL     1      43.805 -19.184   3.127  1.00  0.00     0.037 A 
ENDBRANCH  39  40
ENDBRANCH  36  39
ENDBRANCH  30  33
ENDBRANCH   3  29
TORSDOF 8
ENDMDL
MODEL 4
REMARK VINA RESULT:      -9.3      2.564      7.545
REMARK  8 active torsions:
REMARK  status: ('A' for Active; 'I' for Inactive)
REMARK    1  A    between atoms: C_4  and  C_5 
REMARK    2  A    between atoms: C_5  and  N_6 
REMARK    3  A    between atoms: C_5  and  C_36 
REMARK    4  A    between atoms: N_10  and  C_11 
REMARK    5  A    between atoms: C_13  and  C_14 
REMARK       I    between atoms: C_14  and  N_15 
REMARK    6  A    between atoms: N_15  and  C_16 
REMARK    7  A    between atoms: C_19  and  O_20 
REMARK    8  A    between atoms: O_20  and  C_21 
ROOT
HETATM    1  C   UNL     1      40.903 -14.794   0.876  1.00  0.00     0.181 C 
HETATM    2  N   UNL     1      39.633 -14.499   1.238  1.00  0.00    -0.351 N 
HETATM    3  C   UNL     1      39.373 -13.183   1.801  1.00  0.00     0.185 C 
HETATM    4  C   UNL     1      40.129 -12.151   0.995  1.00  0.00     0.140 C 
HETATM    5  C   UNL     1      41.558 -12.598   0.806  1.00  0.00     0.248 C 
HETATM    6  O   UNL     1      42.452 -11.757   0.743  1.00  0.00    -0.271 OA
HETATM    7  N   UNL     1      41.831 -13.934   0.638  1.00  0.00    -0.185 NA
HETATM    8  H   UNL     1      39.138 -15.260   1.693  1.00  0.00     0.163 HD
ENDROOT
BRANCH   1   9
HETATM    9  N   UNL     1      41.125 -16.153   0.829  1.00  0.00    -0.250 NA
HETATM   10  C   UNL     1      40.257 -16.956   1.729  1.00  0.00     0.126 C 
HETATM   11  C   UNL     1      40.732 -16.845   3.195  1.00  0.00     0.251 C 
HETATM   12  N   UNL     1      42.180 -17.332   3.299  1.00  0.00    -0.057 N 
HETATM   13  H   UNL     1      42.190 -18.295   2.950  1.00  0.00     0.281 HD
HETATM   14  C   UNL     1      43.090 -16.557   2.353  1.00  0.00     0.251 C 
HETATM   15  C   UNL     1      42.540 -16.598   0.909  1.00  0.00     0.126 C 
BRANCH  12  16
HETATM   16  C   UNL     1      42.662 -17.454   4.747  1.00  0.00     0.254 C 
BRANCH  16  17
HETATM   17  C   UNL     1      43.196 -16.177   5.391  1.00  0.00    -0.023 A 
HETATM   18  C   UNL     1      44.224 -16.277   6.352  1.00  0.00     0.009 A 
HETATM   19  C   UNL     1      44.721 -15.145   7.003  1.00  0.00     0.001 A 
HETATM   20  C   UNL     1      44.206 -13.889   6.707  1.00  0.00     0.000 A 
HETATM   21  C   UNL     1      43.203 -13.762   5.754  1.00  0.00     0.001 A 
HETATM   22  C   UNL     1      42.708 -14.893   5.099  1.00  0.00     0.009 A 
ENDBRANCH  16  17
BRANCH  16  23
HETATM   23  C   UNL     1      43.442 -18.750   4.972  1.00  0.00    -0.023 A 
HETATM   24  C   UNL     1      43.258 -19.444   6.188  1.00  0.00     0.009 A 
HETATM   25  C   UNL     1      43.906 -20.655   6.437  1.00  0.00     0.001 A 
HETATM   26  C   UNL     1      44.750 -21.200   5.475  1.00  0.00     0.000 A 
HETATM   27  C   UNL     1      44.948 -20.533   4.271  1.00  0.00     0.001 A 
HETATM   28  C   UNL     1      44.300 -19.320   4.019  1.00  0.00     0.009 A 
ENDBRANCH  16  23
ENDBRANCH  12  16
ENDBRANCH   1   9
BRANCH   3  29
HETATM   29  C   UNL     1      39.736 -13.147   3.307  1.00  0.00     0.245 C 
HETATM   30  N   UNL     1      40.190 -11.904   3.726  1.00  0.00    -0.325 N 
HETATM   31  H   UNL     1      40.353 -11.196   3.020  1.00  0.00     0.169 HD
HETATM   32  O   UNL     1      39.580 -14.138   4.020  1.00  0.00    -0.271 OA
BRANCH  30  33
HETATM   33  C   UNL     1      40.428 -11.481   5.053  1.00  0.00     0.035 A 
HETATM   34  C   UNL     1      39.842 -12.067   6.178  1.00  0.00     0.032 A 
HETATM   35  C   UNL     1      40.091 -11.554   7.455  1.00  0.00     0.039 A 
HETATM   36  C   UNL     1      40.945 -10.466   7.619  1.00  0.00     0.076 A 
HETATM   37  C   UNL     1      41.526  -9.864   6.507  1.00  0.00     0.039 A 
HETATM   38  C   UNL     1      41.273 -10.374   5.229  1.00  0.00     0.032 A 
BRANCH  36  39
HETATM   39  O   UNL     1      41.098  -9.975   8.894  1.00  0.00    -0.311 OA
BRANCH  39  40
HETATM   40  C   UNL     1      42.064 -10.543   9.693  1.00  0.00     0.076 A 
HETATM   41  C   UNL     1      41.732 -10.718  11.038  1.00  0.00     0.037 A 
HETATM   42  C   UNL     1      42.635 -11.333  11.906  1.00  0.00     0.003 A 
HETATM   43  C   UNL     1      43.864 -11.785  11.427  1.00  0.00     0.000 A 
HETATM   44  C   UNL     1      44.188 -11.630  10.079  1.00  0.00     0.003 A 
HETATM   45  C   UNL     1      43.286 -11.017   9.208  1.00  0.00     0.037 A 
ENDBRANCH  39  40
ENDBRANCH  36  39
ENDBRANCH  30  33
ENDBRANCH   3  29
TORSDOF 8
ENDMDL
MODEL 5
REMARK VINA RESULT:      -9.2      2.687      7.292
REMARK  8 active torsions:
REMARK  status: ('A' for Active; 'I' for Inactive)
REMARK    1  A    between atoms: C_4  and  C_5 
REMARK    2  A    between atoms: C_5  and  N_6 
REMARK    3  A    between atoms: C_5  and  C_36 
REMARK    4  A    between atoms: N_10  and  C_11 
REMARK    5  A    between atoms: C_13  and  C_14 
REMARK       I    between atoms: C_14  and  N_15 
REMARK    6  A    between atoms: N_15  and  C_16 
REMARK    7  A    between atoms: C_19  and  O_20 
REMARK    8  A    between atoms: O_20  and  C_21 
ROOT
HETATM    1  C   UNL     1      40.412 -14.220   0.664  1.00  0.00     0.181 C 
HETATM    2  N   UNL     1      39.291 -13.577   1.065  1.00  0.00    -0.351 N 
HETATM    3  C   UNL     1      39.440 -12.271   1.688  1.00  0.00     0.185 C 
HETATM    4  C   UNL     1      40.464 -11.475   0.911  1.00  0.00     0.140 C 
HETATM    5  C   UNL     1      41.692 -12.318   0.674  1.00  0.00     0.248 C 
HETATM    6  O   UNL     1      42.797 -11.780   0.629  1.00  0.00    -0.271 OA
HETATM    7  N   UNL     1      41.553 -13.666   0.445  1.00  0.00    -0.185 NA
HETATM    8  H   UNL     1      38.594 -14.176   1.497  1.00  0.00     0.163 HD
ENDROOT
BRANCH   1   9
HETATM    9  N   UNL     1      40.217 -15.580   0.556  1.00  0.00    -0.250 NA
HETATM   10  C   UNL     1      39.801 -16.251   1.813  1.00  0.00     0.126 C 
HETATM   11  C   UNL     1      41.001 -16.416   2.772  1.00  0.00     0.251 C 
HETATM   12  N   UNL     1      42.095 -17.237   2.083  1.00  0.00    -0.057 N 
HETATM   13  H   UNL     1      41.668 -18.131   1.823  1.00  0.00     0.281 HD
HETATM   14  C   UNL     1      42.513 -16.597   0.763  1.00  0.00     0.251 C 
HETATM   15  C   UNL     1      41.282 -16.349  -0.138  1.00  0.00     0.126 C 
BRANCH  12  16
HETATM   16  C   UNL     1      43.231 -17.627   3.031  1.00  0.00     0.254 C 
BRANCH  16  17
HETATM   17  C   UNL     1      43.698 -19.080   2.966  1.00  0.00    -0.023 A 
HETATM   18  C   UNL     1      43.246 -19.893   1.906  1.00  0.00     0.009 A 
HETATM   19  C   UNL     1      43.609 -21.240   1.820  1.00  0.00     0.001 A 
HETATM   20  C   UNL     1      44.431 -21.804   2.788  1.00  0.00     0.000 A 
HETATM   21  C   UNL     1      44.901 -21.020   3.835  1.00  0.00     0.001 A 
HETATM   22  C   UNL     1      44.543 -19.671   3.920  1.00  0.00     0.009 A 
ENDBRANCH  16  17
BRANCH  16  23
HETATM   23  C   UNL     1      43.054 -16.993   4.411  1.00  0.00    -0.023 A 
HETATM   24  C   UNL     1      42.437 -17.754   5.427  1.00  0.00     0.009 A 
HETATM   25  C   UNL     1      42.286 -17.250   6.720  1.00  0.00     0.001 A 
HETATM   26  C   UNL     1      42.749 -15.975   7.026  1.00  0.00     0.000 A 
HETATM   27  C   UNL     1      43.358 -15.205   6.039  1.00  0.00     0.001 A 
HETATM   28  C   UNL     1      43.511 -15.709   4.743  1.00  0.00     0.009 A 
ENDBRANCH  16  23
ENDBRANCH  12  16
ENDBRANCH   1   9
BRANCH   3  29
HETATM   29  C   UNL     1      39.808 -12.415   3.187  1.00  0.00     0.245 C 
HETATM   30  N   UNL     1      40.318 -11.247   3.735  1.00  0.00    -0.325 N 
HETATM   31  H   UNL     1      40.510 -10.473   3.109  1.00  0.00     0.169 HD
HETATM   32  O   UNL     1      39.608 -13.470   3.789  1.00  0.00    -0.271 OA
BRANCH  30  33
HETATM   33  C   UNL     1      40.578 -10.982   5.099  1.00  0.00     0.035 A 
HETATM   34  C   UNL     1      40.122 -11.780   6.151  1.00  0.00     0.032 A 
HETATM   35  C   UNL     1      40.381 -11.418   7.478  1.00  0.00     0.039 A 
HETATM   36  C   UNL     1      41.114 -10.269   7.761  1.00  0.00     0.076 A 
HETATM   37  C   UNL     1      41.562  -9.456   6.723  1.00  0.00     0.039 A 
HETATM   38  C   UNL     1      41.300  -9.816   5.397  1.00  0.00     0.032 A 
BRANCH  36  39
HETATM   39  O   UNL     1      41.278  -9.939   9.085  1.00  0.00    -0.311 OA
BRANCH  39  40
HETATM   40  C   UNL     1      42.469 -10.275   9.690  1.00  0.00     0.076 A 
HETATM   41  C   UNL     1      42.659  -9.800  10.990  1.00  0.00     0.037 A 
HETATM   42  C   UNL     1      43.816 -10.137  11.693  1.00  0.00     0.003 A 
HETATM   43  C   UNL     1      44.777 -10.957  11.103  1.00  0.00     0.000 A 
HETATM   44  C   UNL     1      44.578 -11.448   9.813  1.00  0.00     0.003 A 
HETATM   45  C   UNL     1      43.421 -11.116   9.107  1.00  0.00     0.037 A 
ENDBRANCH  39  40
ENDBRANCH  36  39
ENDBRANCH  30  33
ENDBRANCH   3  29
TORSDOF 8
ENDMDL
MODEL 6
REMARK VINA RESULT:      -9.1      2.587      7.377
REMARK  8 active torsions:
REMARK  status: ('A' for Active; 'I' for Inactive)
REMARK    1  A    between atoms: C_4  and  C_5 
REMARK    2  A    between atoms: C_5  and  N_6 
REMARK    3  A    between atoms: C_5  and  C_36 
REMARK    4  A    between atoms: N_10  and  C_11 
REMARK    5  A    between atoms: C_13  and  C_14 
REMARK       I    between atoms: C_14  and  N_15 
REMARK    6  A    between atoms: N_15  and  C_16 
REMARK    7  A    between atoms: C_19  and  O_20 
REMARK    8  A    between atoms: O_20  and  C_21 
ROOT
HETATM    1  C   UNL     1      40.338 -14.224   0.898  1.00  0.00     0.181 C 
HETATM    2  N   UNL     1      39.273 -13.533   1.367  1.00  0.00    -0.351 N 
HETATM    3  C   UNL     1      39.513 -12.220   1.946  1.00  0.00     0.185 C 
HETATM    4  C   UNL     1      40.501 -11.478   1.075  1.00  0.00     0.140 C 
HETATM    5  C   UNL     1      41.678 -12.368   0.766  1.00  0.00     0.248 C 
HETATM    6  O   UNL     1      42.793 -11.871   0.624  1.00  0.00    -0.271 OA
HETATM    7  N   UNL     1      41.477 -13.715   0.580  1.00  0.00    -0.185 NA
HETATM    8  H   UNL     1      38.591 -14.098   1.865  1.00  0.00     0.163 HD
ENDROOT
BRANCH   1   9
HETATM    9  N   UNL     1      40.089 -15.578   0.837  1.00  0.00    -0.250 NA
HETATM   10  C   UNL     1      39.739 -16.205   2.137  1.00  0.00     0.126 C 
HETATM   11  C   UNL     1      40.997 -16.391   3.015  1.00  0.00     0.251 C 
HETATM   12  N   UNL     1      42.011 -17.266   2.273  1.00  0.00    -0.057 N 
HETATM   13  H   UNL     1      41.537 -18.149   2.065  1.00  0.00     0.281 HD
HETATM   14  C   UNL     1      42.358 -16.671   0.913  1.00  0.00     0.251 C 
HETATM   15  C   UNL     1      41.076 -16.400   0.092  1.00  0.00     0.126 C 
BRANCH  12  16
HETATM   16  C   UNL     1      43.197 -17.675   3.151  1.00  0.00     0.254 C 
BRANCH  16  17
HETATM   17  C   UNL     1      43.676 -19.118   3.010  1.00  0.00    -0.023 A 
HETATM   18  C   UNL     1      43.234 -19.878   1.907  1.00  0.00     0.009 A 
HETATM   19  C   UNL     1      43.608 -21.216   1.752  1.00  0.00     0.001 A 
HETATM   20  C   UNL     1      44.433 -21.823   2.692  1.00  0.00     0.000 A 
HETATM   21  C   UNL     1      44.893 -21.091   3.780  1.00  0.00     0.001 A 
HETATM   22  C   UNL     1      44.523 -19.752   3.935  1.00  0.00     0.009 A 
ENDBRANCH  16  17
BRANCH  16  23
HETATM   23  C   UNL     1      43.080 -17.093   4.560  1.00  0.00    -0.023 A 
HETATM   24  C   UNL     1      43.701 -15.854   4.829  1.00  0.00     0.009 A 
HETATM   25  C   UNL     1      43.594 -15.247   6.082  1.00  0.00     0.001 A 
HETATM   26  C   UNL     1      42.863 -15.864   7.091  1.00  0.00     0.000 A 
HETATM   27  C   UNL     1      42.244 -17.086   6.849  1.00  0.00     0.001 A 
HETATM   28  C   UNL     1      42.350 -17.696   5.595  1.00  0.00     0.009 A 
ENDBRANCH  16  23
ENDBRANCH  12  16
ENDBRANCH   1   9
BRANCH   3  29
HETATM   29  C   UNL     1      39.989 -12.345   3.416  1.00  0.00     0.245 C 
HETATM   30  N   UNL     1      40.758 -11.267   3.830  1.00  0.00    -0.325 N 
HETATM   31  H   UNL     1      41.030 -10.583   3.134  1.00  0.00     0.169 HD
HETATM   32  O   UNL     1      39.655 -13.305   4.110  1.00  0.00    -0.271 OA
BRANCH  30  33
HETATM   33  C   UNL     1      41.192 -10.978   5.143  1.00  0.00     0.035 A 
HETATM   34  C   UNL     1      41.086  -9.720   5.743  1.00  0.00     0.032 A 
HETATM   35  C   UNL     1      41.588  -9.505   7.031  1.00  0.00     0.039 A 
HETATM   36  C   UNL     1      42.180 -10.550   7.736  1.00  0.00     0.076 A 
HETATM   37  C   UNL     1      42.305 -11.805   7.146  1.00  0.00     0.039 A 
HETATM   38  C   UNL     1      41.806 -12.019   5.857  1.00  0.00     0.032 A 
BRANCH  36  39
HETATM   39  O   UNL     1      42.707 -10.254   8.971  1.00  0.00    -0.311 OA
BRANCH  39  40
HETATM   40  C   UNL     1      42.025 -10.693  10.084  1.00  0.00     0.076 A 
HETATM   41  C   UNL     1      42.801 -11.008  11.202  1.00  0.00     0.037 A 
HETATM   42  C   UNL     1      42.186 -11.411  12.388  1.00  0.00     0.003 A 
HETATM   43  C   UNL     1      40.796 -11.487  12.461  1.00  0.00     0.000 A 
HETATM   44  C   UNL     1      40.020 -11.153  11.351  1.00  0.00     0.003 A 
HETATM   45  C   UNL     1      40.631 -10.747  10.165  1.00  0.00     0.037 A 
ENDBRANCH  39  40
ENDBRANCH  36  39
ENDBRANCH  30  33
ENDBRANCH   3  29
TORSDOF 8
ENDMDL
MODEL 7
REMARK VINA RESULT:      -9.0      2.075      5.935
REMARK  8 active torsions:
REMARK  status: ('A' for Active; 'I' for Inactive)
REMARK    1  A    between atoms: C_4  and  C_5 
REMARK    2  A    between atoms: C_5  and  N_6 
REMARK    3  A    between atoms: C_5  and  C_36 
REMARK    4  A    between atoms: N_10  and  C_11 
REMARK    5  A    between atoms: C_13  and  C_14 
REMARK       I    between atoms: C_14  and  N_15 
REMARK    6  A    between atoms: N_15  and  C_16 
REMARK    7  A    between atoms: C_19  and  O_20 
REMARK    8  A    between atoms: O_20  and  C_21 
ROOT
HETATM    1  C   UNL     1      38.837 -11.742   0.889  1.00  0.00     0.181 C 
HETATM    2  N   UNL     1      39.832 -11.965  -0.000  1.00  0.00    -0.351 N 
HETATM    3  C   UNL     1      40.166 -13.346  -0.317  1.00  0.00     0.185 C 
HETATM    4  C   UNL     1      38.885 -14.130  -0.488  1.00  0.00     0.140 C 
HETATM    5  C   UNL     1      37.956 -13.847   0.667  1.00  0.00     0.248 C 
HETATM    6  O   UNL     1      37.199 -14.729   1.065  1.00  0.00    -0.271 OA
HETATM    7  N   UNL     1      37.922 -12.587   1.214  1.00  0.00    -0.185 NA
HETATM    8  H   UNL     1      40.632 -11.348   0.099  1.00  0.00     0.163 HD
ENDROOT
BRANCH   1   9
HETATM    9  N   UNL     1      38.932 -10.495   1.467  1.00  0.00    -0.250 NA
HETATM   10  C   UNL     1      40.317 -10.049   1.762  1.00  0.00     0.126 C 
HETATM   11  C   UNL     1      40.871 -10.763   3.015  1.00  0.00     0.251 C 
HETATM   12  N   UNL     1      39.964 -10.466   4.213  1.00  0.00    -0.057 N 
HETATM   13  H   UNL     1      39.940  -9.447   4.313  1.00  0.00     0.281 HD
HETATM   14  C   UNL     1      38.523 -10.871   3.925  1.00  0.00     0.251 C 
HETATM   15  C   UNL     1      38.025 -10.224   2.612  1.00  0.00     0.126 C 
BRANCH  12  16
HETATM   16  C   UNL     1      40.550 -10.959   5.538  1.00  0.00     0.254 C 
BRANCH  16  17
HETATM   17  C   UNL     1      40.903 -12.444   5.609  1.00  0.00    -0.023 A 
HETATM   18  C   UNL     1      39.860 -13.393   5.594  1.00  0.00     0.009 A 
HETATM   19  C   UNL     1      40.123 -14.761   5.698  1.00  0.00     0.001 A 
HETATM   20  C   UNL     1      41.432 -15.212   5.818  1.00  0.00     0.000 A 
HETATM   21  C   UNL     1      42.479 -14.298   5.821  1.00  0.00     0.001 A 
HETATM   22  C   UNL     1      42.217 -12.929   5.712  1.00  0.00     0.009 A 
ENDBRANCH  16  17
BRANCH  16  23
HETATM   23  C   UNL     1      39.835 -10.334   6.736  1.00  0.00    -0.023 A 
HETATM   24  C   UNL     1      39.713 -11.095   7.919  1.00  0.00     0.009 A 
HETATM   25  C   UNL     1      39.112 -10.567   9.062  1.00  0.00     0.001 A 
HETATM   26  C   UNL     1      38.621  -9.265   9.049  1.00  0.00     0.000 A 
HETATM   27  C   UNL     1      38.727  -8.498   7.894  1.00  0.00     0.001 A 
HETATM   28  C   UNL     1      39.330  -9.025   6.747  1.00  0.00     0.009 A 
ENDBRANCH  16  23
ENDBRANCH  12  16
ENDBRANCH   1   9
BRANCH   3  29
HETATM   29  C   UNL     1      41.095 -13.950   0.767  1.00  0.00     0.245 C 
HETATM   30  N   UNL     1      40.931 -15.319   0.921  1.00  0.00    -0.325 N 
HETATM   31  H   UNL     1      40.169 -15.764   0.422  1.00  0.00     0.169 HD
HETATM   32  O   UNL     1      41.906 -13.245   1.370  1.00  0.00    -0.271 OA
BRANCH  30  33
HETATM   33  C   UNL     1      41.735 -16.199   1.680  1.00  0.00     0.035 A 
HETATM   34  C   UNL     1      41.265 -16.951   2.760  1.00  0.00     0.032 A 
HETATM   35  C   UNL     1      42.140 -17.761   3.493  1.00  0.00     0.039 A 
HETATM   36  C   UNL     1      43.484 -17.841   3.138  1.00  0.00     0.076 A 
HETATM   37  C   UNL     1      43.969 -17.087   2.073  1.00  0.00     0.039 A 
HETATM   38  C   UNL     1      43.095 -16.274   1.343  1.00  0.00     0.032 A 
BRANCH  36  39
HETATM   39  O   UNL     1      44.299 -18.607   3.936  1.00  0.00    -0.311 OA
BRANCH  39  40
HETATM   40  C   UNL     1      44.410 -19.949   3.647  1.00  0.00     0.076 A 
HETATM   41  C   UNL     1      44.751 -20.786   4.712  1.00  0.00     0.037 A 
HETATM   42  C   UNL     1      44.834 -22.165   4.516  1.00  0.00     0.003 A 
HETATM   43  C   UNL     1      44.564 -22.708   3.261  1.00  0.00     0.000 A 
HETATM   44  C   UNL     1      44.203 -21.875   2.202  1.00  0.00     0.003 A 
HETATM   45  C   UNL     1      44.116 -20.495   2.395  1.00  0.00     0.037 A 
ENDBRANCH  39  40
ENDBRANCH  36  39
ENDBRANCH  30  33
ENDBRANCH   3  29
TORSDOF 8
ENDMDL
MODEL 8
REMARK VINA RESULT:      -8.7      2.359      4.217
REMARK  8 active torsions:
REMARK  status: ('A' for Active; 'I' for Inactive)
REMARK    1  A    between atoms: C_4  and  C_5 
REMARK    2  A    between atoms: C_5  and  N_6 
REMARK    3  A    between atoms: C_5  and  C_36 
REMARK    4  A    between atoms: N_10  and  C_11 
REMARK    5  A    between atoms: C_13  and  C_14 
REMARK       I    between atoms: C_14  and  N_15 
REMARK    6  A    between atoms: N_15  and  C_16 
REMARK    7  A    between atoms: C_19  and  O_20 
REMARK    8  A    between atoms: O_20  and  C_21 
ROOT
HETATM    1  C   UNL     1      41.063 -11.986   2.123  1.00  0.00     0.181 C 
HETATM    2  N   UNL     1      40.065 -12.885   1.968  1.00  0.00    -0.351 N 
HETATM    3  C   UNL     1      39.264 -13.224   3.135  1.00  0.00     0.185 C 
HETATM    4  C   UNL     1      38.952 -11.955   3.896  1.00  0.00     0.140 C 
HETATM    5  C   UNL     1      40.213 -11.148   4.081  1.00  0.00     0.248 C 
HETATM    6  O   UNL     1      40.351 -10.464   5.092  1.00  0.00    -0.271 OA
HETATM    7  N   UNL     1      41.160 -11.135   3.084  1.00  0.00    -0.185 NA
HETATM    8  H   UNL     1      40.297 -13.673   1.370  1.00  0.00     0.163 HD
ENDROOT
BRANCH   1   9
HETATM    9  N   UNL     1      42.023 -12.105   1.142  1.00  0.00    -0.250 NA
HETATM   10  C   UNL     1      42.130 -10.937   0.230  1.00  0.00     0.126 C 
HETATM   11  C   UNL     1      40.970 -10.927  -0.790  1.00  0.00     0.251 C 
HETATM   12  N   UNL     1      40.996 -12.225  -1.604  1.00  0.00    -0.057 N 
HETATM   13  H   UNL     1      41.918 -12.270  -2.048  1.00  0.00     0.281 HD
HETATM   14  C   UNL     1      40.934 -13.446  -0.692  1.00  0.00     0.251 C 
HETATM   15  C   UNL     1      42.042 -13.382   0.384  1.00  0.00     0.126 C 
BRANCH  12  16
HETATM   16  C   UNL     1      40.014 -12.210  -2.777  1.00  0.00     0.254 C 
BRANCH  16  17
HETATM   17  C   UNL     1      39.368 -13.547  -3.135  1.00  0.00    -0.023 A 
HETATM   18  C   UNL     1      40.195 -14.616  -3.536  1.00  0.00     0.009 A 
HETATM   19  C   UNL     1      39.654 -15.848  -3.914  1.00  0.00     0.001 A 
HETATM   20  C   UNL     1      38.278 -16.040  -3.897  1.00  0.00     0.000 A 
HETATM   21  C   UNL     1      37.443 -15.006  -3.492  1.00  0.00     0.001 A 
HETATM   22  C   UNL     1      37.982 -13.775  -3.110  1.00  0.00     0.009 A 
ENDBRANCH  16  17
BRANCH  16  23
HETATM   23  C   UNL     1      40.517 -11.328  -3.920  1.00  0.00    -0.023 A 
HETATM   24  C   UNL     1      41.901 -11.319  -4.203  1.00  0.00     0.009 A 
HETATM   25  C   UNL     1      42.419 -10.571  -5.262  1.00  0.00     0.001 A 
HETATM   26  C   UNL     1      41.566  -9.818  -6.062  1.00  0.00     0.000 A 
HETATM   27  C   UNL     1      40.199  -9.810  -5.800  1.00  0.00     0.001 A 
HETATM   28  C   UNL     1      39.678 -10.559  -4.740  1.00  0.00     0.009 A 
ENDBRANCH  16  23
ENDBRANCH  12  16
ENDBRANCH   1   9
BRANCH   3  29
HETATM   29  C   UNL     1      39.987 -14.281   4.010  1.00  0.00     0.245 C 
HETATM   30  N   UNL     1      40.637 -15.251   3.261  1.00  0.00    -0.325 N 
HETATM   31  H   UNL     1      40.489 -15.255   2.258  1.00  0.00     0.169 HD
HETATM   32  O   UNL     1      39.984 -14.196   5.238  1.00  0.00    -0.271 OA
BRANCH  30  33
HETATM   33  C   UNL     1      41.529 -16.241   3.730  1.00  0.00     0.035 A 
HETATM   34  C   UNL     1      41.179 -17.242   4.639  1.00  0.00     0.032 A 
HETATM   35  C   UNL     1      42.138 -18.154   5.093  1.00  0.00     0.039 A 
HETATM   36  C   UNL     1      43.447 -18.086   4.625  1.00  0.00     0.076 A 
HETATM   37  C   UNL     1      43.814 -17.085   3.729  1.00  0.00     0.039 A 
HETATM   38  C   UNL     1      42.856 -16.171   3.279  1.00  0.00     0.032 A 
BRANCH  36  39
HETATM   39  O   UNL     1      44.352 -18.973   5.158  1.00  0.00    -0.311 OA
BRANCH  39  40
HETATM   40  C   UNL     1      44.432 -20.228   4.597  1.00  0.00     0.076 A 
HETATM   41  C   UNL     1      44.356 -20.290   3.204  1.00  0.00     0.037 A 
HETATM   42  C   UNL     1      44.480 -21.517   2.551  1.00  0.00     0.003 A 
HETATM   43  C   UNL     1      44.692 -22.680   3.290  1.00  0.00     0.000 A 
HETATM   44  C   UNL     1      44.788 -22.616   4.680  1.00  0.00     0.003 A 
HETATM   45  C   UNL     1      44.667 -21.390   5.336  1.00  0.00     0.037 A 
ENDBRANCH  39  40
ENDBRANCH  36  39
ENDBRANCH  30  33
ENDBRANCH   3  29
TORSDOF 8
ENDMDL
MODEL 9
REMARK VINA RESULT:      -8.6      2.240      3.720
REMARK  8 active torsions:
REMARK  status: ('A' for Active; 'I' for Inactive)
REMARK    1  A    between atoms: C_4  and  C_5 
REMARK    2  A    between atoms: C_5  and  N_6 
REMARK    3  A    between atoms: C_5  and  C_36 
REMARK    4  A    between atoms: N_10  and  C_11 
REMARK    5  A    between atoms: C_13  and  C_14 
REMARK       I    between atoms: C_14  and  N_15 
REMARK    6  A    between atoms: N_15  and  C_16 
REMARK    7  A    between atoms: C_19  and  O_20 
REMARK    8  A    between atoms: O_20  and  C_21 
ROOT
HETATM    1  C   UNL     1      38.557 -11.075   2.622  1.00  0.00     0.181 C 
HETATM    2  N   UNL     1      38.462 -12.057   3.548  1.00  0.00    -0.351 N 
HETATM    3  C   UNL     1      39.577 -12.241   4.465  1.00  0.00     0.185 C 
HETATM    4  C   UNL     1      40.053 -10.883   4.930  1.00  0.00     0.140 C 
HETATM    5  C   UNL     1      40.223  -9.968   3.743  1.00  0.00     0.248 C 
HETATM    6  O   UNL     1      41.101  -9.108   3.762  1.00  0.00    -0.271 OA
HETATM    7  N   UNL     1      39.351 -10.064   2.685  1.00  0.00    -0.185 NA
HETATM    8  H   UNL     1      38.048 -12.919   3.206  1.00  0.00     0.163 HD
ENDROOT
BRANCH   1   9
HETATM    9  N   UNL     1      37.726 -11.297   1.546  1.00  0.00    -0.250 NA
HETATM   10  C   UNL     1      37.583 -12.722   1.153  1.00  0.00     0.126 C 
HETATM   11  C   UNL     1      38.836 -13.211   0.392  1.00  0.00     0.251 C 
HETATM   12  N   UNL     1      39.043 -12.346  -0.856  1.00  0.00    -0.057 N 
HETATM   13  H   UNL     1      38.185 -12.424  -1.409  1.00  0.00     0.281 HD
HETATM   14  C   UNL     1      39.148 -10.870  -0.490  1.00  0.00     0.251 C 
HETATM   15  C   UNL     1      37.933 -10.430   0.358  1.00  0.00     0.126 C 
BRANCH  12  16
HETATM   16  C   UNL     1      40.136 -12.890  -1.780  1.00  0.00     0.254 C 
BRANCH  16  17
HETATM   17  C   UNL     1      40.977 -11.849  -2.516  1.00  0.00    -0.023 A 
HETATM   18  C   UNL     1      40.537 -11.384  -3.773  1.00  0.00     0.009 A 
HETATM   19  C   UNL     1      41.288 -10.464  -4.509  1.00  0.00     0.001 A 
HETATM   20  C   UNL     1      42.492  -9.986  -4.006  1.00  0.00     0.000 A 
HETATM   21  C   UNL     1      42.940 -10.418  -2.764  1.00  0.00     0.001 A 
HETATM   22  C   UNL     1      42.188 -11.335  -2.024  1.00  0.00     0.009 A 
ENDBRANCH  16  17
BRANCH  16  23
HETATM   23  C   UNL     1      39.652 -14.108  -2.567  1.00  0.00    -0.023 A 
HETATM   24  C   UNL     1      38.356 -14.075  -3.127  1.00  0.00     0.009 A 
HETATM   25  C   UNL     1      37.871 -15.135  -3.895  1.00  0.00     0.001 A 
HETATM   26  C   UNL     1      38.671 -16.251  -4.120  1.00  0.00     0.000 A 
HETATM   27  C   UNL     1      39.950 -16.306  -3.575  1.00  0.00     0.001 A 
HETATM   28  C   UNL     1      40.438 -15.244  -2.807  1.00  0.00     0.009 A 
ENDBRANCH  16  23
ENDBRANCH  12  16
ENDBRANCH   1   9
BRANCH   3  29
HETATM   29  C   UNL     1      40.704 -13.073   3.801  1.00  0.00     0.245 C 
HETATM   30  N   UNL     1      40.664 -14.415   4.150  1.00  0.00    -0.325 N 
HETATM   31  H   UNL     1      40.009 -14.699   4.869  1.00  0.00     0.169 HD
HETATM   32  O   UNL     1      41.500 -12.551   3.020  1.00  0.00    -0.271 OA
BRANCH  30  33
HETATM   33  C   UNL     1      41.420 -15.469   3.589  1.00  0.00     0.035 A 
HETATM   34  C   UNL     1      42.789 -15.651   3.806  1.00  0.00     0.032 A 
HETATM   35  C   UNL     1      43.474 -16.692   3.171  1.00  0.00     0.039 A 
HETATM   36  C   UNL     1      42.793 -17.572   2.333  1.00  0.00     0.076 A 
HETATM   37  C   UNL     1      41.432 -17.395   2.097  1.00  0.00     0.039 A 
HETATM   38  C   UNL     1      40.748 -16.351   2.729  1.00  0.00     0.032 A 
BRANCH  36  39
HETATM   39  O   UNL     1      43.538 -18.534   1.694  1.00  0.00    -0.311 OA
BRANCH  39  40
HETATM   40  C   UNL     1      43.876 -19.665   2.403  1.00  0.00     0.076 A 
HETATM   41  C   UNL     1      43.715 -20.884   1.741  1.00  0.00     0.037 A 
HETATM   42  C   UNL     1      44.083 -22.074   2.370  1.00  0.00     0.003 A 
HETATM   43  C   UNL     1      44.621 -22.045   3.655  1.00  0.00     0.000 A 
HETATM   44  C   UNL     1      44.801 -20.827   4.310  1.00  0.00     0.003 A 
HETATM   45  C   UNL     1      44.437 -19.634   3.683  1.00  0.00     0.037 A 
ENDBRANCH  39  40
ENDBRANCH  36  39
ENDBRANCH  30  33
ENDBRANCH   3  29
TORSDOF 8
ENDMDL
MODEL 10
REMARK VINA RESULT:      -8.6      3.468      9.478
REMARK  8 active torsions:
REMARK  status: ('A' for Active; 'I' for Inactive)
REMARK    1  A    between atoms: C_4  and  C_5 
REMARK    2  A    between atoms: C_5  and  N_6 
REMARK    3  A    between atoms: C_5  and  C_36 
REMARK    4  A    between atoms: N_10  and  C_11 
REMARK    5  A    between atoms: C_13  and  C_14 
REMARK       I    between atoms: C_14  and  N_15 
REMARK    6  A    between atoms: N_15  and  C_16 
REMARK    7  A    between atoms: C_19  and  O_20 
REMARK    8  A    between atoms: O_20  and  C_21 
ROOT
HETATM    1  C   UNL     1      41.115 -14.568   2.284  1.00  0.00     0.181 C 
HETATM    2  N   UNL     1      41.785 -13.621   1.589  1.00  0.00    -0.351 N 
HETATM    3  C   UNL     1      41.430 -12.228   1.818  1.00  0.00     0.185 C 
HETATM    4  C   UNL     1      41.247 -12.010   3.302  1.00  0.00     0.140 C 
HETATM    5  C   UNL     1      40.366 -13.094   3.872  1.00  0.00     0.248 C 
HETATM    6  O   UNL     1      39.623 -12.836   4.816  1.00  0.00    -0.271 OA
HETATM    7  N   UNL     1      40.457 -14.371   3.373  1.00  0.00    -0.185 NA
HETATM    8  H   UNL     1      41.964 -13.859   0.618  1.00  0.00     0.163 HD
ENDROOT
BRANCH   1   9
HETATM    9  N   UNL     1      41.169 -15.798   1.665  1.00  0.00    -0.250 NA
HETATM   10  C   UNL     1      40.649 -16.927   2.478  1.00  0.00     0.126 C 
HETATM   11  C   UNL     1      41.668 -17.337   3.564  1.00  0.00     0.251 C 
HETATM   12  N   UNL     1      42.988 -17.740   2.899  1.00  0.00    -0.057 N 
HETATM   13  H   UNL     1      42.766 -18.503   2.253  1.00  0.00     0.281 HD
HETATM   14  C   UNL     1      43.525 -16.617   2.020  1.00  0.00     0.251 C 
HETATM   15  C   UNL     1      42.452 -16.154   1.008  1.00  0.00     0.126 C 
BRANCH  12  16
HETATM   16  C   UNL     1      43.983 -18.359   3.883  1.00  0.00     0.254 C 
BRANCH  16  17
HETATM   17  C   UNL     1      44.247 -19.855   3.726  1.00  0.00    -0.023 A 
HETATM   18  C   UNL     1      43.992 -20.465   2.480  1.00  0.00     0.009 A 
HETATM   19  C   UNL     1      44.177 -21.837   2.292  1.00  0.00     0.001 A 
HETATM   20  C   UNL     1      44.623 -22.630   3.343  1.00  0.00     0.000 A 
HETATM   21  C   UNL     1      44.895 -22.051   4.577  1.00  0.00     0.001 A 
HETATM   22  C   UNL     1      44.715 -20.678   4.765  1.00  0.00     0.009 A 
ENDBRANCH  16  17
BRANCH  16  23
HETATM   23  C   UNL     1      43.791 -17.811   5.297  1.00  0.00    -0.023 A 
HETATM   24  C   UNL     1      44.489 -16.640   5.665  1.00  0.00     0.009 A 
HETATM   25  C   UNL     1      44.322 -16.062   6.925  1.00  0.00     0.001 A 
HETATM   26  C   UNL     1      43.454 -16.642   7.844  1.00  0.00     0.000 A 
HETATM   27  C   UNL     1      42.758 -17.798   7.504  1.00  0.00     0.001 A 
HETATM   28  C   UNL     1      42.923 -18.378   6.242  1.00  0.00     0.009 A 
ENDBRANCH  16  23
ENDBRANCH  12  16
ENDBRANCH   1   9
BRANCH   3  29
HETATM   29  C   UNL     1      40.173 -11.839   0.998  1.00  0.00     0.245 C 
HETATM   30  N   UNL     1      39.071 -11.564   1.794  1.00  0.00    -0.325 N 
HETATM   31  H   UNL     1      39.144 -11.751   2.787  1.00  0.00     0.169 HD
HETATM   32  O   UNL     1      40.218 -11.758  -0.230  1.00  0.00    -0.271 OA
BRANCH  30  33
HETATM   33  C   UNL     1      37.836 -11.011   1.386  1.00  0.00     0.035 A 
HETATM   34  C   UNL     1      37.492  -9.666   1.544  1.00  0.00     0.032 A 
HETATM   35  C   UNL     1      36.227  -9.209   1.160  1.00  0.00     0.039 A 
HETATM   36  C   UNL     1      35.305 -10.087   0.597  1.00  0.00     0.076 A 
HETATM   37  C   UNL     1      35.628 -11.433   0.446  1.00  0.00     0.039 A 
HETATM   38  C   UNL     1      36.892 -11.891   0.834  1.00  0.00     0.032 A 
BRANCH  36  39
HETATM   39  O   UNL     1      34.060  -9.585   0.299  1.00  0.00    -0.311 OA
BRANCH  39  40
HETATM   40  C   UNL     1      32.987 -10.050   1.026  1.00  0.00     0.076 A 
HETATM   41  C   UNL     1      31.836 -10.363   0.300  1.00  0.00     0.037 A 
HETATM   42  C   UNL     1      30.720 -10.887   0.953  1.00  0.00     0.003 A 
HETATM   43  C   UNL     1      30.758 -11.111   2.328  1.00  0.00     0.000 A 
HETATM   44  C   UNL     1      31.915 -10.818   3.051  1.00  0.00     0.003 A 
HETATM   45  C   UNL     1      33.034 -10.295   2.401  1.00  0.00     0.037 A 
ENDBRANCH  39  40
ENDBRANCH  36  39
ENDBRANCH  30  33
ENDBRANCH   3  29
TORSDOF 8
ENDMDL
