MODEL 1
REMARK VINA RESULT:      -9.8      0.000      0.000
REMARK  8 active torsions:
REMARK  status: ('A' for Active; 'I' for Inactive)
REMARK    1  A    between atoms: C_4  and  S_5 
REMARK    2  A    between atoms: S_5  and  C_6 
REMARK    3  A    between atoms: C_6  and  C_7 
REMARK       I    between atoms: C_7  and  N_8 
REMARK    4  A    between atoms: N_8  and  C_9 
REMARK    5  A    between atoms: C_11  and  C_12 
REMARK    6  A    between atoms: C_23  and  C_24 
REMARK    7  A    between atoms: C_30  and  C_31 
REMARK       I    between atoms: C_31  and  N_32 
REMARK    8  A    between atoms: N_32  and  C_33 
ROOT
HETATM    1  C   UNL     1      40.297 -15.319   5.680  1.00  0.00     0.069 C 
HETATM    2  C   UNL     1      40.506 -14.371   4.523  1.00  0.00     0.019 C 
HETATM    3  N   UNL     1      40.386 -13.025   4.835  1.00  0.00    -0.353 N 
HETATM    4  C   UNL     1      40.755 -11.990   3.995  1.00  0.00     0.087 C 
HETATM    5  C   UNL     1      40.995 -12.260   2.692  1.00  0.00     0.055 C 
HETATM    6  C   UNL     1      41.238 -11.157   1.674  1.00  0.00     0.019 C 
HETATM    7  N   UNL     1      41.440 -10.243   0.830  1.00  0.00    -0.096 N 
HETATM    8  C   UNL     1      40.941 -13.693   2.157  1.00  0.00     0.104 C 
HETATM    9  C   UNL     1      40.814 -14.747   3.258  1.00  0.00     0.046 C 
HETATM   10  H   UNL     1      40.398 -12.786   5.825  1.00  0.00     0.166 HD
ENDROOT
BRANCH   4  11
HETATM   11  S   UNL     1      41.054 -10.406   4.678  1.00  0.00    -0.102 SA
BRANCH  11  12
HETATM   12  C   UNL     1      40.488 -10.597   6.399  1.00  0.00     0.184 C 
BRANCH  12  13
HETATM   13  C   UNL     1      41.519 -10.111   7.427  1.00  0.00     0.231 C 
HETATM   14  N   UNL     1      41.794 -11.000   8.448  1.00  0.00    -0.327 N 
HETATM   15  H   UNL     1      41.239 -11.849   8.437  1.00  0.00     0.169 HD
HETATM   16  O   UNL     1      42.037  -9.004   7.288  1.00  0.00    -0.272 OA
BRANCH  14  17
HETATM   17  C   UNL     1      42.706 -10.873   9.514  1.00  0.00     0.035 A 
HETATM   18  C   UNL     1      42.352 -10.474  10.804  1.00  0.00     0.045 A 
HETATM   19  C   UNL     1      43.328 -10.355  11.811  1.00  0.00     0.050 A 
HETATM   20  C   UNL     1      44.663 -10.665  11.513  1.00  0.00     0.016 A 
HETATM   21  C   UNL     1      45.022 -11.064  10.229  1.00  0.00     0.003 A 
HETATM   22  C   UNL     1      44.048 -11.160   9.234  1.00  0.00     0.029 A 
BRANCH  19  23
HETATM   23  C   UNL     1      42.946  -9.931  13.209  1.00  0.00     0.417 C 
HETATM   24  F   UNL     1      43.946  -9.303  13.885  1.00  0.00    -0.166 F 
HETATM   25  F   UNL     1      41.886  -9.077  13.219  1.00  0.00    -0.166 F 
HETATM   26  F   UNL     1      42.578 -10.986  13.992  1.00  0.00    -0.166 F 
ENDBRANCH  19  23
ENDBRANCH  14  17
ENDBRANCH  12  13
ENDBRANCH  11  12
ENDBRANCH   4  11
BRANCH   8  27
HETATM   27  C   UNL     1      39.859 -13.814   1.084  1.00  0.00    -0.042 A 
HETATM   28  C   UNL     1      40.222 -13.939  -0.265  1.00  0.00     0.027 A 
HETATM   29  C   UNL     1      39.223 -14.043  -1.219  1.00  0.00     0.116 A 
HETATM   30  N   UNL     1      37.908 -14.040  -0.924  1.00  0.00    -0.273 NA
HETATM   31  C   UNL     1      37.571 -13.895   0.375  1.00  0.00     0.116 A 
HETATM   32  C   UNL     1      38.495 -13.774   1.400  1.00  0.00     0.027 A 
ENDBRANCH   8  27
BRANCH   9  33
HETATM   33  C   UNL     1      41.293 -16.150   3.004  1.00  0.00     0.255 C 
HETATM   34  N   UNL     1      42.598 -16.405   3.359  1.00  0.00    -0.323 N 
HETATM   35  H   UNL     1      43.168 -15.640   3.690  1.00  0.00     0.169 HD
HETATM   36  O   UNL     1      40.497 -16.984   2.580  1.00  0.00    -0.268 OA
BRANCH  34  37
HETATM   37  C   UNL     1      43.256 -17.655   3.344  1.00  0.00     0.035 A 
HETATM   38  C   UNL     1      43.504 -18.399   2.188  1.00  0.00     0.029 A 
HETATM   39  C   UNL     1      44.146 -19.639   2.264  1.00  0.00     0.002 A 
HETATM   40  C   UNL     1      44.538 -20.152   3.498  1.00  0.00     0.000 A 
HETATM   41  C   UNL     1      44.299 -19.419   4.656  1.00  0.00     0.002 A 
HETATM   42  C   UNL     1      43.671 -18.173   4.579  1.00  0.00     0.029 A 
ENDBRANCH  34  37
ENDBRANCH   9  33
TORSDOF 8
ENDMDL
MODEL 2
REMARK VINA RESULT:      -9.4      5.637      9.163
REMARK  8 active torsions:
REMARK  status: ('A' for Active; 'I' for Inactive)
REMARK    1  A    between atoms: C_4  and  S_5 
REMARK    2  A    between atoms: S_5  and  C_6 
REMARK    3  A    between atoms: C_6  and  C_7 
REMARK       I    between atoms: C_7  and  N_8 
REMARK    4  A    between atoms: N_8  and  C_9 
REMARK    5  A    between atoms: C_11  and  C_12 
REMARK    6  A    between atoms: C_23  and  C_24 
REMARK    7  A    between atoms: C_30  and  C_31 
REMARK       I    between atoms: C_31  and  N_32 
REMARK    8  A    between atoms: N_32  and  C_33 
ROOT
HETATM    1  C   UNL     1      42.449 -14.859   0.676  1.00  0.00     0.069 C 
HETATM    2  C   UNL     1      41.969 -14.486   2.058  1.00  0.00     0.019 C 
HETATM    3  N   UNL     1      41.552 -13.171   2.203  1.00  0.00    -0.353 N 
HETATM    4  C   UNL     1      40.871 -12.681   3.302  1.00  0.00     0.087 C 
HETATM    5  C   UNL     1      40.832 -13.425   4.431  1.00  0.00     0.055 C 
HETATM    6  C   UNL     1      40.253 -12.886   5.729  1.00  0.00     0.019 C 
HETATM    7  N   UNL     1      39.773 -12.439   6.806  1.00  0.00    -0.096 N 
HETATM    8  C   UNL     1      41.456 -14.821   4.482  1.00  0.00     0.104 C 
HETATM    9  C   UNL     1      41.905 -15.335   3.112  1.00  0.00     0.046 C 
HETATM   10  H   UNL     1      41.390 -12.650   1.342  1.00  0.00     0.166 HD
ENDROOT
BRANCH   4  11
HETATM   11  S   UNL     1      39.955 -11.198   3.143  1.00  0.00    -0.102 SA
BRANCH  11  12
HETATM   12  C   UNL     1      38.308 -11.794   2.643  1.00  0.00     0.184 C 
BRANCH  12  13
HETATM   13  C   UNL     1      38.364 -12.829   1.511  1.00  0.00     0.231 C 
HETATM   14  N   UNL     1      38.446 -12.302   0.236  1.00  0.00    -0.327 N 
HETATM   15  H   UNL     1      38.399 -11.289   0.189  1.00  0.00     0.169 HD
HETATM   16  O   UNL     1      38.345 -14.027   1.785  1.00  0.00    -0.272 OA
BRANCH  14  17
HETATM   17  C   UNL     1      38.547 -12.973  -0.998  1.00  0.00     0.035 A 
HETATM   18  C   UNL     1      39.500 -13.953  -1.280  1.00  0.00     0.045 A 
HETATM   19  C   UNL     1      39.546 -14.564  -2.547  1.00  0.00     0.050 A 
HETATM   20  C   UNL     1      38.605 -14.198  -3.521  1.00  0.00     0.016 A 
HETATM   21  C   UNL     1      37.651 -13.222  -3.244  1.00  0.00     0.003 A 
HETATM   22  C   UNL     1      37.629 -12.609  -1.991  1.00  0.00     0.029 A 
BRANCH  19  23
HETATM   23  C   UNL     1      40.571 -15.630  -2.852  1.00  0.00     0.417 C 
HETATM   24  F   UNL     1      41.695 -15.153  -3.454  1.00  0.00    -0.166 F 
HETATM   25  F   UNL     1      40.989 -16.281  -1.732  1.00  0.00    -0.166 F 
HETATM   26  F   UNL     1      40.089 -16.597  -3.684  1.00  0.00    -0.166 F 
ENDBRANCH  19  23
ENDBRANCH  14  17
ENDBRANCH  12  13
ENDBRANCH  11  12
ENDBRANCH   4  11
BRANCH   8  27
HETATM   27  C   UNL     1      42.567 -14.863   5.530  1.00  0.00    -0.042 A 
HETATM   28  C   UNL     1      42.614 -15.915   6.458  1.00  0.00     0.027 A 
HETATM   29  C   UNL     1      43.629 -15.929   7.401  1.00  0.00     0.116 A 
HETATM   30  N   UNL     1      44.589 -14.986   7.476  1.00  0.00    -0.273 NA
HETATM   31  C   UNL     1      44.519 -13.967   6.594  1.00  0.00     0.116 A 
HETATM   32  C   UNL     1      43.539 -13.858   5.621  1.00  0.00     0.027 A 
ENDBRANCH   8  27
BRANCH   9  33
HETATM   33  C   UNL     1      42.008 -16.816   2.871  1.00  0.00     0.255 C 
HETATM   34  N   UNL     1      43.275 -17.347   2.967  1.00  0.00    -0.323 N 
HETATM   35  H   UNL     1      44.052 -16.720   3.116  1.00  0.00     0.169 HD
HETATM   36  O   UNL     1      40.981 -17.462   2.684  1.00  0.00    -0.268 OA
BRANCH  34  37
HETATM   37  C   UNL     1      43.632 -18.712   2.910  1.00  0.00     0.035 A 
HETATM   38  C   UNL     1      43.370 -19.549   1.823  1.00  0.00     0.029 A 
HETATM   39  C   UNL     1      43.742 -20.896   1.855  1.00  0.00     0.002 A 
HETATM   40  C   UNL     1      44.371 -21.423   2.981  1.00  0.00     0.000 A 
HETATM   41  C   UNL     1      44.640 -20.600   4.070  1.00  0.00     0.002 A 
HETATM   42  C   UNL     1      44.282 -19.249   4.031  1.00  0.00     0.029 A 
ENDBRANCH  34  37
ENDBRANCH   9  33
TORSDOF 8
ENDMDL
MODEL 3
REMARK VINA RESULT:      -9.4      2.125      4.265
REMARK  8 active torsions:
REMARK  status: ('A' for Active; 'I' for Inactive)
REMARK    1  A    between atoms: C_4  and  S_5 
REMARK    2  A    between atoms: S_5  and  C_6 
REMARK    3  A    between atoms: C_6  and  C_7 
REMARK       I    between atoms: C_7  and  N_8 
REMARK    4  A    between atoms: N_8  and  C_9 
REMARK    5  A    between atoms: C_11  and  C_12 
REMARK    6  A    between atoms: C_23  and  C_24 
REMARK    7  A    between atoms: C_30  and  C_31 
REMARK       I    between atoms: C_31  and  N_32 
REMARK    8  A    between atoms: N_32  and  C_33 
ROOT
HETATM    1  C   UNL     1      41.787 -14.557   0.832  1.00  0.00     0.069 C 
HETATM    2  C   UNL     1      41.366 -14.351   2.267  1.00  0.00     0.019 C 
HETATM    3  N   UNL     1      40.815 -13.110   2.549  1.00  0.00    -0.353 N 
HETATM    4  C   UNL     1      40.161 -12.790   3.725  1.00  0.00     0.087 C 
HETATM    5  C   UNL     1      40.285 -13.619   4.786  1.00  0.00     0.055 C 
HETATM    6  C   UNL     1      39.741 -13.255   6.158  1.00  0.00     0.019 C 
HETATM    7  N   UNL     1      39.290 -12.953   7.296  1.00  0.00    -0.096 N 
HETATM    8  C   UNL     1      41.064 -14.932   4.680  1.00  0.00     0.104 C 
HETATM    9  C   UNL     1      41.471 -15.282   3.247  1.00  0.00     0.046 C 
HETATM   10  H   UNL     1      40.536 -12.546   1.747  1.00  0.00     0.166 HD
ENDROOT
BRANCH   4  11
HETATM   11  S   UNL     1      39.076 -11.418   3.748  1.00  0.00    -0.102 SA
BRANCH  11  12
HETATM   12  C   UNL     1      40.144 -10.069   4.346  1.00  0.00     0.184 C 
BRANCH  12  13
HETATM   13  C   UNL     1      40.114  -9.912   5.872  1.00  0.00     0.231 C 
HETATM   14  N   UNL     1      41.339 -10.030   6.500  1.00  0.00    -0.327 N 
HETATM   15  H   UNL     1      42.112 -10.268   5.887  1.00  0.00     0.169 HD
HETATM   16  O   UNL     1      39.045  -9.686   6.436  1.00  0.00    -0.272 OA
BRANCH  14  17
HETATM   17  C   UNL     1      41.653  -9.903   7.867  1.00  0.00     0.035 A 
HETATM   18  C   UNL     1      42.521 -10.754   8.553  1.00  0.00     0.045 A 
HETATM   19  C   UNL     1      42.768 -10.570   9.927  1.00  0.00     0.050 A 
HETATM   20  C   UNL     1      42.151  -9.505  10.599  1.00  0.00     0.016 A 
HETATM   21  C   UNL     1      41.284  -8.653   9.920  1.00  0.00     0.003 A 
HETATM   22  C   UNL     1      41.032  -8.858   8.563  1.00  0.00     0.029 A 
BRANCH  19  23
HETATM   23  C   UNL     1      43.714 -11.483  10.669  1.00  0.00     0.417 C 
HETATM   24  F   UNL     1      43.214 -11.952  11.845  1.00  0.00    -0.166 F 
HETATM   25  F   UNL     1      44.053 -12.581   9.938  1.00  0.00    -0.166 F 
HETATM   26  F   UNL     1      44.891 -10.872  10.986  1.00  0.00    -0.166 F 
ENDBRANCH  19  23
ENDBRANCH  14  17
ENDBRANCH  12  13
ENDBRANCH  11  12
ENDBRANCH   4  11
BRANCH   8  27
HETATM   27  C   UNL     1      42.243 -14.925   5.652  1.00  0.00    -0.042 A 
HETATM   28  C   UNL     1      42.452 -16.017   6.507  1.00  0.00     0.027 A 
HETATM   29  C   UNL     1      43.526 -15.985   7.382  1.00  0.00     0.116 A 
HETATM   30  N   UNL     1      44.396 -14.959   7.456  1.00  0.00    -0.273 NA
HETATM   31  C   UNL     1      44.171 -13.903   6.645  1.00  0.00     0.116 A 
HETATM   32  C   UNL     1      43.121 -13.837   5.744  1.00  0.00     0.027 A 
ENDBRANCH   8  27
BRANCH   9  33
HETATM   33  C   UNL     1      41.723 -16.717   2.874  1.00  0.00     0.255 C 
HETATM   34  N   UNL     1      42.994 -17.182   3.126  1.00  0.00    -0.323 N 
HETATM   35  H   UNL     1      43.688 -16.532   3.467  1.00  0.00     0.169 HD
HETATM   36  O   UNL     1      40.790 -17.395   2.452  1.00  0.00    -0.268 OA
BRANCH  34  37
HETATM   37  C   UNL     1      43.458 -18.509   2.989  1.00  0.00     0.035 A 
HETATM   38  C   UNL     1      43.218 -19.314   1.873  1.00  0.00     0.029 A 
HETATM   39  C   UNL     1      43.699 -20.626   1.825  1.00  0.00     0.002 A 
HETATM   40  C   UNL     1      44.415 -21.151   2.899  1.00  0.00     0.000 A 
HETATM   41  C   UNL     1      44.662 -20.358   4.015  1.00  0.00     0.002 A 
HETATM   42  C   UNL     1      44.195 -19.041   4.056  1.00  0.00     0.029 A 
ENDBRANCH  34  37
ENDBRANCH   9  33
TORSDOF 8
ENDMDL
MODEL 4
REMARK VINA RESULT:      -9.3      1.931      2.543
REMARK  8 active torsions:
REMARK  status: ('A' for Active; 'I' for Inactive)
REMARK    1  A    between atoms: C_4  and  S_5 
REMARK    2  A    between atoms: S_5  and  C_6 
REMARK    3  A    between atoms: C_6  and  C_7 
REMARK       I    between atoms: C_7  and  N_8 
REMARK    4  A    between atoms: N_8  and  C_9 
REMARK    5  A    between atoms: C_11  and  C_12 
REMARK    6  A    between atoms: C_23  and  C_24 
REMARK    7  A    between atoms: C_30  and  C_31 
REMARK       I    between atoms: C_31  and  N_32 
REMARK    8  A    between atoms: N_32  and  C_33 
ROOT
HETATM    1  C   UNL     1      40.490 -16.261   6.276  1.00  0.00     0.069 C 
HETATM    2  C   UNL     1      40.614 -15.051   5.380  1.00  0.00     0.019 C 
HETATM    3  N   UNL     1      39.857 -13.953   5.762  1.00  0.00    -0.353 N 
HETATM    4  C   UNL     1      39.990 -12.685   5.228  1.00  0.00     0.087 C 
HETATM    5  C   UNL     1      40.692 -12.528   4.083  1.00  0.00     0.055 C 
HETATM    6  C   UNL     1      40.741 -11.200   3.345  1.00  0.00     0.019 C 
HETATM    7  N   UNL     1      40.782 -10.100   2.732  1.00  0.00    -0.096 N 
HETATM    8  C   UNL     1      41.402 -13.712   3.422  1.00  0.00     0.104 C 
HETATM    9  C   UNL     1      41.409 -14.975   4.285  1.00  0.00     0.046 C 
HETATM   10  H   UNL     1      39.476 -13.973   6.707  1.00  0.00     0.166 HD
ENDROOT
BRANCH   4  11
HETATM   11  S   UNL     1      39.383 -11.314   6.132  1.00  0.00    -0.102 SA
BRANCH  11  12
HETATM   12  C   UNL     1      39.364 -11.937   7.843  1.00  0.00     0.184 C 
BRANCH  12  13
HETATM   13  C   UNL     1      39.942 -10.935   8.853  1.00  0.00     0.231 C 
HETATM   14  N   UNL     1      39.510 -11.097  10.155  1.00  0.00    -0.327 N 
HETATM   15  H   UNL     1      38.813 -11.823  10.287  1.00  0.00     0.169 HD
HETATM   16  O   UNL     1      40.737 -10.080   8.468  1.00  0.00    -0.272 OA
BRANCH  14  17
HETATM   17  C   UNL     1      39.875 -10.375  11.308  1.00  0.00     0.035 A 
HETATM   18  C   UNL     1      41.029 -10.622  12.054  1.00  0.00     0.045 A 
HETATM   19  C   UNL     1      41.313  -9.866  13.206  1.00  0.00     0.050 A 
HETATM   20  C   UNL     1      40.435  -8.840  13.588  1.00  0.00     0.016 A 
HETATM   21  C   UNL     1      39.283  -8.590  12.848  1.00  0.00     0.003 A 
HETATM   22  C   UNL     1      39.003  -9.359  11.718  1.00  0.00     0.029 A 
BRANCH  19  23
HETATM   23  C   UNL     1      42.564 -10.126  14.010  1.00  0.00     0.417 C 
HETATM   24  F   UNL     1      42.338 -10.279  15.343  1.00  0.00    -0.166 F 
HETATM   25  F   UNL     1      43.215 -11.250  13.604  1.00  0.00    -0.166 F 
HETATM   26  F   UNL     1      43.473  -9.114  13.904  1.00  0.00    -0.166 F 
ENDBRANCH  19  23
ENDBRANCH  14  17
ENDBRANCH  12  13
ENDBRANCH  11  12
ENDBRANCH   4  11
BRANCH   8  27
HETATM   27  C   UNL     1      40.839 -13.947   2.021  1.00  0.00    -0.042 A 
HETATM   28  C   UNL     1      39.457 -14.109   1.840  1.00  0.00     0.027 A 
HETATM   29  C   UNL     1      38.972 -14.324   0.561  1.00  0.00     0.116 A 
HETATM   30  N   UNL     1      39.756 -14.380  -0.535  1.00  0.00    -0.273 NA
HETATM   31  C   UNL     1      41.085 -14.247  -0.345  1.00  0.00     0.116 A 
HETATM   32  C   UNL     1      41.668 -14.038   0.895  1.00  0.00     0.027 A 
ENDBRANCH   8  27
BRANCH   9  33
HETATM   33  C   UNL     1      42.481 -16.010   4.082  1.00  0.00     0.255 C 
HETATM   34  N   UNL     1      42.036 -17.270   3.750  1.00  0.00    -0.323 N 
HETATM   35  H   UNL     1      41.042 -17.443   3.736  1.00  0.00     0.169 HD
HETATM   36  O   UNL     1      43.659 -15.667   4.144  1.00  0.00    -0.268 OA
BRANCH  34  37
HETATM   37  C   UNL     1      42.826 -18.383   3.386  1.00  0.00     0.035 A 
HETATM   38  C   UNL     1      42.814 -18.975   2.121  1.00  0.00     0.029 A 
HETATM   39  C   UNL     1      43.616 -20.088   1.849  1.00  0.00     0.002 A 
HETATM   40  C   UNL     1      44.428 -20.628   2.843  1.00  0.00     0.000 A 
HETATM   41  C   UNL     1      44.450 -20.045   4.107  1.00  0.00     0.002 A 
HETATM   42  C   UNL     1      43.661 -18.923   4.374  1.00  0.00     0.029 A 
ENDBRANCH  34  37
ENDBRANCH   9  33
TORSDOF 8
ENDMDL
MODEL 5
REMARK VINA RESULT:      -9.2      1.714      4.838
REMARK  8 active torsions:
REMARK  status: ('A' for Active; 'I' for Inactive)
REMARK    1  A    between atoms: C_4  and  S_5 
REMARK    2  A    between atoms: S_5  and  C_6 
REMARK    3  A    between atoms: C_6  and  C_7 
REMARK       I    between atoms: C_7  and  N_8 
REMARK    4  A    between atoms: N_8  and  C_9 
REMARK    5  A    between atoms: C_11  and  C_12 
REMARK    6  A    between atoms: C_23  and  C_24 
REMARK    7  A    between atoms: C_30  and  C_31 
REMARK       I    between atoms: C_31  and  N_32 
REMARK    8  A    between atoms: N_32  and  C_33 
ROOT
HETATM    1  C   UNL     1      39.632 -11.282   1.540  1.00  0.00     0.069 C 
HETATM    2  C   UNL     1      39.866 -12.464   2.450  1.00  0.00     0.019 C 
HETATM    3  N   UNL     1      40.225 -12.145   3.751  1.00  0.00    -0.353 N 
HETATM    4  C   UNL     1      40.264 -13.048   4.798  1.00  0.00     0.087 C 
HETATM    5  C   UNL     1      40.221 -14.371   4.521  1.00  0.00     0.055 C 
HETATM    6  C   UNL     1      40.430 -15.425   5.596  1.00  0.00     0.019 C 
HETATM    7  N   UNL     1      40.604 -16.299   6.488  1.00  0.00    -0.096 N 
HETATM    8  C   UNL     1      40.051 -14.875   3.086  1.00  0.00     0.104 C 
HETATM    9  C   UNL     1      39.727 -13.762   2.086  1.00  0.00     0.046 C 
HETATM   10  H   UNL     1      40.079 -11.177   4.037  1.00  0.00     0.166 HD
ENDROOT
BRANCH   4  11
HETATM   11  S   UNL     1      40.207 -12.448   6.441  1.00  0.00    -0.102 SA
BRANCH  11  12
HETATM   12  C   UNL     1      40.642 -10.691   6.244  1.00  0.00     0.184 C 
BRANCH  12  13
HETATM   13  C   UNL     1      41.619 -10.191   7.317  1.00  0.00     0.231 C 
HETATM   14  N   UNL     1      41.965 -11.122   8.277  1.00  0.00    -0.327 N 
HETATM   15  H   UNL     1      41.486 -12.014   8.199  1.00  0.00     0.169 HD
HETATM   16  O   UNL     1      42.038  -9.036   7.263  1.00  0.00    -0.272 OA
BRANCH  14  17
HETATM   17  C   UNL     1      42.854 -10.992   9.361  1.00  0.00     0.035 A 
HETATM   18  C   UNL     1      42.482 -10.547  10.630  1.00  0.00     0.045 A 
HETATM   19  C   UNL     1      43.437 -10.427  11.657  1.00  0.00     0.050 A 
HETATM   20  C   UNL     1      44.769 -10.785  11.401  1.00  0.00     0.016 A 
HETATM   21  C   UNL     1      45.146 -11.231  10.137  1.00  0.00     0.003 A 
HETATM   22  C   UNL     1      44.193 -11.326   9.122  1.00  0.00     0.029 A 
BRANCH  19  23
HETATM   23  C   UNL     1      43.035  -9.954  13.033  1.00  0.00     0.417 C 
HETATM   24  F   UNL     1      42.003  -9.066  13.028  1.00  0.00    -0.166 F 
HETATM   25  F   UNL     1      42.648 -10.979  13.841  1.00  0.00    -0.166 F 
HETATM   26  F   UNL     1      44.054  -9.329  13.690  1.00  0.00    -0.166 F 
ENDBRANCH  19  23
ENDBRANCH  14  17
ENDBRANCH  12  13
ENDBRANCH  11  12
ENDBRANCH   4  11
BRANCH   8  27
HETATM   27  C   UNL     1      41.261 -15.713   2.675  1.00  0.00    -0.042 A 
HETATM   28  C   UNL     1      41.085 -17.044   2.267  1.00  0.00     0.027 A 
HETATM   29  C   UNL     1      42.197 -17.784   1.904  1.00  0.00     0.116 A 
HETATM   30  N   UNL     1      43.453 -17.295   1.910  1.00  0.00    -0.273 NA
HETATM   31  C   UNL     1      43.613 -16.021   2.327  1.00  0.00     0.116 A 
HETATM   32  C   UNL     1      42.565 -15.203   2.720  1.00  0.00     0.027 A 
ENDBRANCH   8  27
BRANCH   9  33
HETATM   33  C   UNL     1      39.001 -14.095   0.812  1.00  0.00     0.255 C 
HETATM   34  N   UNL     1      39.779 -14.128  -0.323  1.00  0.00    -0.323 N 
HETATM   35  H   UNL     1      40.749 -13.860  -0.252  1.00  0.00     0.169 HD
HETATM   36  O   UNL     1      37.809 -14.386   0.864  1.00  0.00    -0.268 OA
BRANCH  34  37
HETATM   37  C   UNL     1      39.379 -14.530  -1.617  1.00  0.00     0.035 A 
HETATM   38  C   UNL     1      38.195 -14.123  -2.237  1.00  0.00     0.029 A 
HETATM   39  C   UNL     1      37.866 -14.584  -3.515  1.00  0.00     0.002 A 
HETATM   40  C   UNL     1      38.713 -15.466  -4.183  1.00  0.00     0.000 A 
HETATM   41  C   UNL     1      39.896 -15.877  -3.577  1.00  0.00     0.002 A 
HETATM   42  C   UNL     1      40.233 -15.404  -2.305  1.00  0.00     0.029 A 
ENDBRANCH  34  37
ENDBRANCH   9  33
TORSDOF 8
ENDMDL
MODEL 6
REMARK VINA RESULT:      -9.1      1.837      2.338
REMARK  8 active torsions:
REMARK  status: ('A' for Active; 'I' for Inactive)
REMARK    1  A    between atoms: C_4  and  S_5 
REMARK    2  A    between atoms: S_5  and  C_6 
REMARK    3  A    between atoms: C_6  and  C_7 
REMARK       I    between atoms: C_7  and  N_8 
REMARK    4  A    between atoms: N_8  and  C_9 
REMARK    5  A    between atoms: C_11  and  C_12 
REMARK    6  A    between atoms: C_23  and  C_24 
REMARK    7  A    between atoms: C_30  and  C_31 
REMARK       I    between atoms: C_31  and  N_32 
REMARK    8  A    between atoms: N_32  and  C_33 
ROOT
HETATM    1  C   UNL     1      40.416 -14.595   5.957  1.00  0.00     0.069 C 
HETATM    2  C   UNL     1      40.599 -13.631   4.809  1.00  0.00     0.019 C 
HETATM    3  N   UNL     1      39.925 -12.425   4.937  1.00  0.00    -0.353 N 
HETATM    4  C   UNL     1      40.129 -11.323   4.127  1.00  0.00     0.087 C 
HETATM    5  C   UNL     1      40.813 -11.480   2.971  1.00  0.00     0.055 C 
HETATM    6  C   UNL     1      40.932 -10.360   1.949  1.00  0.00     0.019 C 
HETATM    7  N   UNL     1      41.031  -9.433   1.101  1.00  0.00    -0.096 N 
HETATM    8  C   UNL     1      41.427 -12.829   2.590  1.00  0.00     0.104 C 
HETATM    9  C   UNL     1      41.370 -13.862   3.718  1.00  0.00     0.046 C 
HETATM   10  H   UNL     1      39.566 -12.204   5.864  1.00  0.00     0.166 HD
ENDROOT
BRANCH   4  11
HETATM   11  S   UNL     1      39.636  -9.744   4.700  1.00  0.00    -0.102 SA
BRANCH  11  12
HETATM   12  C   UNL     1      39.489  -9.996   6.497  1.00  0.00     0.184 C 
BRANCH  12  13
HETATM   13  C   UNL     1      40.806  -9.753   7.247  1.00  0.00     0.231 C 
HETATM   14  N   UNL     1      40.858 -10.270   8.527  1.00  0.00    -0.327 N 
HETATM   15  H   UNL     1      39.998 -10.700   8.849  1.00  0.00     0.169 HD
HETATM   16  O   UNL     1      41.717  -9.145   6.687  1.00  0.00    -0.272 OA
BRANCH  14  17
HETATM   17  C   UNL     1      41.921 -10.249   9.451  1.00  0.00     0.035 A 
HETATM   18  C   UNL     1      43.125 -10.934   9.275  1.00  0.00     0.045 A 
HETATM   19  C   UNL     1      44.133 -10.876  10.255  1.00  0.00     0.050 A 
HETATM   20  C   UNL     1      43.927 -10.100  11.406  1.00  0.00     0.016 A 
HETATM   21  C   UNL     1      42.729  -9.415  11.587  1.00  0.00     0.003 A 
HETATM   22  C   UNL     1      41.730  -9.496  10.616  1.00  0.00     0.029 A 
BRANCH  19  23
HETATM   23  C   UNL     1      45.438 -11.610  10.064  1.00  0.00     0.417 C 
HETATM   24  F   UNL     1      45.425 -12.492   9.027  1.00  0.00    -0.166 F 
HETATM   25  F   UNL     1      46.477 -10.763   9.827  1.00  0.00    -0.166 F 
HETATM   26  F   UNL     1      45.796 -12.337  11.161  1.00  0.00    -0.166 F 
ENDBRANCH  19  23
ENDBRANCH  14  17
ENDBRANCH  12  13
ENDBRANCH  11  12
ENDBRANCH   4  11
BRANCH   8  27
HETATM   27  C   UNL     1      40.816 -13.336   1.284  1.00  0.00    -0.042 A 
HETATM   28  C   UNL     1      41.640 -13.579   0.174  1.00  0.00     0.027 A 
HETATM   29  C   UNL     1      41.062 -14.034  -0.999  1.00  0.00     0.116 A 
HETATM   30  N   UNL     1      39.742 -14.268  -1.138  1.00  0.00    -0.273 NA
HETATM   31  C   UNL     1      38.957 -14.008  -0.071  1.00  0.00     0.116 A 
HETATM   32  C   UNL     1      39.438 -13.541   1.142  1.00  0.00     0.027 A 
ENDBRANCH   8  27
BRANCH   9  33
HETATM   33  C   UNL     1      42.367 -14.988   3.747  1.00  0.00     0.255 C 
HETATM   34  N   UNL     1      41.878 -16.223   3.386  1.00  0.00    -0.323 N 
HETATM   35  H   UNL     1      40.890 -16.317   3.201  1.00  0.00     0.169 HD
HETATM   36  O   UNL     1      43.541 -14.737   4.007  1.00  0.00    -0.268 OA
BRANCH  34  37
HETATM   37  C   UNL     1      42.618 -17.413   3.209  1.00  0.00     0.035 A 
HETATM   38  C   UNL     1      43.171 -18.157   4.254  1.00  0.00     0.029 A 
HETATM   39  C   UNL     1      43.907 -19.316   3.990  1.00  0.00     0.002 A 
HETATM   40  C   UNL     1      44.107 -19.737   2.678  1.00  0.00     0.000 A 
HETATM   41  C   UNL     1      43.559 -19.006   1.629  1.00  0.00     0.002 A 
HETATM   42  C   UNL     1      42.810 -17.856   1.893  1.00  0.00     0.029 A 
ENDBRANCH  34  37
ENDBRANCH   9  33
TORSDOF 8
ENDMDL
MODEL 7
REMARK VINA RESULT:      -9.1      3.990      4.808
REMARK  8 active torsions:
REMARK  status: ('A' for Active; 'I' for Inactive)
REMARK    1  A    between atoms: C_4  and  S_5 
REMARK    2  A    between atoms: S_5  and  C_6 
REMARK    3  A    between atoms: C_6  and  C_7 
REMARK       I    between atoms: C_7  and  N_8 
REMARK    4  A    between atoms: N_8  and  C_9 
REMARK    5  A    between atoms: C_11  and  C_12 
REMARK    6  A    between atoms: C_23  and  C_24 
REMARK    7  A    between atoms: C_30  and  C_31 
REMARK       I    between atoms: C_31  and  N_32 
REMARK    8  A    between atoms: N_32  and  C_33 
ROOT
HETATM    1  C   UNL     1      38.706 -14.965   1.858  1.00  0.00     0.069 C 
HETATM    2  C   UNL     1      39.558 -13.814   1.378  1.00  0.00     0.019 C 
HETATM    3  N   UNL     1      39.094 -12.553   1.720  1.00  0.00    -0.353 N 
HETATM    4  C   UNL     1      39.822 -11.385   1.585  1.00  0.00     0.087 C 
HETATM    5  C   UNL     1      40.945 -11.400   0.830  1.00  0.00     0.055 C 
HETATM    6  C   UNL     1      41.704 -10.126   0.494  1.00  0.00     0.019 C 
HETATM    7  N   UNL     1      42.334  -9.071   0.215  1.00  0.00    -0.096 N 
HETATM    8  C   UNL     1      41.457 -12.696   0.198  1.00  0.00     0.104 C 
HETATM    9  C   UNL     1      40.714 -13.943   0.681  1.00  0.00     0.046 C 
HETATM   10  H   UNL     1      38.371 -12.516   2.438  1.00  0.00     0.166 HD
ENDROOT
BRANCH   4  11
HETATM   11  S   UNL     1      39.357  -9.979   2.517  1.00  0.00    -0.102 SA
BRANCH  11  12
HETATM   12  C   UNL     1      40.586  -9.962   3.860  1.00  0.00     0.184 C 
BRANCH  12  13
HETATM   13  C   UNL     1      40.490 -11.189   4.777  1.00  0.00     0.231 C 
HETATM   14  N   UNL     1      41.276 -12.263   4.407  1.00  0.00    -0.327 N 
HETATM   15  H   UNL     1      41.783 -12.141   3.537  1.00  0.00     0.169 HD
HETATM   16  O   UNL     1      39.755 -11.151   5.763  1.00  0.00    -0.272 OA
BRANCH  14  17
HETATM   17  C   UNL     1      41.440 -13.506   5.048  1.00  0.00     0.035 A 
HETATM   18  C   UNL     1      42.632 -13.934   5.634  1.00  0.00     0.045 A 
HETATM   19  C   UNL     1      42.719 -15.201   6.240  1.00  0.00     0.050 A 
HETATM   20  C   UNL     1      41.585 -16.026   6.273  1.00  0.00     0.016 A 
HETATM   21  C   UNL     1      40.393 -15.604   5.691  1.00  0.00     0.003 A 
HETATM   22  C   UNL     1      40.325 -14.353   5.076  1.00  0.00     0.029 A 
BRANCH  19  23
HETATM   23  C   UNL     1      44.006 -15.662   6.881  1.00  0.00     0.417 C 
HETATM   24  F   UNL     1      44.574 -16.733   6.262  1.00  0.00    -0.166 F 
HETATM   25  F   UNL     1      44.955 -14.687   6.897  1.00  0.00    -0.166 F 
HETATM   26  F   UNL     1      43.837 -16.036   8.182  1.00  0.00    -0.166 F 
ENDBRANCH  19  23
ENDBRANCH  14  17
ENDBRANCH  12  13
ENDBRANCH  11  12
ENDBRANCH   4  11
BRANCH   8  27
HETATM   27  C   UNL     1      41.480 -12.565  -1.324  1.00  0.00    -0.042 A 
HETATM   28  C   UNL     1      40.276 -12.565  -2.045  1.00  0.00     0.027 A 
HETATM   29  C   UNL     1      40.323 -12.449  -3.425  1.00  0.00     0.116 A 
HETATM   30  N   UNL     1      41.469 -12.327  -4.123  1.00  0.00    -0.273 NA
HETATM   31  C   UNL     1      42.622 -12.352  -3.422  1.00  0.00     0.116 A 
HETATM   32  C   UNL     1      42.679 -12.474  -2.042  1.00  0.00     0.027 A 
ENDBRANCH   8  27
BRANCH   9  33
HETATM   33  C   UNL     1      41.394 -15.283   0.627  1.00  0.00     0.255 C 
HETATM   34  N   UNL     1      42.098 -15.638   1.756  1.00  0.00    -0.323 N 
HETATM   35  H   UNL     1      42.179 -14.967   2.506  1.00  0.00     0.169 HD
HETATM   36  O   UNL     1      41.226 -15.996  -0.358  1.00  0.00    -0.268 OA
BRANCH  34  37
HETATM   37  C   UNL     1      42.719 -16.880   2.016  1.00  0.00     0.035 A 
HETATM   38  C   UNL     1      43.554 -17.544   1.115  1.00  0.00     0.029 A 
HETATM   39  C   UNL     1      44.116 -18.782   1.445  1.00  0.00     0.002 A 
HETATM   40  C   UNL     1      43.839 -19.372   2.676  1.00  0.00     0.000 A 
HETATM   41  C   UNL     1      43.011 -18.718   3.583  1.00  0.00     0.002 A 
HETATM   42  C   UNL     1      42.462 -17.474   3.259  1.00  0.00     0.029 A 
ENDBRANCH  34  37
ENDBRANCH   9  33
TORSDOF 8
ENDMDL
MODEL 8
REMARK VINA RESULT:      -9.1      3.688      8.013
REMARK  8 active torsions:
REMARK  status: ('A' for Active; 'I' for Inactive)
REMARK    1  A    between atoms: C_4  and  S_5 
REMARK    2  A    between atoms: S_5  and  C_6 
REMARK    3  A    between atoms: C_6  and  C_7 
REMARK       I    between atoms: C_7  and  N_8 
REMARK    4  A    between atoms: N_8  and  C_9 
REMARK    5  A    between atoms: C_11  and  C_12 
REMARK    6  A    between atoms: C_23  and  C_24 
REMARK    7  A    between atoms: C_30  and  C_31 
REMARK       I    between atoms: C_31  and  N_32 
REMARK    8  A    between atoms: N_32  and  C_33 
ROOT
HETATM    1  C   UNL     1      43.677 -13.722   3.901  1.00  0.00     0.069 C 
HETATM    2  C   UNL     1      42.353 -13.609   3.184  1.00  0.00     0.019 C 
HETATM    3  N   UNL     1      42.357 -14.041   1.866  1.00  0.00    -0.353 N 
HETATM    4  C   UNL     1      41.222 -14.239   1.102  1.00  0.00     0.087 C 
HETATM    5  C   UNL     1      40.045 -13.736   1.538  1.00  0.00     0.055 C 
HETATM    6  C   UNL     1      38.791 -13.763   0.680  1.00  0.00     0.019 C 
HETATM    7  N   UNL     1      37.751 -13.785  -0.032  1.00  0.00    -0.096 N 
HETATM    8  C   UNL     1      39.939 -13.028   2.891  1.00  0.00     0.104 C 
HETATM    9  C   UNL     1      41.206 -13.151   3.741  1.00  0.00     0.046 C 
HETATM   10  H   UNL     1      43.162 -14.594   1.573  1.00  0.00     0.166 HD
ENDROOT
BRANCH   4  11
HETATM   11  S   UNL     1      41.317 -15.264  -0.314  1.00  0.00    -0.102 SA
BRANCH  11  12
HETATM   12  C   UNL     1      41.218 -16.939   0.395  1.00  0.00     0.184 C 
BRANCH  12  13
HETATM   13  C   UNL     1      42.449 -17.310   1.233  1.00  0.00     0.231 C 
HETATM   14  N   UNL     1      42.226 -18.248   2.222  1.00  0.00    -0.327 N 
HETATM   15  H   UNL     1      41.260 -18.542   2.322  1.00  0.00     0.169 HD
HETATM   16  O   UNL     1      43.531 -16.782   0.984  1.00  0.00    -0.272 OA
BRANCH  14  17
HETATM   17  C   UNL     1      43.142 -18.820   3.127  1.00  0.00     0.035 A 
HETATM   18  C   UNL     1      43.421 -18.300   4.391  1.00  0.00     0.045 A 
HETATM   19  C   UNL     1      44.365 -18.922   5.230  1.00  0.00     0.050 A 
HETATM   20  C   UNL     1      45.008 -20.090   4.793  1.00  0.00     0.016 A 
HETATM   21  C   UNL     1      44.732 -20.613   3.533  1.00  0.00     0.003 A 
HETATM   22  C   UNL     1      43.809 -19.976   2.703  1.00  0.00     0.029 A 
BRANCH  19  23
HETATM   23  C   UNL     1      44.663 -18.366   6.601  1.00  0.00     0.417 C 
HETATM   24  F   UNL     1      45.979 -18.087   6.806  1.00  0.00    -0.166 F 
HETATM   25  F   UNL     1      43.989 -17.209   6.848  1.00  0.00    -0.166 F 
HETATM   26  F   UNL     1      44.307 -19.221   7.602  1.00  0.00    -0.166 F 
ENDBRANCH  19  23
ENDBRANCH  14  17
ENDBRANCH  12  13
ENDBRANCH  11  12
ENDBRANCH   4  11
BRANCH   8  27
HETATM   27  C   UNL     1      39.489 -11.581   2.694  1.00  0.00    -0.042 A 
HETATM   28  C   UNL     1      40.286 -10.695   1.953  1.00  0.00     0.027 A 
HETATM   29  C   UNL     1      39.858  -9.387   1.792  1.00  0.00     0.116 A 
HETATM   30  N   UNL     1      38.705  -8.912   2.302  1.00  0.00    -0.273 NA
HETATM   31  C   UNL     1      37.959  -9.767   3.033  1.00  0.00     0.116 A 
HETATM   32  C   UNL     1      38.305 -11.090   3.259  1.00  0.00     0.027 A 
ENDBRANCH   8  27
BRANCH   9  33
HETATM   33  C   UNL     1      41.113 -13.028   5.237  1.00  0.00     0.255 C 
HETATM   34  N   UNL     1      41.138 -11.743   5.731  1.00  0.00    -0.323 N 
HETATM   35  H   UNL     1      41.290 -10.981   5.087  1.00  0.00     0.169 HD
HETATM   36  O   UNL     1      40.946 -14.043   5.908  1.00  0.00    -0.268 OA
BRANCH  34  37
HETATM   37  C   UNL     1      40.944 -11.342   7.071  1.00  0.00     0.035 A 
HETATM   38  C   UNL     1      39.706 -11.335   7.718  1.00  0.00     0.029 A 
HETATM   39  C   UNL     1      39.598 -10.905   9.044  1.00  0.00     0.002 A 
HETATM   40  C   UNL     1      40.726 -10.467   9.733  1.00  0.00     0.000 A 
HETATM   41  C   UNL     1      41.966 -10.472   9.101  1.00  0.00     0.002 A 
HETATM   42  C   UNL     1      42.076 -10.917   7.780  1.00  0.00     0.029 A 
ENDBRANCH  34  37
ENDBRANCH   9  33
TORSDOF 8
ENDMDL
MODEL 9
REMARK VINA RESULT:      -9.0      4.320      5.150
REMARK  8 active torsions:
REMARK  status: ('A' for Active; 'I' for Inactive)
REMARK    1  A    between atoms: C_4  and  S_5 
REMARK    2  A    between atoms: S_5  and  C_6 
REMARK    3  A    between atoms: C_6  and  C_7 
REMARK       I    between atoms: C_7  and  N_8 
REMARK    4  A    between atoms: N_8  and  C_9 
REMARK    5  A    between atoms: C_11  and  C_12 
REMARK    6  A    between atoms: C_23  and  C_24 
REMARK    7  A    between atoms: C_30  and  C_31 
REMARK       I    between atoms: C_31  and  N_32 
REMARK    8  A    between atoms: N_32  and  C_33 
ROOT
HETATM    1  C   UNL     1      39.020 -15.300   2.117  1.00  0.00     0.069 C 
HETATM    2  C   UNL     1      39.788 -14.115   1.583  1.00  0.00     0.019 C 
HETATM    3  N   UNL     1      39.296 -12.874   1.961  1.00  0.00    -0.353 N 
HETATM    4  C   UNL     1      39.965 -11.677   1.779  1.00  0.00     0.087 C 
HETATM    5  C   UNL     1      41.032 -11.645   0.949  1.00  0.00     0.055 C 
HETATM    6  C   UNL     1      41.713 -10.341   0.565  1.00  0.00     0.019 C 
HETATM    7  N   UNL     1      42.278  -9.260   0.246  1.00  0.00    -0.096 N 
HETATM    8  C   UNL     1      41.553 -12.918   0.279  1.00  0.00     0.104 C 
HETATM    9  C   UNL     1      40.897 -14.195   0.809  1.00  0.00     0.046 C 
HETATM   10  H   UNL     1      38.624 -12.867   2.726  1.00  0.00     0.166 HD
ENDROOT
BRANCH   4  11
HETATM   11  S   UNL     1      39.507 -10.291   2.745  1.00  0.00    -0.102 SA
BRANCH  11  12
HETATM   12  C   UNL     1      40.823 -10.224   4.001  1.00  0.00     0.184 C 
BRANCH  12  13
HETATM   13  C   UNL     1      40.899 -11.495   4.859  1.00  0.00     0.231 C 
HETATM   14  N   UNL     1      41.910 -12.373   4.521  1.00  0.00    -0.327 N 
HETATM   15  H   UNL     1      42.451 -12.108   3.705  1.00  0.00     0.169 HD
HETATM   16  O   UNL     1      40.094 -11.654   5.776  1.00  0.00    -0.272 OA
BRANCH  14  17
HETATM   17  C   UNL     1      42.265 -13.594   5.126  1.00  0.00     0.035 A 
HETATM   18  C   UNL     1      41.534 -14.776   4.994  1.00  0.00     0.045 A 
HETATM   19  C   UNL     1      41.947 -15.952   5.647  1.00  0.00     0.050 A 
HETATM   20  C   UNL     1      43.120 -15.934   6.417  1.00  0.00     0.016 A 
HETATM   21  C   UNL     1      43.853 -14.759   6.552  1.00  0.00     0.003 A 
HETATM   22  C   UNL     1      43.422 -13.595   5.915  1.00  0.00     0.029 A 
BRANCH  19  23
HETATM   23  C   UNL     1      41.162 -17.233   5.499  1.00  0.00     0.417 C 
HETATM   24  F   UNL     1      41.926 -18.357   5.570  1.00  0.00    -0.166 F 
HETATM   25  F   UNL     1      40.203 -17.366   6.456  1.00  0.00    -0.166 F 
HETATM   26  F   UNL     1      40.506 -17.309   4.305  1.00  0.00    -0.166 F 
ENDBRANCH  19  23
ENDBRANCH  14  17
ENDBRANCH  12  13
ENDBRANCH  11  12
ENDBRANCH   4  11
BRANCH   8  27
HETATM   27  C   UNL     1      41.466 -12.787  -1.241  1.00  0.00    -0.042 A 
HETATM   28  C   UNL     1      40.215 -12.829  -1.877  1.00  0.00     0.027 A 
HETATM   29  C   UNL     1      40.163 -12.712  -3.256  1.00  0.00     0.116 A 
HETATM   30  N   UNL     1      41.253 -12.549  -4.032  1.00  0.00    -0.273 NA
HETATM   31  C   UNL     1      42.451 -12.533  -3.412  1.00  0.00     0.116 A 
HETATM   32  C   UNL     1      42.609 -12.653  -2.040  1.00  0.00     0.027 A 
ENDBRANCH   8  27
BRANCH   9  33
HETATM   33  C   UNL     1      41.627 -15.506   0.703  1.00  0.00     0.255 C 
HETATM   34  N   UNL     1      42.087 -16.026   1.892  1.00  0.00    -0.323 N 
HETATM   35  H   UNL     1      41.979 -15.480   2.734  1.00  0.00     0.169 HD
HETATM   36  O   UNL     1      41.702 -16.060  -0.390  1.00  0.00    -0.268 OA
BRANCH  34  37
HETATM   37  C   UNL     1      42.688 -17.289   2.092  1.00  0.00     0.035 A 
HETATM   38  C   UNL     1      42.186 -18.488   1.582  1.00  0.00     0.029 A 
HETATM   39  C   UNL     1      42.835 -19.699   1.843  1.00  0.00     0.002 A 
HETATM   40  C   UNL     1      43.986 -19.725   2.626  1.00  0.00     0.000 A 
HETATM   41  C   UNL     1      44.497 -18.536   3.138  1.00  0.00     0.002 A 
HETATM   42  C   UNL     1      43.858 -17.323   2.865  1.00  0.00     0.029 A 
ENDBRANCH  34  37
ENDBRANCH   9  33
TORSDOF 8
ENDMDL
MODEL 10
REMARK VINA RESULT:      -9.0      5.837      9.242
REMARK  8 active torsions:
REMARK  status: ('A' for Active; 'I' for Inactive)
REMARK    1  A    between atoms: C_4  and  S_5 
REMARK    2  A    between atoms: S_5  and  C_6 
REMARK    3  A    between atoms: C_6  and  C_7 
REMARK       I    between atoms: C_7  and  N_8 
REMARK    4  A    between atoms: N_8  and  C_9 
REMARK    5  A    between atoms: C_11  and  C_12 
REMARK    6  A    between atoms: C_23  and  C_24 
REMARK    7  A    between atoms: C_30  and  C_31 
REMARK       I    between atoms: C_31  and  N_32 
REMARK    8  A    between atoms: N_32  and  C_33 
ROOT
HETATM    1  C   UNL     1      38.371 -10.006   3.152  1.00  0.00     0.069 C 
HETATM    2  C   UNL     1      38.714 -11.414   2.726  1.00  0.00     0.019 C 
HETATM    3  N   UNL     1      39.428 -12.155   3.656  1.00  0.00    -0.353 N 
HETATM    4  C   UNL     1      39.648 -13.517   3.572  1.00  0.00     0.087 C 
HETATM    5  C   UNL     1      39.403 -14.147   2.400  1.00  0.00     0.055 C 
HETATM    6  C   UNL     1      39.778 -15.603   2.176  1.00  0.00     0.019 C 
HETATM    7  N   UNL     1      40.089 -16.810   1.990  1.00  0.00    -0.096 N 
HETATM    8  C   UNL     1      38.818 -13.394   1.203  1.00  0.00     0.104 C 
HETATM    9  C   UNL     1      38.357 -11.975   1.545  1.00  0.00     0.046 C 
HETATM   10  H   UNL     1      39.459 -11.782   4.604  1.00  0.00     0.166 HD
ENDROOT
BRANCH   4  11
HETATM   11  S   UNL     1      40.079 -14.401   5.020  1.00  0.00    -0.102 SA
BRANCH  11  12
HETATM   12  C   UNL     1      41.847 -14.014   5.216  1.00  0.00     0.184 C 
BRANCH  12  13
HETATM   13  C   UNL     1      42.766 -15.093   4.626  1.00  0.00     0.231 C 
HETATM   14  N   UNL     1      42.611 -16.356   5.164  1.00  0.00    -0.327 N 
HETATM   15  H   UNL     1      41.949 -16.415   5.931  1.00  0.00     0.169 HD
HETATM   16  O   UNL     1      43.554 -14.792   3.732  1.00  0.00    -0.272 OA
BRANCH  14  17
HETATM   17  C   UNL     1      43.266 -17.554   4.821  1.00  0.00     0.035 A 
HETATM   18  C   UNL     1      43.135 -18.193   3.587  1.00  0.00     0.045 A 
HETATM   19  C   UNL     1      43.812 -19.400   3.329  1.00  0.00     0.050 A 
HETATM   20  C   UNL     1      44.644 -19.946   4.317  1.00  0.00     0.016 A 
HETATM   21  C   UNL     1      44.779 -19.312   5.550  1.00  0.00     0.003 A 
HETATM   22  C   UNL     1      44.088 -18.127   5.800  1.00  0.00     0.029 A 
BRANCH  19  23
HETATM   23  C   UNL     1      43.677 -20.088   1.992  1.00  0.00     0.417 C 
HETATM   24  F   UNL     1      42.476 -20.701   1.809  1.00  0.00    -0.166 F 
HETATM   25  F   UNL     1      43.825 -19.227   0.949  1.00  0.00    -0.166 F 
HETATM   26  F   UNL     1      44.617 -21.059   1.807  1.00  0.00    -0.166 F 
ENDBRANCH  19  23
ENDBRANCH  14  17
ENDBRANCH  12  13
ENDBRANCH  11  12
ENDBRANCH   4  11
BRANCH   8  27
HETATM   27  C   UNL     1      39.790 -13.440   0.025  1.00  0.00    -0.042 A 
HETATM   28  C   UNL     1      39.405 -14.054  -1.177  1.00  0.00     0.027 A 
HETATM   29  C   UNL     1      40.306 -14.086  -2.228  1.00  0.00     0.116 A 
HETATM   30  N   UNL     1      41.541 -13.550  -2.169  1.00  0.00    -0.273 NA
HETATM   31  C   UNL     1      41.908 -12.983  -1.000  1.00  0.00     0.116 A 
HETATM   32  C   UNL     1      41.084 -12.910   0.112  1.00  0.00     0.027 A 
ENDBRANCH   8  27
BRANCH   9  33
HETATM   33  C   UNL     1      37.296 -11.315   0.708  1.00  0.00     0.255 C 
HETATM   34  N   UNL     1      35.997 -11.598   1.065  1.00  0.00    -0.323 N 
HETATM   35  H   UNL     1      35.833 -12.272   1.799  1.00  0.00     0.169 HD
HETATM   36  O   UNL     1      37.635 -10.526  -0.169  1.00  0.00    -0.268 OA
BRANCH  34  37
HETATM   37  C   UNL     1      34.823 -11.021   0.533  1.00  0.00     0.035 A 
HETATM   38  C   UNL     1      34.520 -10.971  -0.830  1.00  0.00     0.029 A 
HETATM   39  C   UNL     1      33.342 -10.363  -1.275  1.00  0.00     0.002 A 
HETATM   40  C   UNL     1      32.460  -9.790  -0.363  1.00  0.00     0.000 A 
HETATM   41  C   UNL     1      32.749  -9.836   0.998  1.00  0.00     0.002 A 
HETATM   42  C   UNL     1      33.919 -10.457   1.444  1.00  0.00     0.029 A 
ENDBRANCH  34  37
ENDBRANCH   9  33
TORSDOF 8
ENDMDL
