MODEL 1
REMARK VINA RESULT:      -8.8      0.000      0.000
REMARK  8 active torsions:
REMARK  status: ('A' for Active; 'I' for Inactive)
REMARK    1  A    between atoms: N_4  and  C_5 
REMARK    2  A    between atoms: C_14  and  C_15 
REMARK    3  A    between atoms: C_15  and  C_16 
REMARK    4  A    between atoms: C_16  and  C_17 
REMARK       I    between atoms: C_17  and  N_18 
REMARK    5  A    between atoms: N_18  and  C_19 
REMARK    6  A    between atoms: C_22  and  S_23 
REMARK    7  A    between atoms: S_23  and  N_24 
REMARK    8  A    between atoms: N_24  and  C_25 
ROOT
HETATM    1  C   UNL     1      39.961 -14.142   3.730  1.00  0.00     0.222 C 
HETATM    2  N   UNL     1      39.765 -15.098   2.749  1.00  0.00    -0.327 N 
HETATM    3  O   UNL     1      40.197 -12.951   3.552  1.00  0.00    -0.273 OA
HETATM    4  H   UNL     1      39.575 -16.043   3.059  1.00  0.00     0.169 HD
ENDROOT
BRANCH   1   5
HETATM    5  C   UNL     1      39.859 -14.692   5.142  1.00  0.00     0.108 C 
BRANCH   5   6
HETATM    6  C   UNL     1      41.234 -15.012   5.719  1.00  0.00     0.055 C 
BRANCH   6   7
HETATM    7  C   UNL     1      42.207 -15.710   4.828  1.00  0.00     0.030 A 
HETATM    8  C   UNL     1      43.163 -15.349   3.953  1.00  0.00     0.014 A 
HETATM    9  C   UNL     1      43.586 -13.975   3.555  1.00  0.00     0.064 C 
HETATM   10  N   UNL     1      43.783 -16.441   3.356  1.00  0.00    -0.199 NA
HETATM   11  N   UNL     1      43.138 -17.587   3.836  1.00  0.00    -0.238 N 
HETATM   12  H   UNL     1      43.761 -16.371   2.336  1.00  0.00     0.153 HD
HETATM   13  C   UNL     1      42.177 -17.208   4.770  1.00  0.00     0.270 A 
HETATM   14  O   UNL     1      41.419 -17.881   5.449  1.00  0.00    -0.266 OA
BRANCH  11  15
HETATM   15  C   UNL     1      43.550 -18.875   3.435  1.00  0.00     0.055 A 
HETATM   16  C   UNL     1      43.123 -19.428   2.218  1.00  0.00     0.034 A 
HETATM   17  C   UNL     1      43.542 -20.702   1.819  1.00  0.00     0.044 A 
HETATM   18  C   UNL     1      44.391 -21.431   2.637  1.00  0.00     0.116 A 
HETATM   19  F   UNL     1      44.793 -22.651   2.256  1.00  0.00    -0.206 F 
HETATM   20  C   UNL     1      44.827 -20.914   3.848  1.00  0.00     0.044 A 
HETATM   21  C   UNL     1      44.406 -19.641   4.246  1.00  0.00     0.034 A 
ENDBRANCH  11  15
ENDBRANCH   6   7
ENDBRANCH   5   6
ENDBRANCH   1   5
BRANCH   2  22
HETATM   22  C   UNL     1      39.852 -14.922   1.352  1.00  0.00     0.034 A 
HETATM   23  C   UNL     1      38.958 -14.150   0.605  1.00  0.00     0.031 A 
HETATM   24  C   UNL     1      39.126 -14.001  -0.774  1.00  0.00     0.027 A 
HETATM   25  C   UNL     1      40.204 -14.619  -1.411  1.00  0.00     0.074 A 
HETATM   26  C   UNL     1      41.092 -15.414  -0.686  1.00  0.00     0.027 A 
HETATM   27  C   UNL     1      40.914 -15.561   0.694  1.00  0.00     0.031 A 
BRANCH  25  28
HETATM   28  S   UNL     1      40.423 -14.416  -3.160  1.00  0.00     0.241 S 
HETATM   29  O   UNL     1      41.586 -15.182  -3.555  1.00  0.00    -0.206 OA
HETATM   30  O   UNL     1      39.142 -14.593  -3.808  1.00  0.00    -0.206 OA
BRANCH  28  31
HETATM   31  N   UNL     1      40.880 -12.788  -3.238  1.00  0.00    -0.211 NA
HETATM   32  H   UNL     1      40.158 -12.199  -2.821  1.00  0.00     0.140 HD
BRANCH  31  33
HETATM   33  C   UNL     1      42.264 -12.477  -2.890  1.00  0.00     0.071 A 
HETATM   34  C   UNL     1      42.709 -11.047  -2.764  1.00  0.00     0.022 A 
HETATM   35  C   UNL     1      42.632 -11.921  -1.545  1.00  0.00     0.022 A 
ENDBRANCH  31  33
ENDBRANCH  28  31
ENDBRANCH  25  28
ENDBRANCH   2  22
TORSDOF 8
ENDMDL
MODEL 2
REMARK VINA RESULT:      -8.8      1.254      1.677
REMARK  8 active torsions:
REMARK  status: ('A' for Active; 'I' for Inactive)
REMARK    1  A    between atoms: N_4  and  C_5 
REMARK    2  A    between atoms: C_14  and  C_15 
REMARK    3  A    between atoms: C_15  and  C_16 
REMARK    4  A    between atoms: C_16  and  C_17 
REMARK       I    between atoms: C_17  and  N_18 
REMARK    5  A    between atoms: N_18  and  C_19 
REMARK    6  A    between atoms: C_22  and  S_23 
REMARK    7  A    between atoms: S_23  and  N_24 
REMARK    8  A    between atoms: N_24  and  C_25 
ROOT
HETATM    1  C   UNL     1      41.802 -13.549   3.427  1.00  0.00     0.222 C 
HETATM    2  N   UNL     1      40.743 -14.085   2.716  1.00  0.00    -0.327 N 
HETATM    3  O   UNL     1      42.847 -13.106   2.959  1.00  0.00    -0.273 OA
HETATM    4  H   UNL     1      39.945 -14.405   3.250  1.00  0.00     0.169 HD
ENDROOT
BRANCH   1   5
HETATM    5  C   UNL     1      41.579 -13.538   4.930  1.00  0.00     0.108 C 
BRANCH   5   6
HETATM    6  C   UNL     1      41.227 -14.926   5.454  1.00  0.00     0.055 C 
BRANCH   6   7
HETATM    7  C   UNL     1      42.296 -15.967   5.409  1.00  0.00     0.030 A 
HETATM    8  C   UNL     1      43.457 -16.203   6.046  1.00  0.00     0.014 A 
HETATM    9  C   UNL     1      44.111 -15.392   7.114  1.00  0.00     0.064 C 
HETATM   10  N   UNL     1      44.096 -17.350   5.587  1.00  0.00    -0.199 NA
HETATM   11  N   UNL     1      43.320 -17.856   4.539  1.00  0.00    -0.238 N 
HETATM   12  H   UNL     1      45.061 -17.154   5.309  1.00  0.00     0.153 HD
HETATM   13  C   UNL     1      42.181 -17.068   4.396  1.00  0.00     0.270 A 
HETATM   14  O   UNL     1      41.232 -17.170   3.636  1.00  0.00    -0.266 OA
BRANCH  11  15
HETATM   15  C   UNL     1      43.689 -19.040   3.867  1.00  0.00     0.055 A 
HETATM   16  C   UNL     1      43.339 -19.253   2.525  1.00  0.00     0.034 A 
HETATM   17  C   UNL     1      43.716 -20.426   1.860  1.00  0.00     0.044 A 
HETATM   18  C   UNL     1      44.444 -21.393   2.535  1.00  0.00     0.116 A 
HETATM   19  F   UNL     1      44.805 -22.515   1.899  1.00  0.00    -0.206 F 
HETATM   20  C   UNL     1      44.801 -21.213   3.864  1.00  0.00     0.044 A 
HETATM   21  C   UNL     1      44.422 -20.042   4.527  1.00  0.00     0.034 A 
ENDBRANCH  11  15
ENDBRANCH   6   7
ENDBRANCH   5   6
ENDBRANCH   1   5
BRANCH   2  22
HETATM   22  C   UNL     1      40.665 -14.289   1.322  1.00  0.00     0.034 A 
HETATM   23  C   UNL     1      41.419 -15.239   0.629  1.00  0.00     0.031 A 
HETATM   24  C   UNL     1      41.266 -15.400  -0.752  1.00  0.00     0.027 A 
HETATM   25  C   UNL     1      40.343 -14.612  -1.442  1.00  0.00     0.074 A 
HETATM   26  C   UNL     1      39.600 -13.641  -0.771  1.00  0.00     0.027 A 
HETATM   27  C   UNL     1      39.763 -13.485   0.610  1.00  0.00     0.031 A 
BRANCH  25  28
HETATM   28  S   UNL     1      40.141 -14.829  -3.192  1.00  0.00     0.241 S 
HETATM   29  O   UNL     1      40.406 -16.218  -3.502  1.00  0.00    -0.206 OA
HETATM   30  O   UNL     1      38.912 -14.183  -3.597  1.00  0.00    -0.206 OA
BRANCH  28  31
HETATM   31  N   UNL     1      41.466 -13.953  -3.778  1.00  0.00    -0.211 NA
HETATM   32  H   UNL     1      41.719 -14.281  -4.712  1.00  0.00     0.140 HD
BRANCH  31  33
HETATM   33  C   UNL     1      41.438 -12.507  -3.575  1.00  0.00     0.071 A 
HETATM   34  C   UNL     1      42.540 -11.831  -2.807  1.00  0.00     0.022 A 
HETATM   35  C   UNL     1      42.395 -11.594  -4.283  1.00  0.00     0.022 A 
ENDBRANCH  31  33
ENDBRANCH  28  31
ENDBRANCH  25  28
ENDBRANCH   2  22
TORSDOF 8
ENDMDL
MODEL 3
REMARK VINA RESULT:      -8.6      6.748      9.926
REMARK  8 active torsions:
REMARK  status: ('A' for Active; 'I' for Inactive)
REMARK    1  A    between atoms: N_4  and  C_5 
REMARK    2  A    between atoms: C_14  and  C_15 
REMARK    3  A    between atoms: C_15  and  C_16 
REMARK    4  A    between atoms: C_16  and  C_17 
REMARK       I    between atoms: C_17  and  N_18 
REMARK    5  A    between atoms: N_18  and  C_19 
REMARK    6  A    between atoms: C_22  and  S_23 
REMARK    7  A    between atoms: S_23  and  N_24 
REMARK    8  A    between atoms: N_24  and  C_25 
ROOT
HETATM    1  C   UNL     1      45.223 -12.876   8.151  1.00  0.00     0.222 C 
HETATM    2  N   UNL     1      43.972 -12.629   8.689  1.00  0.00    -0.327 N 
HETATM    3  O   UNL     1      46.286 -12.386   8.519  1.00  0.00    -0.273 OA
HETATM    4  H   UNL     1      43.188 -13.117   8.274  1.00  0.00     0.169 HD
ENDROOT
BRANCH   1   5
HETATM    5  C   UNL     1      45.202 -13.862   6.996  1.00  0.00     0.108 C 
BRANCH   5   6
HETATM    6  C   UNL     1      44.227 -15.006   7.254  1.00  0.00     0.055 C 
BRANCH   6   7
HETATM    7  C   UNL     1      43.753 -15.784   6.072  1.00  0.00     0.030 A 
HETATM    8  C   UNL     1      42.829 -15.629   5.107  1.00  0.00     0.014 A 
HETATM    9  C   UNL     1      41.875 -14.499   4.909  1.00  0.00     0.064 C 
HETATM   10  N   UNL     1      42.787 -16.705   4.227  1.00  0.00    -0.199 NA
HETATM   11  N   UNL     1      43.710 -17.648   4.694  1.00  0.00    -0.238 N 
HETATM   12  H   UNL     1      41.840 -17.083   4.145  1.00  0.00     0.153 HD
HETATM   13  C   UNL     1      44.362 -17.130   5.810  1.00  0.00     0.270 A 
HETATM   14  O   UNL     1      45.253 -17.598   6.499  1.00  0.00    -0.266 OA
BRANCH  11  15
HETATM   15  C   UNL     1      43.925 -18.858   4.002  1.00  0.00     0.055 A 
HETATM   16  C   UNL     1      44.540 -19.953   4.629  1.00  0.00     0.034 A 
HETATM   17  C   UNL     1      44.743 -21.155   3.942  1.00  0.00     0.044 A 
HETATM   18  C   UNL     1      44.334 -21.268   2.622  1.00  0.00     0.116 A 
HETATM   19  F   UNL     1      44.527 -22.419   1.964  1.00  0.00    -0.206 F 
HETATM   20  C   UNL     1      43.727 -20.202   1.974  1.00  0.00     0.044 A 
HETATM   21  C   UNL     1      43.527 -19.000   2.661  1.00  0.00     0.034 A 
ENDBRANCH  11  15
ENDBRANCH   6   7
ENDBRANCH   5   6
ENDBRANCH   1   5
BRANCH   2  22
HETATM   22  C   UNL     1      43.649 -11.726   9.724  1.00  0.00     0.034 A 
HETATM   23  C   UNL     1      44.197 -11.782  11.008  1.00  0.00     0.031 A 
HETATM   24  C   UNL     1      43.846 -10.834  11.973  1.00  0.00     0.027 A 
HETATM   25  C   UNL     1      42.949  -9.815  11.649  1.00  0.00     0.074 A 
HETATM   26  C   UNL     1      42.373  -9.757  10.380  1.00  0.00     0.027 A 
HETATM   27  C   UNL     1      42.727 -10.713   9.421  1.00  0.00     0.031 A 
BRANCH  25  28
HETATM   28  S   UNL     1      42.517  -8.604  12.873  1.00  0.00     0.241 S 
HETATM   29  O   UNL     1      43.219  -8.935  14.094  1.00  0.00    -0.206 OA
HETATM   30  O   UNL     1      42.613  -7.291  12.274  1.00  0.00    -0.206 OA
BRANCH  28  31
HETATM   31  N   UNL     1      40.891  -8.989  13.144  1.00  0.00    -0.211 NA
HETATM   32  H   UNL     1      40.769  -9.357  14.088  1.00  0.00     0.140 HD
BRANCH  31  33
HETATM   33  C   UNL     1      39.901  -8.019  12.684  1.00  0.00     0.071 A 
HETATM   34  C   UNL     1      38.998  -8.349  11.528  1.00  0.00     0.022 A 
HETATM   35  C   UNL     1      38.432  -8.222  12.913  1.00  0.00     0.022 A 
ENDBRANCH  31  33
ENDBRANCH  28  31
ENDBRANCH  25  28
ENDBRANCH   2  22
TORSDOF 8
ENDMDL
MODEL 4
REMARK VINA RESULT:      -8.6      1.683      2.508
REMARK  8 active torsions:
REMARK  status: ('A' for Active; 'I' for Inactive)
REMARK    1  A    between atoms: N_4  and  C_5 
REMARK    2  A    between atoms: C_14  and  C_15 
REMARK    3  A    between atoms: C_15  and  C_16 
REMARK    4  A    between atoms: C_16  and  C_17 
REMARK       I    between atoms: C_17  and  N_18 
REMARK    5  A    between atoms: N_18  and  C_19 
REMARK    6  A    between atoms: C_22  and  S_23 
REMARK    7  A    between atoms: S_23  and  N_24 
REMARK    8  A    between atoms: N_24  and  C_25 
ROOT
HETATM    1  C   UNL     1      41.780 -13.530   3.751  1.00  0.00     0.222 C 
HETATM    2  N   UNL     1      40.814 -13.871   2.820  1.00  0.00    -0.327 N 
HETATM    3  O   UNL     1      42.945 -13.223   3.516  1.00  0.00    -0.273 OA
HETATM    4  H   UNL     1      39.893 -14.097   3.175  1.00  0.00     0.169 HD
ENDROOT
BRANCH   1   5
HETATM    5  C   UNL     1      41.277 -13.559   5.184  1.00  0.00     0.108 C 
BRANCH   5   6
HETATM    6  C   UNL     1      40.983 -14.983   5.645  1.00  0.00     0.055 C 
BRANCH   6   7
HETATM    7  C   UNL     1      42.089 -15.979   5.543  1.00  0.00     0.030 A 
HETATM    8  C   UNL     1      43.270 -16.194   6.152  1.00  0.00     0.014 A 
HETATM    9  C   UNL     1      43.912 -15.399   7.238  1.00  0.00     0.064 C 
HETATM   10  N   UNL     1      43.943 -17.298   5.640  1.00  0.00    -0.199 NA
HETATM   11  N   UNL     1      43.168 -17.794   4.586  1.00  0.00    -0.238 N 
HETATM   12  H   UNL     1      44.894 -17.055   5.352  1.00  0.00     0.153 HD
HETATM   13  C   UNL     1      41.997 -17.046   4.492  1.00  0.00     0.270 A 
HETATM   14  O   UNL     1      41.040 -17.156   3.745  1.00  0.00    -0.266 OA
BRANCH  11  15
HETATM   15  C   UNL     1      43.569 -18.938   3.864  1.00  0.00     0.055 A 
HETATM   16  C   UNL     1      43.161 -19.139   2.536  1.00  0.00     0.034 A 
HETATM   17  C   UNL     1      43.569 -20.271   1.821  1.00  0.00     0.044 A 
HETATM   18  C   UNL     1      44.387 -21.209   2.431  1.00  0.00     0.116 A 
HETATM   19  F   UNL     1      44.779 -22.292   1.746  1.00  0.00    -0.206 F 
HETATM   20  C   UNL     1      44.804 -21.040   3.744  1.00  0.00     0.044 A 
HETATM   21  C   UNL     1      44.393 -19.910   4.458  1.00  0.00     0.034 A 
ENDBRANCH  11  15
ENDBRANCH   6   7
ENDBRANCH   5   6
ENDBRANCH   1   5
BRANCH   2  22
HETATM   22  C   UNL     1      40.977 -13.994   1.424  1.00  0.00     0.034 A 
HETATM   23  C   UNL     1      41.309 -15.188   0.779  1.00  0.00     0.031 A 
HETATM   24  C   UNL     1      41.427 -15.236  -0.613  1.00  0.00     0.027 A 
HETATM   25  C   UNL     1      41.200 -14.084  -1.367  1.00  0.00     0.074 A 
HETATM   26  C   UNL     1      40.893 -12.877  -0.739  1.00  0.00     0.027 A 
HETATM   27  C   UNL     1      40.781 -12.838   0.655  1.00  0.00     0.031 A 
BRANCH  25  28
HETATM   28  S   UNL     1      41.337 -14.152  -3.135  1.00  0.00     0.241 S 
HETATM   29  O   UNL     1      42.083 -12.990  -3.569  1.00  0.00    -0.206 OA
HETATM   30  O   UNL     1      41.729 -15.491  -3.515  1.00  0.00    -0.206 OA
BRANCH  28  31
HETATM   31  N   UNL     1      39.729 -13.879  -3.591  1.00  0.00    -0.211 NA
HETATM   32  H   UNL     1      39.686 -13.574  -4.564  1.00  0.00     0.140 HD
BRANCH  31  33
HETATM   33  C   UNL     1      38.749 -14.877  -3.171  1.00  0.00     0.071 A 
HETATM   34  C   UNL     1      37.438 -15.001  -3.896  1.00  0.00     0.022 A 
HETATM   35  C   UNL     1      38.462 -16.095  -3.998  1.00  0.00     0.022 A 
ENDBRANCH  31  33
ENDBRANCH  28  31
ENDBRANCH  25  28
ENDBRANCH   2  22
TORSDOF 8
ENDMDL
MODEL 5
REMARK VINA RESULT:      -7.9      3.787      5.319
REMARK  8 active torsions:
REMARK  status: ('A' for Active; 'I' for Inactive)
REMARK    1  A    between atoms: N_4  and  C_5 
REMARK    2  A    between atoms: C_14  and  C_15 
REMARK    3  A    between atoms: C_15  and  C_16 
REMARK    4  A    between atoms: C_16  and  C_17 
REMARK       I    between atoms: C_17  and  N_18 
REMARK    5  A    between atoms: N_18  and  C_19 
REMARK    6  A    between atoms: C_22  and  S_23 
REMARK    7  A    between atoms: S_23  and  N_24 
REMARK    8  A    between atoms: N_24  and  C_25 
ROOT
HETATM    1  C   UNL     1      40.549 -13.685  -1.381  1.00  0.00     0.222 C 
HETATM    2  N   UNL     1      39.357 -14.372  -1.526  1.00  0.00    -0.327 N 
HETATM    3  O   UNL     1      40.933 -12.737  -2.059  1.00  0.00    -0.273 OA
HETATM    4  H   UNL     1      39.184 -15.134  -0.882  1.00  0.00     0.169 HD
ENDROOT
BRANCH   1   5
HETATM    5  C   UNL     1      41.418 -14.211  -0.251  1.00  0.00     0.108 C 
BRANCH   5   6
HETATM    6  C   UNL     1      41.605 -15.722  -0.345  1.00  0.00     0.055 C 
BRANCH   6   7
HETATM    7  C   UNL     1      41.615 -16.492   0.933  1.00  0.00     0.030 A 
HETATM    8  C   UNL     1      40.839 -16.578   2.028  1.00  0.00     0.014 A 
HETATM    9  C   UNL     1      39.584 -15.833   2.337  1.00  0.00     0.064 C 
HETATM   10  N   UNL     1      41.336 -17.474   2.969  1.00  0.00    -0.199 NA
HETATM   11  N   UNL     1      42.552 -17.954   2.469  1.00  0.00    -0.238 N 
HETATM   12  H   UNL     1      41.430 -17.036   3.888  1.00  0.00     0.153 HD
HETATM   13  C   UNL     1      42.768 -17.412   1.205  1.00  0.00     0.270 A 
HETATM   14  O   UNL     1      43.676 -17.587   0.409  1.00  0.00    -0.266 OA
BRANCH  11  15
HETATM   15  C   UNL     1      43.305 -18.909   3.184  1.00  0.00     0.055 A 
HETATM   16  C   UNL     1      43.587 -18.738   4.549  1.00  0.00     0.034 A 
HETATM   17  C   UNL     1      44.326 -19.692   5.256  1.00  0.00     0.044 A 
HETATM   18  C   UNL     1      44.789 -20.823   4.603  1.00  0.00     0.116 A 
HETATM   19  F   UNL     1      45.497 -21.737   5.280  1.00  0.00    -0.206 F 
HETATM   20  C   UNL     1      44.531 -21.019   3.253  1.00  0.00     0.044 A 
HETATM   21  C   UNL     1      43.794 -20.063   2.547  1.00  0.00     0.034 A 
ENDBRANCH  11  15
ENDBRANCH   6   7
ENDBRANCH   5   6
ENDBRANCH   1   5
BRANCH   2  22
HETATM   22  C   UNL     1      38.367 -14.169  -2.510  1.00  0.00     0.034 A 
HETATM   23  C   UNL     1      37.977 -15.138  -3.437  1.00  0.00     0.031 A 
HETATM   24  C   UNL     1      36.968 -14.870  -4.366  1.00  0.00     0.027 A 
HETATM   25  C   UNL     1      36.335 -13.626  -4.360  1.00  0.00     0.074 A 
HETATM   26  C   UNL     1      36.728 -12.637  -3.458  1.00  0.00     0.027 A 
HETATM   27  C   UNL     1      37.742 -12.913  -2.535  1.00  0.00     0.031 A 
BRANCH  25  28
HETATM   28  S   UNL     1      35.044 -13.293  -5.532  1.00  0.00     0.241 S 
HETATM   29  O   UNL     1      35.106 -11.889  -5.876  1.00  0.00    -0.206 OA
HETATM   30  O   UNL     1      35.065 -14.324  -6.546  1.00  0.00    -0.206 OA
BRANCH  28  31
HETATM   31  N   UNL     1      33.672 -13.480  -4.557  1.00  0.00    -0.211 NA
HETATM   32  H   UNL     1      33.889 -14.072  -3.754  1.00  0.00     0.140 HD
BRANCH  31  33
HETATM   33  C   UNL     1      32.884 -12.279  -4.294  1.00  0.00     0.071 A 
HETATM   34  C   UNL     1      31.784 -12.306  -3.270  1.00  0.00     0.022 A 
HETATM   35  C   UNL     1      33.030 -11.505  -3.017  1.00  0.00     0.022 A 
ENDBRANCH  31  33
ENDBRANCH  28  31
ENDBRANCH  25  28
ENDBRANCH   2  22
TORSDOF 8
ENDMDL
MODEL 6
REMARK VINA RESULT:      -7.8      5.499      8.501
REMARK  8 active torsions:
REMARK  status: ('A' for Active; 'I' for Inactive)
REMARK    1  A    between atoms: N_4  and  C_5 
REMARK    2  A    between atoms: C_14  and  C_15 
REMARK    3  A    between atoms: C_15  and  C_16 
REMARK    4  A    between atoms: C_16  and  C_17 
REMARK       I    between atoms: C_17  and  N_18 
REMARK    5  A    between atoms: N_18  and  C_19 
REMARK    6  A    between atoms: C_22  and  S_23 
REMARK    7  A    between atoms: S_23  and  N_24 
REMARK    8  A    between atoms: N_24  and  C_25 
ROOT
HETATM    1  C   UNL     1      40.693 -12.125   4.781  1.00  0.00     0.222 C 
HETATM    2  N   UNL     1      41.009 -12.330   6.112  1.00  0.00    -0.327 N 
HETATM    3  O   UNL     1      40.214 -11.107   4.292  1.00  0.00    -0.273 OA
HETATM    4  H   UNL     1      41.404 -13.229   6.358  1.00  0.00     0.169 HD
ENDROOT
BRANCH   1   5
HETATM    5  C   UNL     1      40.996 -13.322   3.895  1.00  0.00     0.108 C 
BRANCH   5   6
HETATM    6  C   UNL     1      40.748 -14.637   4.626  1.00  0.00     0.055 C 
BRANCH   6   7
HETATM    7  C   UNL     1      41.886 -15.598   4.712  1.00  0.00     0.030 A 
HETATM    8  C   UNL     1      43.062 -15.664   5.361  1.00  0.00     0.014 A 
HETATM    9  C   UNL     1      43.663 -14.670   6.297  1.00  0.00     0.064 C 
HETATM   10  N   UNL     1      43.778 -16.818   5.058  1.00  0.00    -0.199 NA
HETATM   11  N   UNL     1      43.035 -17.516   4.100  1.00  0.00    -0.238 N 
HETATM   12  H   UNL     1      44.725 -16.597   4.742  1.00  0.00     0.153 HD
HETATM   13  C   UNL     1      41.843 -16.836   3.865  1.00  0.00     0.270 A 
HETATM   14  O   UNL     1      40.901 -17.107   3.138  1.00  0.00    -0.266 OA
BRANCH  11  15
HETATM   15  C   UNL     1      43.482 -18.755   3.595  1.00  0.00     0.055 A 
HETATM   16  C   UNL     1      44.329 -19.584   4.348  1.00  0.00     0.034 A 
HETATM   17  C   UNL     1      44.762 -20.816   3.847  1.00  0.00     0.044 A 
HETATM   18  C   UNL     1      44.352 -21.227   2.588  1.00  0.00     0.116 A 
HETATM   19  F   UNL     1      44.766 -22.408   2.109  1.00  0.00    -0.206 F 
HETATM   20  C   UNL     1      43.519 -20.429   1.818  1.00  0.00     0.044 A 
HETATM   21  C   UNL     1      43.089 -19.196   2.319  1.00  0.00     0.034 A 
ENDBRANCH  11  15
ENDBRANCH   6   7
ENDBRANCH   5   6
ENDBRANCH   1   5
BRANCH   2  22
HETATM   22  C   UNL     1      40.796 -11.443   7.188  1.00  0.00     0.034 A 
HETATM   23  C   UNL     1      39.577 -11.305   7.857  1.00  0.00     0.031 A 
HETATM   24  C   UNL     1      39.452 -10.421   8.933  1.00  0.00     0.027 A 
HETATM   25  C   UNL     1      40.557  -9.679   9.351  1.00  0.00     0.074 A 
HETATM   26  C   UNL     1      41.775  -9.785   8.680  1.00  0.00     0.027 A 
HETATM   27  C   UNL     1      41.890 -10.668   7.602  1.00  0.00     0.031 A 
BRANCH  25  28
HETATM   28  S   UNL     1      40.398  -8.569  10.728  1.00  0.00     0.241 S 
HETATM   29  O   UNL     1      41.214  -7.405  10.457  1.00  0.00    -0.206 OA
HETATM   30  O   UNL     1      38.997  -8.452  11.065  1.00  0.00    -0.206 OA
BRANCH  28  31
HETATM   31  N   UNL     1      41.204  -9.440  11.935  1.00  0.00    -0.211 NA
HETATM   32  H   UNL     1      41.026 -10.440  11.827  1.00  0.00     0.140 HD
BRANCH  31  33
HETATM   33  C   UNL     1      42.580  -9.046  12.223  1.00  0.00     0.071 A 
HETATM   34  C   UNL     1      43.253  -9.512  13.484  1.00  0.00     0.022 A 
HETATM   35  C   UNL     1      43.713 -10.027  12.150  1.00  0.00     0.022 A 
ENDBRANCH  31  33
ENDBRANCH  28  31
ENDBRANCH  25  28
ENDBRANCH   2  22
TORSDOF 8
ENDMDL
MODEL 7
REMARK VINA RESULT:      -7.7      5.299      8.327
REMARK  8 active torsions:
REMARK  status: ('A' for Active; 'I' for Inactive)
REMARK    1  A    between atoms: N_4  and  C_5 
REMARK    2  A    between atoms: C_14  and  C_15 
REMARK    3  A    between atoms: C_15  and  C_16 
REMARK    4  A    between atoms: C_16  and  C_17 
REMARK       I    between atoms: C_17  and  N_18 
REMARK    5  A    between atoms: N_18  and  C_19 
REMARK    6  A    between atoms: C_22  and  S_23 
REMARK    7  A    between atoms: S_23  and  N_24 
REMARK    8  A    between atoms: N_24  and  C_25 
ROOT
HETATM    1  C   UNL     1      41.435 -13.446   5.369  1.00  0.00     0.222 C 
HETATM    2  N   UNL     1      40.609 -12.369   5.639  1.00  0.00    -0.327 N 
HETATM    3  O   UNL     1      42.233 -13.967   6.141  1.00  0.00    -0.273 OA
HETATM    4  H   UNL     1      40.000 -12.058   4.894  1.00  0.00     0.169 HD
ENDROOT
BRANCH   1   5
HETATM    5  C   UNL     1      41.283 -13.986   3.957  1.00  0.00     0.108 C 
BRANCH   5   6
HETATM    6  C   UNL     1      42.634 -14.345   3.346  1.00  0.00     0.055 C 
BRANCH   6   7
HETATM    7  C   UNL     1      42.743 -15.660   2.649  1.00  0.00     0.030 A 
HETATM    8  C   UNL     1      42.440 -16.150   1.433  1.00  0.00     0.014 A 
HETATM    9  C   UNL     1      41.818 -15.442   0.277  1.00  0.00     0.064 C 
HETATM   10  N   UNL     1      42.744 -17.501   1.309  1.00  0.00    -0.199 NA
HETATM   11  N   UNL     1      43.222 -17.926   2.553  1.00  0.00    -0.238 N 
HETATM   12  H   UNL     1      41.934 -18.038   0.990  1.00  0.00     0.153 HD
HETATM   13  C   UNL     1      43.276 -16.834   3.415  1.00  0.00     0.270 A 
HETATM   14  O   UNL     1      43.660 -16.750   4.571  1.00  0.00    -0.266 OA
BRANCH  11  15
HETATM   15  C   UNL     1      43.643 -19.258   2.754  1.00  0.00     0.055 A 
HETATM   16  C   UNL     1      43.385 -20.253   1.799  1.00  0.00     0.034 A 
HETATM   17  C   UNL     1      43.813 -21.570   1.997  1.00  0.00     0.044 A 
HETATM   18  C   UNL     1      44.501 -21.900   3.154  1.00  0.00     0.116 A 
HETATM   19  F   UNL     1      44.912 -23.161   3.345  1.00  0.00    -0.206 F 
HETATM   20  C   UNL     1      44.768 -20.939   4.119  1.00  0.00     0.044 A 
HETATM   21  C   UNL     1      44.338 -19.624   3.920  1.00  0.00     0.034 A 
ENDBRANCH  11  15
ENDBRANCH   6   7
ENDBRANCH   5   6
ENDBRANCH   1   5
BRANCH   2  22
HETATM   22  C   UNL     1      40.553 -11.613   6.829  1.00  0.00     0.034 A 
HETATM   23  C   UNL     1      41.555 -10.729   7.240  1.00  0.00     0.031 A 
HETATM   24  C   UNL     1      41.415  -9.994   8.421  1.00  0.00     0.027 A 
HETATM   25  C   UNL     1      40.259 -10.134   9.190  1.00  0.00     0.074 A 
HETATM   26  C   UNL     1      39.259 -11.030   8.808  1.00  0.00     0.027 A 
HETATM   27  C   UNL     1      39.410 -11.765   7.628  1.00  0.00     0.031 A 
BRANCH  25  28
HETATM   28  S   UNL     1      40.077  -9.188  10.681  1.00  0.00     0.241 S 
HETATM   29  O   UNL     1      40.646  -7.878  10.448  1.00  0.00    -0.206 OA
HETATM   30  O   UNL     1      38.726  -9.353  11.169  1.00  0.00    -0.206 OA
BRANCH  28  31
HETATM   31  N   UNL     1      41.155  -9.996  11.706  1.00  0.00    -0.211 NA
HETATM   32  H   UNL     1      41.170 -10.993  11.486  1.00  0.00     0.140 HD
BRANCH  31  33
HETATM   33  C   UNL     1      42.448  -9.355  11.936  1.00  0.00     0.071 A 
HETATM   34  C   UNL     1      43.437  -9.969  12.887  1.00  0.00     0.022 A 
HETATM   35  C   UNL     1      43.724  -9.945  11.413  1.00  0.00     0.022 A 
ENDBRANCH  31  33
ENDBRANCH  28  31
ENDBRANCH  25  28
ENDBRANCH   2  22
TORSDOF 8
ENDMDL
MODEL 8
REMARK VINA RESULT:      -7.6      4.002      4.930
REMARK  8 active torsions:
REMARK  status: ('A' for Active; 'I' for Inactive)
REMARK    1  A    between atoms: N_4  and  C_5 
REMARK    2  A    between atoms: C_14  and  C_15 
REMARK    3  A    between atoms: C_15  and  C_16 
REMARK    4  A    between atoms: C_16  and  C_17 
REMARK       I    between atoms: C_17  and  N_18 
REMARK    5  A    between atoms: N_18  and  C_19 
REMARK    6  A    between atoms: C_22  and  S_23 
REMARK    7  A    between atoms: S_23  and  N_24 
REMARK    8  A    between atoms: N_24  and  C_25 
ROOT
HETATM    1  C   UNL     1      39.519 -14.286  -0.471  1.00  0.00     0.222 C 
HETATM    2  N   UNL     1      39.469 -14.384  -1.850  1.00  0.00    -0.327 N 
HETATM    3  O   UNL     1      38.619 -13.898   0.268  1.00  0.00    -0.273 OA
HETATM    4  H   UNL     1      40.298 -14.729  -2.317  1.00  0.00     0.169 HD
ENDROOT
BRANCH   1   5
HETATM    5  C   UNL     1      40.850 -14.721   0.119  1.00  0.00     0.108 C 
BRANCH   5   6
HETATM    6  C   UNL     1      40.694 -15.205   1.557  1.00  0.00     0.055 C 
BRANCH   6   7
HETATM    7  C   UNL     1      41.832 -15.964   2.153  1.00  0.00     0.030 A 
HETATM    8  C   UNL     1      42.960 -15.667   2.823  1.00  0.00     0.014 A 
HETATM    9  C   UNL     1      43.481 -14.324   3.214  1.00  0.00     0.064 C 
HETATM   10  N   UNL     1      43.707 -16.795   3.142  1.00  0.00    -0.199 NA
HETATM   11  N   UNL     1      43.042 -17.893   2.585  1.00  0.00    -0.238 N 
HETATM   12  H   UNL     1      44.672 -16.709   2.816  1.00  0.00     0.153 HD
HETATM   13  C   UNL     1      41.864 -17.454   1.987  1.00  0.00     0.270 A 
HETATM   14  O   UNL     1      40.979 -18.075   1.421  1.00  0.00    -0.266 OA
BRANCH  11  15
HETATM   15  C   UNL     1      43.537 -19.204   2.750  1.00  0.00     0.055 A 
HETATM   16  C   UNL     1      44.242 -19.573   3.907  1.00  0.00     0.034 A 
HETATM   17  C   UNL     1      44.723 -20.877   4.071  1.00  0.00     0.044 A 
HETATM   18  C   UNL     1      44.503 -21.819   3.078  1.00  0.00     0.116 A 
HETATM   19  F   UNL     1      44.962 -23.068   3.236  1.00  0.00    -0.206 F 
HETATM   20  C   UNL     1      43.814 -21.483   1.922  1.00  0.00     0.044 A 
HETATM   21  C   UNL     1      43.336 -20.180   1.758  1.00  0.00     0.034 A 
ENDBRANCH  11  15
ENDBRANCH   6   7
ENDBRANCH   5   6
ENDBRANCH   1   5
BRANCH   2  22
HETATM   22  C   UNL     1      38.405 -14.006  -2.696  1.00  0.00     0.034 A 
HETATM   23  C   UNL     1      38.032 -12.681  -2.938  1.00  0.00     0.031 A 
HETATM   24  C   UNL     1      36.981 -12.385  -3.811  1.00  0.00     0.027 A 
HETATM   25  C   UNL     1      36.305 -13.422  -4.456  1.00  0.00     0.074 A 
HETATM   26  C   UNL     1      36.646 -14.751  -4.207  1.00  0.00     0.027 A 
HETATM   27  C   UNL     1      37.696 -15.038  -3.329  1.00  0.00     0.031 A 
BRANCH  25  28
HETATM   28  S   UNL     1      34.981 -13.042  -5.575  1.00  0.00     0.241 S 
HETATM   29  O   UNL     1      33.732 -13.275  -4.883  1.00  0.00    -0.206 OA
HETATM   30  O   UNL     1      35.268 -11.778  -6.216  1.00  0.00    -0.206 OA
BRANCH  28  31
HETATM   31  N   UNL     1      35.140 -14.299  -6.698  1.00  0.00    -0.211 NA
HETATM   32  H   UNL     1      34.347 -14.938  -6.627  1.00  0.00     0.140 HD
BRANCH  31  33
HETATM   33  C   UNL     1      35.564 -13.926  -8.045  1.00  0.00     0.071 A 
HETATM   34  C   UNL     1      35.898 -14.989  -9.054  1.00  0.00     0.022 A 
HETATM   35  C   UNL     1      34.676 -14.134  -9.236  1.00  0.00     0.022 A 
ENDBRANCH  31  33
ENDBRANCH  28  31
ENDBRANCH  25  28
ENDBRANCH   2  22
TORSDOF 8
ENDMDL
MODEL 9
REMARK VINA RESULT:      -7.6      4.525      7.623
REMARK  8 active torsions:
REMARK  status: ('A' for Active; 'I' for Inactive)
REMARK    1  A    between atoms: N_4  and  C_5 
REMARK    2  A    between atoms: C_14  and  C_15 
REMARK    3  A    between atoms: C_15  and  C_16 
REMARK    4  A    between atoms: C_16  and  C_17 
REMARK       I    between atoms: C_17  and  N_18 
REMARK    5  A    between atoms: N_18  and  C_19 
REMARK    6  A    between atoms: C_22  and  S_23 
REMARK    7  A    between atoms: S_23  and  N_24 
REMARK    8  A    between atoms: N_24  and  C_25 
ROOT
HETATM    1  C   UNL     1      40.183 -12.459   3.012  1.00  0.00     0.222 C 
HETATM    2  N   UNL     1      40.226 -13.050   4.262  1.00  0.00    -0.327 N 
HETATM    3  O   UNL     1      40.340 -11.268   2.760  1.00  0.00    -0.273 OA
HETATM    4  H   UNL     1      40.081 -14.051   4.304  1.00  0.00     0.169 HD
ENDROOT
BRANCH   1   5
HETATM    5  C   UNL     1      39.912 -13.443   1.886  1.00  0.00     0.108 C 
BRANCH   5   6
HETATM    6  C   UNL     1      39.747 -14.865   2.413  1.00  0.00     0.055 C 
BRANCH   6   7
HETATM    7  C   UNL     1      40.795 -15.860   2.040  1.00  0.00     0.030 A 
HETATM    8  C   UNL     1      41.406 -16.258   0.909  1.00  0.00     0.014 A 
HETATM    9  C   UNL     1      41.187 -15.772  -0.484  1.00  0.00     0.064 C 
HETATM   10  N   UNL     1      42.330 -17.274   1.129  1.00  0.00    -0.199 NA
HETATM   11  N   UNL     1      42.266 -17.594   2.490  1.00  0.00    -0.238 N 
HETATM   12  H   UNL     1      42.151 -18.079   0.523  1.00  0.00     0.153 HD
HETATM   13  C   UNL     1      41.363 -16.740   3.115  1.00  0.00     0.270 A 
HETATM   14  O   UNL     1      41.032 -16.649   4.285  1.00  0.00    -0.266 OA
BRANCH  11  15
HETATM   15  C   UNL     1      43.106 -18.584   3.044  1.00  0.00     0.055 A 
HETATM   16  C   UNL     1      43.558 -18.493   4.369  1.00  0.00     0.034 A 
HETATM   17  C   UNL     1      44.382 -19.482   4.918  1.00  0.00     0.044 A 
HETATM   18  C   UNL     1      44.761 -20.567   4.142  1.00  0.00     0.116 A 
HETATM   19  F   UNL     1      45.549 -21.514   4.667  1.00  0.00    -0.206 F 
HETATM   20  C   UNL     1      44.333 -20.682   2.827  1.00  0.00     0.044 A 
HETATM   21  C   UNL     1      43.511 -19.692   2.280  1.00  0.00     0.034 A 
ENDBRANCH  11  15
ENDBRANCH   6   7
ENDBRANCH   5   6
ENDBRANCH   1   5
BRANCH   2  22
HETATM   22  C   UNL     1      40.399 -12.407   5.506  1.00  0.00     0.034 A 
HETATM   23  C   UNL     1      41.529 -11.661   5.850  1.00  0.00     0.031 A 
HETATM   24  C   UNL     1      41.615 -11.031   7.094  1.00  0.00     0.027 A 
HETATM   25  C   UNL     1      40.557 -11.137   7.998  1.00  0.00     0.074 A 
HETATM   26  C   UNL     1      39.431 -11.898   7.683  1.00  0.00     0.027 A 
HETATM   27  C   UNL     1      39.356 -12.529   6.437  1.00  0.00     0.031 A 
BRANCH  25  28
HETATM   28  S   UNL     1      40.663 -10.324   9.572  1.00  0.00     0.241 S 
HETATM   29  O   UNL     1      40.088  -9.003   9.430  1.00  0.00    -0.206 OA
HETATM   30  O   UNL     1      40.212 -11.241  10.596  1.00  0.00    -0.206 OA
BRANCH  28  31
HETATM   31  N   UNL     1      42.336 -10.099   9.704  1.00  0.00    -0.211 NA
HETATM   32  H   UNL     1      42.567  -9.110   9.606  1.00  0.00     0.140 HD
BRANCH  31  33
HETATM   33  C   UNL     1      43.014 -10.829  10.773  1.00  0.00     0.071 A 
HETATM   34  C   UNL     1      44.514 -10.816  10.863  1.00  0.00     0.022 A 
HETATM   35  C   UNL     1      43.690 -10.117  11.907  1.00  0.00     0.022 A 
ENDBRANCH  31  33
ENDBRANCH  28  31
ENDBRANCH  25  28
ENDBRANCH   2  22
TORSDOF 8
ENDMDL
MODEL 10
REMARK VINA RESULT:      -7.5      4.095      9.029
REMARK  8 active torsions:
REMARK  status: ('A' for Active; 'I' for Inactive)
REMARK    1  A    between atoms: N_4  and  C_5 
REMARK    2  A    between atoms: C_14  and  C_15 
REMARK    3  A    between atoms: C_15  and  C_16 
REMARK    4  A    between atoms: C_16  and  C_17 
REMARK       I    between atoms: C_17  and  N_18 
REMARK    5  A    between atoms: N_18  and  C_19 
REMARK    6  A    between atoms: C_22  and  S_23 
REMARK    7  A    between atoms: S_23  and  N_24 
REMARK    8  A    between atoms: N_24  and  C_25 
ROOT
HETATM    1  C   UNL     1      39.906 -15.750   2.135  1.00  0.00     0.222 C 
HETATM    2  N   UNL     1      40.240 -15.656   3.475  1.00  0.00    -0.327 N 
HETATM    3  O   UNL     1      40.394 -16.519   1.313  1.00  0.00    -0.273 OA
HETATM    4  H   UNL     1      39.740 -14.969   4.026  1.00  0.00     0.169 HD
ENDROOT
BRANCH   1   5
HETATM    5  C   UNL     1      38.821 -14.775   1.711  1.00  0.00     0.108 C 
BRANCH   5   6
HETATM    6  C   UNL     1      39.243 -13.328   1.949  1.00  0.00     0.055 C 
BRANCH   6   7
HETATM    7  C   UNL     1      40.427 -12.827   1.191  1.00  0.00     0.030 A 
HETATM    8  C   UNL     1      41.746 -12.691   1.418  1.00  0.00     0.014 A 
HETATM    9  C   UNL     1      42.517 -13.034   2.648  1.00  0.00     0.064 C 
HETATM   10  N   UNL     1      42.420 -12.128   0.339  1.00  0.00    -0.199 NA
HETATM   11  N   UNL     1      41.456 -11.825  -0.628  1.00  0.00    -0.238 N 
HETATM   12  H   UNL     1      42.966 -11.312   0.625  1.00  0.00     0.153 HD
HETATM   13  C   UNL     1      40.211 -12.257  -0.180  1.00  0.00     0.270 A 
HETATM   14  O   UNL     1      39.115 -12.223  -0.715  1.00  0.00    -0.266 OA
BRANCH  11  15
HETATM   15  C   UNL     1      41.822 -11.256  -1.866  1.00  0.00     0.055 A 
HETATM   16  C   UNL     1      42.080  -9.881  -1.986  1.00  0.00     0.034 A 
HETATM   17  C   UNL     1      42.453  -9.323  -3.214  1.00  0.00     0.044 A 
HETATM   18  C   UNL     1      42.569 -10.137  -4.330  1.00  0.00     0.116 A 
HETATM   19  F   UNL     1      42.927  -9.604  -5.506  1.00  0.00    -0.206 F 
HETATM   20  C   UNL     1      42.316 -11.499  -4.245  1.00  0.00     0.044 A 
HETATM   21  C   UNL     1      41.942 -12.055  -3.017  1.00  0.00     0.034 A 
ENDBRANCH  11  15
ENDBRANCH   6   7
ENDBRANCH   5   6
ENDBRANCH   1   5
BRANCH   2  22
HETATM   22  C   UNL     1      41.242 -16.375   4.159  1.00  0.00     0.034 A 
HETATM   23  C   UNL     1      42.514 -16.628   3.640  1.00  0.00     0.031 A 
HETATM   24  C   UNL     1      43.463 -17.328   4.391  1.00  0.00     0.027 A 
HETATM   25  C   UNL     1      43.142 -17.767   5.675  1.00  0.00     0.074 A 
HETATM   26  C   UNL     1      41.869 -17.546   6.201  1.00  0.00     0.027 A 
HETATM   27  C   UNL     1      40.924 -16.850   5.440  1.00  0.00     0.031 A 
BRANCH  25  28
HETATM   28  S   UNL     1      44.354 -18.642   6.632  1.00  0.00     0.241 S 
HETATM   29  O   UNL     1      45.664 -18.248   6.159  1.00  0.00    -0.206 OA
HETATM   30  O   UNL     1      43.993 -18.549   8.029  1.00  0.00    -0.206 OA
BRANCH  28  31
HETATM   31  N   UNL     1      44.111 -20.226   6.085  1.00  0.00    -0.211 NA
HETATM   32  H   UNL     1      43.115 -20.402   5.948  1.00  0.00     0.140 HD
BRANCH  31  33
HETATM   33  C   UNL     1      45.013 -20.706   5.041  1.00  0.00     0.071 A 
HETATM   34  C   UNL     1      44.809 -22.065   4.432  1.00  0.00     0.022 A 
HETATM   35  C   UNL     1      44.570 -20.829   3.613  1.00  0.00     0.022 A 
ENDBRANCH  31  33
ENDBRANCH  28  31
ENDBRANCH  25  28
ENDBRANCH   2  22
TORSDOF 8
ENDMDL
