MODEL 1
REMARK VINA RESULT:      -8.9      0.000      0.000
REMARK  10 active torsions:
REMARK  status: ('A' for Active; 'I' for Inactive)
REMARK    1  A    between atoms: C_6  and  N_7 
REMARK    2  A    between atoms: C_8  and  S_9 
REMARK    3  A    between atoms: S_9  and  C_10 
REMARK    4  A    between atoms: C_10  and  C_11 
REMARK       I    between atoms: C_11  and  N_12 
REMARK    5  A    between atoms: N_12  and  C_13 
REMARK    6  A    between atoms: C_13  and  C_14 
REMARK    7  A    between atoms: C_14  and  C_15 
REMARK    8  A    between atoms: C_17  and  O_18 
REMARK    9  A    between atoms: C_20  and  O_21 
REMARK   10  A    between atoms: C_29  and  N_30 
ROOT
HETATM    1  N   UNL     1      42.577 -16.786   3.482  1.00  0.00    -0.276 N 
HETATM    2  C   UNL     1      43.228 -16.574   4.729  1.00  0.00     0.177 A 
HETATM    3  N   UNL     1      44.026 -17.428   5.326  1.00  0.00    -0.204 NA
HETATM    4  C   UNL     1      44.226 -18.572   4.638  1.00  0.00     0.162 A 
HETATM    5  C   UNL     1      43.701 -18.964   3.438  1.00  0.00     0.081 A 
HETATM    6  C   UNL     1      42.797 -18.056   2.799  1.00  0.00     0.124 A 
HETATM    7  N   UNL     1      45.042 -19.593   5.025  1.00  0.00    -0.260 N 
HETATM    8  H   UNL     1      45.609 -19.653   5.864  1.00  0.00     0.191 HD
HETATM    9  N   UNL     1      45.065 -20.615   4.142  1.00  0.00    -0.177 NA
HETATM   10  C   UNL     1      44.242 -20.227   3.154  1.00  0.00     0.068 A 
HETATM   11  C   UNL     1      44.036 -21.118   1.988  1.00  0.00     0.073 C 
ENDROOT
BRANCH   2  12
HETATM   12  S   UNL     1      42.997 -15.037   5.597  1.00  0.00    -0.082 SA
BRANCH  12  13
HETATM   13  C   UNL     1      44.205 -15.217   6.938  1.00  0.00     0.185 C 
BRANCH  13  14
HETATM   14  C   UNL     1      44.897 -13.899   7.252  1.00  0.00     0.227 C 
HETATM   15  N   UNL     1      44.435 -13.287   8.402  1.00  0.00    -0.360 N 
HETATM   16  H   UNL     1      43.641 -13.670   8.899  1.00  0.00     0.162 HD
HETATM   17  O   UNL     1      45.822 -13.444   6.585  1.00  0.00    -0.273 OA
BRANCH  15  18
HETATM   18  C   UNL     1      45.064 -12.098   8.948  1.00  0.00     0.127 C 
BRANCH  18  19
HETATM   19  C   UNL     1      44.911 -11.983  10.466  1.00  0.00     0.058 C 
BRANCH  19  20
HETATM   20  C   UNL     1      43.842 -10.979  10.828  1.00  0.00    -0.054 A 
HETATM   21  C   UNL     1      42.744 -10.775   9.978  1.00  0.00     0.046 A 
HETATM   22  C   UNL     1      41.771  -9.813  10.279  1.00  0.00     0.102 A 
HETATM   23  C   UNL     1      41.897  -9.039  11.450  1.00  0.00     0.101 A 
HETATM   24  C   UNL     1      42.989  -9.246  12.298  1.00  0.00     0.040 A 
HETATM   25  C   UNL     1      43.955 -10.208  11.988  1.00  0.00     0.010 A 
BRANCH  22  26
HETATM   26  O   UNL     1      40.674  -9.547   9.496  1.00  0.00    -0.353 OA
HETATM   27  C   UNL     1      40.033 -10.644   8.863  1.00  0.00     0.210 C 
ENDBRANCH  22  26
BRANCH  23  28
HETATM   28  O   UNL     1      40.907  -8.113  11.671  1.00  0.00    -0.353 OA
HETATM   29  C   UNL     1      40.591  -7.791  13.018  1.00  0.00     0.210 C 
ENDBRANCH  23  28
ENDBRANCH  19  20
ENDBRANCH  18  19
ENDBRANCH  15  18
ENDBRANCH  13  14
ENDBRANCH  12  13
ENDBRANCH   2  12
BRANCH   1  30
HETATM   30  C   UNL     1      41.748 -15.791   2.883  1.00  0.00     0.045 A 
HETATM   31  C   UNL     1      42.285 -14.812   2.039  1.00  0.00     0.054 A 
HETATM   32  C   UNL     1      41.475 -13.789   1.534  1.00  0.00     0.042 A 
HETATM   33  C   UNL     1      40.117 -13.712   1.876  1.00  0.00    -0.040 A 
HETATM   34 CL   UNL     1      42.213 -12.618   0.499  1.00  0.00    -0.084 Cl
HETATM   35  C   UNL     1      39.224 -12.621   1.353  1.00  0.00     0.050 C 
HETATM   36  C   UNL     1      39.581 -14.697   2.717  1.00  0.00     0.011 A 
HETATM   37  C   UNL     1      40.387 -15.723   3.217  1.00  0.00     0.031 A 
ENDBRANCH   1  30
BRANCH   6  38
HETATM   38  N   UNL     1      42.182 -18.385   1.679  1.00  0.00    -0.384 N 
HETATM   39  H   UNL     1      41.505 -17.777   1.242  1.00  0.00     0.157 HD
HETATM   40  H   UNL     1      42.407 -19.257   1.214  1.00  0.00     0.157 HD
ENDBRANCH   6  38
TORSDOF 10
ENDMDL
MODEL 2
REMARK VINA RESULT:      -8.6      2.625      5.164
REMARK  10 active torsions:
REMARK  status: ('A' for Active; 'I' for Inactive)
REMARK    1  A    between atoms: C_6  and  N_7 
REMARK    2  A    between atoms: C_8  and  S_9 
REMARK    3  A    between atoms: S_9  and  C_10 
REMARK    4  A    between atoms: C_10  and  C_11 
REMARK       I    between atoms: C_11  and  N_12 
REMARK    5  A    between atoms: N_12  and  C_13 
REMARK    6  A    between atoms: C_13  and  C_14 
REMARK    7  A    between atoms: C_14  and  C_15 
REMARK    8  A    between atoms: C_17  and  O_18 
REMARK    9  A    between atoms: C_20  and  O_21 
REMARK   10  A    between atoms: C_29  and  N_30 
ROOT
HETATM    1  N   UNL     1      41.651 -15.331   2.814  1.00  0.00    -0.276 N 
HETATM    2  C   UNL     1      42.127 -14.131   3.414  1.00  0.00     0.177 A 
HETATM    3  N   UNL     1      41.518 -12.969   3.380  1.00  0.00    -0.204 NA
HETATM    4  C   UNL     1      40.335 -12.985   2.730  1.00  0.00     0.162 A 
HETATM    5  C   UNL     1      39.708 -14.020   2.094  1.00  0.00     0.081 A 
HETATM    6  C   UNL     1      40.385 -15.281   2.090  1.00  0.00     0.124 A 
HETATM    7  N   UNL     1      39.495 -11.918   2.595  1.00  0.00    -0.260 N 
HETATM    8  H   UNL     1      39.623 -10.976   2.949  1.00  0.00     0.191 HD
HETATM    9  N   UNL     1      38.372 -12.214   1.906  1.00  0.00    -0.177 NA
HETATM   10  C   UNL     1      38.496 -13.516   1.600  1.00  0.00     0.068 A 
HETATM   11  C   UNL     1      37.415 -14.191   0.843  1.00  0.00     0.073 C 
ENDROOT
BRANCH   2  12
HETATM   12  S   UNL     1      43.662 -14.142   4.314  1.00  0.00    -0.082 SA
BRANCH  12  13
HETATM   13  C   UNL     1      43.078 -13.765   5.989  1.00  0.00     0.185 C 
BRANCH  13  14
HETATM   14  C   UNL     1      44.233 -13.647   6.973  1.00  0.00     0.227 C 
HETATM   15  N   UNL     1      44.043 -12.680   7.943  1.00  0.00    -0.360 N 
HETATM   16  H   UNL     1      43.239 -12.067   7.899  1.00  0.00     0.162 HD
HETATM   17  O   UNL     1      45.218 -14.380   6.953  1.00  0.00    -0.273 OA
BRANCH  15  18
HETATM   18  C   UNL     1      44.962 -12.513   9.054  1.00  0.00     0.127 C 
BRANCH  18  19
HETATM   19  C   UNL     1      44.928 -11.104   9.651  1.00  0.00     0.058 C 
BRANCH  19  20
HETATM   20  C   UNL     1      43.650 -10.873  10.422  1.00  0.00    -0.054 A 
HETATM   21  C   UNL     1      43.664 -10.847  11.825  1.00  0.00     0.046 A 
HETATM   22  C   UNL     1      42.478 -10.681  12.552  1.00  0.00     0.102 A 
HETATM   23  C   UNL     1      41.255 -10.540  11.866  1.00  0.00     0.101 A 
HETATM   24  C   UNL     1      41.244 -10.562  10.468  1.00  0.00     0.040 A 
HETATM   25  C   UNL     1      42.432 -10.730   9.752  1.00  0.00     0.010 A 
BRANCH  22  26
HETATM   26  O   UNL     1      42.406 -10.654  13.924  1.00  0.00    -0.353 OA
HETATM   27  C   UNL     1      42.786  -9.455  14.581  1.00  0.00     0.210 C 
ENDBRANCH  22  26
BRANCH  23  28
HETATM   28  O   UNL     1      40.137 -10.390  12.650  1.00  0.00    -0.353 OA
HETATM   29  C   UNL     1      39.073  -9.601  12.138  1.00  0.00     0.210 C 
ENDBRANCH  23  28
ENDBRANCH  19  20
ENDBRANCH  18  19
ENDBRANCH  15  18
ENDBRANCH  13  14
ENDBRANCH  12  13
ENDBRANCH   2  12
BRANCH   1  30
HETATM   30  C   UNL     1      42.360 -16.564   2.924  1.00  0.00     0.045 A 
HETATM   31  C   UNL     1      42.386 -17.280   4.126  1.00  0.00     0.054 A 
HETATM   32  C   UNL     1      43.161 -18.439   4.245  1.00  0.00     0.042 A 
HETATM   33  C   UNL     1      43.939 -18.897   3.171  1.00  0.00    -0.040 A 
HETATM   34 CL   UNL     1      43.141 -19.265   5.762  1.00  0.00    -0.084 Cl
HETATM   35  C   UNL     1      44.785 -20.136   3.271  1.00  0.00     0.050 C 
HETATM   36  C   UNL     1      43.906 -18.180   1.967  1.00  0.00     0.011 A 
HETATM   37  C   UNL     1      43.127 -17.026   1.845  1.00  0.00     0.031 A 
ENDBRANCH   1  30
BRANCH   6  38
HETATM   38  N   UNL     1      39.893 -16.314   1.433  1.00  0.00    -0.384 N 
HETATM   39  H   UNL     1      40.472 -16.904   0.853  1.00  0.00     0.157 HD
HETATM   40  H   UNL     1      38.913 -16.555   1.525  1.00  0.00     0.157 HD
ENDBRANCH   6  38
TORSDOF 10
ENDMDL
MODEL 3
REMARK VINA RESULT:      -8.6      1.943      2.916
REMARK  10 active torsions:
REMARK  status: ('A' for Active; 'I' for Inactive)
REMARK    1  A    between atoms: C_6  and  N_7 
REMARK    2  A    between atoms: C_8  and  S_9 
REMARK    3  A    between atoms: S_9  and  C_10 
REMARK    4  A    between atoms: C_10  and  C_11 
REMARK       I    between atoms: C_11  and  N_12 
REMARK    5  A    between atoms: N_12  and  C_13 
REMARK    6  A    between atoms: C_13  and  C_14 
REMARK    7  A    between atoms: C_14  and  C_15 
REMARK    8  A    between atoms: C_17  and  O_18 
REMARK    9  A    between atoms: C_20  and  O_21 
REMARK   10  A    between atoms: C_29  and  N_30 
ROOT
HETATM    1  N   UNL     1      42.550 -17.009   3.242  1.00  0.00    -0.276 N 
HETATM    2  C   UNL     1      43.065 -16.629   4.513  1.00  0.00     0.177 A 
HETATM    3  N   UNL     1      43.859 -17.357   5.262  1.00  0.00    -0.204 NA
HETATM    4  C   UNL     1      44.200 -18.543   4.714  1.00  0.00     0.162 A 
HETATM    5  C   UNL     1      43.819 -19.089   3.520  1.00  0.00     0.081 A 
HETATM    6  C   UNL     1      42.920 -18.318   2.716  1.00  0.00     0.124 A 
HETATM    7  N   UNL     1      45.044 -19.456   5.274  1.00  0.00    -0.260 N 
HETATM    8  H   UNL     1      45.533 -19.391   6.161  1.00  0.00     0.191 HD
HETATM    9  N   UNL     1      45.220 -20.553   4.506  1.00  0.00    -0.177 NA
HETATM   10  C   UNL     1      44.469 -20.327   3.416  1.00  0.00     0.068 A 
HETATM   11  C   UNL     1      44.435 -21.339   2.334  1.00  0.00     0.073 C 
ENDROOT
BRANCH   2  12
HETATM   12  S   UNL     1      42.649 -15.038   5.195  1.00  0.00    -0.082 SA
BRANCH  12  13
HETATM   13  C   UNL     1      40.953 -15.343   5.762  1.00  0.00     0.185 C 
BRANCH  13  14
HETATM   14  C   UNL     1      40.100 -14.085   5.686  1.00  0.00     0.227 C 
HETATM   15  N   UNL     1      39.916 -13.461   6.905  1.00  0.00    -0.360 N 
HETATM   16  H   UNL     1      40.254 -13.894   7.754  1.00  0.00     0.162 HD
HETATM   17  O   UNL     1      39.664 -13.626   4.634  1.00  0.00    -0.273 OA
BRANCH  15  18
HETATM   18  C   UNL     1      39.255 -12.173   7.019  1.00  0.00     0.127 C 
BRANCH  18  19
HETATM   19  C   UNL     1      40.228 -10.994   6.948  1.00  0.00     0.058 C 
BRANCH  19  20
HETATM   20  C   UNL     1      41.003 -10.852   8.237  1.00  0.00    -0.054 A 
HETATM   21  C   UNL     1      42.405 -10.803   8.220  1.00  0.00     0.046 A 
HETATM   22  C   UNL     1      43.136 -10.719   9.412  1.00  0.00     0.102 A 
HETATM   23  C   UNL     1      42.454 -10.686  10.646  1.00  0.00     0.101 A 
HETATM   24  C   UNL     1      41.057 -10.732  10.661  1.00  0.00     0.040 A 
HETATM   25  C   UNL     1      40.337 -10.816   9.466  1.00  0.00     0.010 A 
BRANCH  22  26
HETATM   26  O   UNL     1      44.507 -10.676   9.481  1.00  0.00    -0.353 OA
HETATM   27  C   UNL     1      45.227 -11.810   9.023  1.00  0.00     0.210 C 
ENDBRANCH  22  26
BRANCH  23  28
HETATM   28  O   UNL     1      43.241 -10.612  11.769  1.00  0.00    -0.353 OA
HETATM   29  C   UNL     1      42.664 -11.000  13.007  1.00  0.00     0.210 C 
ENDBRANCH  23  28
ENDBRANCH  19  20
ENDBRANCH  18  19
ENDBRANCH  15  18
ENDBRANCH  13  14
ENDBRANCH  12  13
ENDBRANCH   2  12
BRANCH   1  30
HETATM   30  C   UNL     1      41.715 -16.144   2.475  1.00  0.00     0.045 A 
HETATM   31  C   UNL     1      42.237 -15.013   1.835  1.00  0.00     0.054 A 
HETATM   32  C   UNL     1      41.391 -14.123   1.163  1.00  0.00     0.042 A 
HETATM   33  C   UNL     1      40.004 -14.336   1.132  1.00  0.00    -0.040 A 
HETATM   34 CL   UNL     1      42.112 -12.751   0.400  1.00  0.00    -0.084 Cl
HETATM   35  C   UNL     1      39.070 -13.394   0.423  1.00  0.00     0.050 C 
HETATM   36  C   UNL     1      39.486 -15.471   1.770  1.00  0.00     0.011 A 
HETATM   37  C   UNL     1      40.331 -16.364   2.435  1.00  0.00     0.031 A 
ENDBRANCH   1  30
BRANCH   6  38
HETATM   38  N   UNL     1      42.437 -18.800   1.586  1.00  0.00    -0.384 N 
HETATM   39  H   UNL     1      42.222 -18.205   0.799  1.00  0.00     0.157 HD
HETATM   40  H   UNL     1      42.301 -19.798   1.477  1.00  0.00     0.157 HD
ENDBRANCH   6  38
TORSDOF 10
ENDMDL
MODEL 4
REMARK VINA RESULT:      -8.5      2.174      3.383
REMARK  10 active torsions:
REMARK  status: ('A' for Active; 'I' for Inactive)
REMARK    1  A    between atoms: C_6  and  N_7 
REMARK    2  A    between atoms: C_8  and  S_9 
REMARK    3  A    between atoms: S_9  and  C_10 
REMARK    4  A    between atoms: C_10  and  C_11 
REMARK       I    between atoms: C_11  and  N_12 
REMARK    5  A    between atoms: N_12  and  C_13 
REMARK    6  A    between atoms: C_13  and  C_14 
REMARK    7  A    between atoms: C_14  and  C_15 
REMARK    8  A    between atoms: C_17  and  O_18 
REMARK    9  A    between atoms: C_20  and  O_21 
REMARK   10  A    between atoms: C_29  and  N_30 
ROOT
HETATM    1  N   UNL     1      43.302 -17.760   3.698  1.00  0.00    -0.276 N 
HETATM    2  C   UNL     1      43.861 -17.914   4.998  1.00  0.00     0.177 A 
HETATM    3  N   UNL     1      44.436 -19.001   5.456  1.00  0.00    -0.204 NA
HETATM    4  C   UNL     1      44.493 -20.013   4.565  1.00  0.00     0.162 A 
HETATM    5  C   UNL     1      44.022 -20.067   3.282  1.00  0.00     0.081 A 
HETATM    6  C   UNL     1      43.357 -18.899   2.789  1.00  0.00     0.124 A 
HETATM    7  N   UNL     1      45.076 -21.225   4.785  1.00  0.00    -0.260 N 
HETATM    8  H   UNL     1      45.543 -21.548   5.626  1.00  0.00     0.191 HD
HETATM    9  N   UNL     1      45.001 -22.050   3.718  1.00  0.00    -0.177 NA
HETATM   10  C   UNL     1      44.355 -21.335   2.783  1.00  0.00     0.068 A 
HETATM   11  C   UNL     1      44.105 -21.936   1.451  1.00  0.00     0.073 C 
ENDROOT
BRANCH   2  12
HETATM   12  S   UNL     1      43.825 -16.550   6.142  1.00  0.00    -0.082 SA
BRANCH  12  13
HETATM   13  C   UNL     1      42.366 -16.974   7.133  1.00  0.00     0.185 C 
BRANCH  13  14
HETATM   14  C   UNL     1      41.108 -16.308   6.594  1.00  0.00     0.227 C 
HETATM   15  N   UNL     1      41.241 -14.947   6.390  1.00  0.00    -0.360 N 
HETATM   16  H   UNL     1      42.084 -14.470   6.681  1.00  0.00     0.162 HD
HETATM   17  O   UNL     1      40.086 -16.925   6.307  1.00  0.00    -0.273 OA
BRANCH  15  18
HETATM   18  C   UNL     1      40.204 -14.160   5.749  1.00  0.00     0.127 C 
BRANCH  18  19
HETATM   19  C   UNL     1      40.664 -12.746   5.386  1.00  0.00     0.058 C 
BRANCH  19  20
HETATM   20  C   UNL     1      40.734 -11.869   6.614  1.00  0.00    -0.054 A 
HETATM   21  C   UNL     1      41.976 -11.535   7.177  1.00  0.00     0.046 A 
HETATM   22  C   UNL     1      42.051 -10.761   8.342  1.00  0.00     0.102 A 
HETATM   23  C   UNL     1      40.865 -10.314   8.959  1.00  0.00     0.101 A 
HETATM   24  C   UNL     1      39.630 -10.644   8.394  1.00  0.00     0.040 A 
HETATM   25  C   UNL     1      39.565 -11.418   7.232  1.00  0.00     0.010 A 
BRANCH  22  26
HETATM   26  O   UNL     1      43.224 -10.400   8.959  1.00  0.00    -0.353 OA
HETATM   27  C   UNL     1      44.238 -11.386   9.079  1.00  0.00     0.210 C 
ENDBRANCH  22  26
BRANCH  23  28
HETATM   28  O   UNL     1      41.023  -9.568  10.101  1.00  0.00    -0.353 OA
HETATM   29  C   UNL     1      40.855 -10.226  11.348  1.00  0.00     0.210 C 
ENDBRANCH  23  28
ENDBRANCH  19  20
ENDBRANCH  18  19
ENDBRANCH  15  18
ENDBRANCH  13  14
ENDBRANCH  12  13
ENDBRANCH   2  12
BRANCH   1  30
HETATM   30  C   UNL     1      42.722 -16.531   3.265  1.00  0.00     0.045 A 
HETATM   31  C   UNL     1      41.366 -16.449   2.928  1.00  0.00     0.054 A 
HETATM   32  C   UNL     1      40.832 -15.261   2.417  1.00  0.00     0.042 A 
HETATM   33  C   UNL     1      41.646 -14.136   2.215  1.00  0.00    -0.040 A 
HETATM   34 CL   UNL     1      39.149 -15.240   2.025  1.00  0.00    -0.084 Cl
HETATM   35  C   UNL     1      41.101 -12.848   1.662  1.00  0.00     0.050 C 
HETATM   36  C   UNL     1      43.002 -14.220   2.557  1.00  0.00     0.011 A 
HETATM   37  C   UNL     1      43.535 -15.404   3.074  1.00  0.00     0.031 A 
ENDBRANCH   1  30
BRANCH   6  38
HETATM   38  N   UNL     1      42.801 -18.890   1.591  1.00  0.00    -0.384 N 
HETATM   39  H   UNL     1      42.606 -18.030   1.099  1.00  0.00     0.157 HD
HETATM   40  H   UNL     1      42.585 -19.763   1.125  1.00  0.00     0.157 HD
ENDBRANCH   6  38
TORSDOF 10
ENDMDL
MODEL 5
REMARK VINA RESULT:      -8.4      2.872      5.222
REMARK  10 active torsions:
REMARK  status: ('A' for Active; 'I' for Inactive)
REMARK    1  A    between atoms: C_6  and  N_7 
REMARK    2  A    between atoms: C_8  and  S_9 
REMARK    3  A    between atoms: S_9  and  C_10 
REMARK    4  A    between atoms: C_10  and  C_11 
REMARK       I    between atoms: C_11  and  N_12 
REMARK    5  A    between atoms: N_12  and  C_13 
REMARK    6  A    between atoms: C_13  and  C_14 
REMARK    7  A    between atoms: C_14  and  C_15 
REMARK    8  A    between atoms: C_17  and  O_18 
REMARK    9  A    between atoms: C_20  and  O_21 
REMARK   10  A    between atoms: C_29  and  N_30 
ROOT
HETATM    1  N   UNL     1      42.132 -15.212   1.283  1.00  0.00    -0.276 N 
HETATM    2  C   UNL     1      42.470 -13.934   1.811  1.00  0.00     0.177 A 
HETATM    3  N   UNL     1      42.060 -12.782   1.336  1.00  0.00    -0.204 NA
HETATM    4  C   UNL     1      41.232 -12.885   0.275  1.00  0.00     0.162 A 
HETATM    5  C   UNL     1      40.790 -14.003  -0.375  1.00  0.00     0.081 A 
HETATM    6  C   UNL     1      41.265 -15.263   0.112  1.00  0.00     0.124 A 
HETATM    7  N   UNL     1      40.640 -11.838  -0.368  1.00  0.00    -0.260 N 
HETATM    8  H   UNL     1      40.727 -10.849  -0.159  1.00  0.00     0.191 HD
HETATM    9  N   UNL     1      39.850 -12.225  -1.392  1.00  0.00    -0.177 NA
HETATM   10  C   UNL     1      39.933 -13.566  -1.396  1.00  0.00     0.068 A 
HETATM   11  C   UNL     1      39.165 -14.339  -2.400  1.00  0.00     0.073 C 
ENDROOT
BRANCH   2  12
HETATM   12  S   UNL     1      43.519 -13.819   3.244  1.00  0.00    -0.082 SA
BRANCH  12  13
HETATM   13  C   UNL     1      42.284 -13.826   4.573  1.00  0.00     0.185 C 
BRANCH  13  14
HETATM   14  C   UNL     1      42.850 -14.398   5.864  1.00  0.00     0.227 C 
HETATM   15  N   UNL     1      43.960 -13.722   6.335  1.00  0.00    -0.360 N 
HETATM   16  H   UNL     1      44.377 -12.984   5.783  1.00  0.00     0.162 HD
HETATM   17  O   UNL     1      42.338 -15.335   6.471  1.00  0.00    -0.273 OA
BRANCH  15  18
HETATM   18  C   UNL     1      44.556 -14.024   7.623  1.00  0.00     0.127 C 
BRANCH  18  19
HETATM   19  C   UNL     1      45.499 -12.925   8.118  1.00  0.00     0.058 C 
BRANCH  19  20
HETATM   20  C   UNL     1      44.817 -12.047   9.140  1.00  0.00    -0.054 A 
HETATM   21  C   UNL     1      43.631 -11.370   8.815  1.00  0.00     0.046 A 
HETATM   22  C   UNL     1      43.016 -10.515   9.739  1.00  0.00     0.102 A 
HETATM   23  C   UNL     1      43.595 -10.332  11.011  1.00  0.00     0.101 A 
HETATM   24  C   UNL     1      44.774 -11.010  11.334  1.00  0.00     0.040 A 
HETATM   25  C   UNL     1      45.381 -11.859  10.405  1.00  0.00     0.010 A 
BRANCH  22  26
HETATM   26  O   UNL     1      41.861  -9.811   9.496  1.00  0.00    -0.353 OA
HETATM   27  C   UNL     1      41.439  -9.682   8.147  1.00  0.00     0.210 C 
ENDBRANCH  22  26
BRANCH  23  28
HETATM   28  O   UNL     1      42.936  -9.473  11.856  1.00  0.00    -0.353 OA
HETATM   29  C   UNL     1      43.306  -9.482  13.228  1.00  0.00     0.210 C 
ENDBRANCH  23  28
ENDBRANCH  19  20
ENDBRANCH  18  19
ENDBRANCH  15  18
ENDBRANCH  13  14
ENDBRANCH  12  13
ENDBRANCH   2  12
BRANCH   1  30
HETATM   30  C   UNL     1      42.594 -16.423   1.880  1.00  0.00     0.045 A 
HETATM   31  C   UNL     1      42.059 -16.887   3.087  1.00  0.00     0.054 A 
HETATM   32  C   UNL     1      42.587 -18.026   3.706  1.00  0.00     0.042 A 
HETATM   33  C   UNL     1      43.671 -18.713   3.141  1.00  0.00    -0.040 A 
HETATM   34 CL   UNL     1      41.872 -18.534   5.194  1.00  0.00    -0.084 Cl
HETATM   35  C   UNL     1      44.262 -19.936   3.786  1.00  0.00     0.050 C 
HETATM   36  C   UNL     1      44.202 -18.249   1.929  1.00  0.00     0.011 A 
HETATM   37  C   UNL     1      43.671 -17.115   1.307  1.00  0.00     0.031 A 
ENDBRANCH   1  30
BRANCH   6  38
HETATM   38  N   UNL     1      40.954 -16.389  -0.503  1.00  0.00    -0.384 N 
HETATM   39  H   UNL     1      41.313 -17.282  -0.197  1.00  0.00     0.157 HD
HETATM   40  H   UNL     1      40.312 -16.379  -1.287  1.00  0.00     0.157 HD
ENDBRANCH   6  38
TORSDOF 10
ENDMDL
MODEL 6
REMARK VINA RESULT:      -8.3      2.336      2.987
REMARK  10 active torsions:
REMARK  status: ('A' for Active; 'I' for Inactive)
REMARK    1  A    between atoms: C_6  and  N_7 
REMARK    2  A    between atoms: C_8  and  S_9 
REMARK    3  A    between atoms: S_9  and  C_10 
REMARK    4  A    between atoms: C_10  and  C_11 
REMARK       I    between atoms: C_11  and  N_12 
REMARK    5  A    between atoms: N_12  and  C_13 
REMARK    6  A    between atoms: C_13  and  C_14 
REMARK    7  A    between atoms: C_14  and  C_15 
REMARK    8  A    between atoms: C_17  and  O_18 
REMARK    9  A    between atoms: C_20  and  O_21 
REMARK   10  A    between atoms: C_29  and  N_30 
ROOT
HETATM    1  N   UNL     1      41.837 -15.950   2.613  1.00  0.00    -0.276 N 
HETATM    2  C   UNL     1      42.274 -15.527   3.899  1.00  0.00     0.177 A 
HETATM    3  N   UNL     1      42.981 -16.247   4.738  1.00  0.00    -0.204 NA
HETATM    4  C   UNL     1      43.311 -17.471   4.273  1.00  0.00     0.162 A 
HETATM    5  C   UNL     1      42.994 -18.060   3.081  1.00  0.00     0.081 A 
HETATM    6  C   UNL     1      42.189 -17.297   2.177  1.00  0.00     0.124 A 
HETATM    7  N   UNL     1      44.073 -18.387   4.936  1.00  0.00    -0.260 N 
HETATM    8  H   UNL     1      44.498 -18.297   5.853  1.00  0.00     0.191 HD
HETATM    9  N   UNL     1      44.257 -19.527   4.236  1.00  0.00    -0.177 NA
HETATM   10  C   UNL     1      43.598 -19.327   3.083  1.00  0.00     0.068 A 
HETATM   11  C   UNL     1      43.600 -20.389   2.050  1.00  0.00     0.073 C 
ENDROOT
BRANCH   2  12
HETATM   12  S   UNL     1      41.876 -13.890   4.473  1.00  0.00    -0.082 SA
BRANCH  12  13
HETATM   13  C   UNL     1      40.371 -14.219   5.430  1.00  0.00     0.185 C 
BRANCH  13  14
HETATM   14  C   UNL     1      39.916 -12.990   6.204  1.00  0.00     0.227 C 
HETATM   15  N   UNL     1      40.952 -12.284   6.788  1.00  0.00    -0.360 N 
HETATM   16  H   UNL     1      41.895 -12.648   6.757  1.00  0.00     0.162 HD
HETATM   17  O   UNL     1      38.747 -12.619   6.258  1.00  0.00    -0.273 OA
BRANCH  15  18
HETATM   18  C   UNL     1      40.738 -11.008   7.445  1.00  0.00     0.127 C 
BRANCH  18  19
HETATM   19  C   UNL     1      42.040 -10.351   7.910  1.00  0.00     0.058 C 
BRANCH  19  20
HETATM   20  C   UNL     1      42.192 -10.454   9.410  1.00  0.00    -0.054 A 
HETATM   21  C   UNL     1      41.067 -10.374  10.244  1.00  0.00     0.046 A 
HETATM   22  C   UNL     1      41.201 -10.421  11.637  1.00  0.00     0.102 A 
HETATM   23  C   UNL     1      42.483 -10.547  12.210  1.00  0.00     0.101 A 
HETATM   24  C   UNL     1      43.603 -10.630  11.377  1.00  0.00     0.040 A 
HETATM   25  C   UNL     1      43.458 -10.581   9.987  1.00  0.00     0.010 A 
BRANCH  22  26
HETATM   26  O   UNL     1      40.152 -10.340  12.521  1.00  0.00    -0.353 OA
HETATM   27  C   UNL     1      39.550  -9.070  12.717  1.00  0.00     0.210 C 
ENDBRANCH  22  26
BRANCH  23  28
HETATM   28  O   UNL     1      42.531 -10.577  13.582  1.00  0.00    -0.353 OA
HETATM   29  C   UNL     1      43.014  -9.422  14.252  1.00  0.00     0.210 C 
ENDBRANCH  23  28
ENDBRANCH  19  20
ENDBRANCH  18  19
ENDBRANCH  15  18
ENDBRANCH  13  14
ENDBRANCH  12  13
ENDBRANCH   2  12
BRANCH   1  30
HETATM   30  C   UNL     1      41.097 -15.092   1.746  1.00  0.00     0.045 A 
HETATM   31  C   UNL     1      39.697 -15.083   1.756  1.00  0.00     0.054 A 
HETATM   32  C   UNL     1      38.985 -14.305   0.837  1.00  0.00     0.042 A 
HETATM   33  C   UNL     1      39.657 -13.534  -0.124  1.00  0.00    -0.040 A 
HETATM   34 CL   UNL     1      37.260 -14.349   0.914  1.00  0.00    -0.084 Cl
HETATM   35  C   UNL     1      38.918 -12.693  -1.128  1.00  0.00     0.050 C 
HETATM   36  C   UNL     1      41.059 -13.542  -0.129  1.00  0.00     0.011 A 
HETATM   37  C   UNL     1      41.771 -14.313   0.793  1.00  0.00     0.031 A 
ENDBRANCH   1  30
BRANCH   6  38
HETATM   38  N   UNL     1      41.769 -17.815   1.038  1.00  0.00    -0.384 N 
HETATM   39  H   UNL     1      41.756 -17.282   0.180  1.00  0.00     0.157 HD
HETATM   40  H   UNL     1      41.477 -18.785   0.998  1.00  0.00     0.157 HD
ENDBRANCH   6  38
TORSDOF 10
ENDMDL
MODEL 7
REMARK VINA RESULT:      -8.2      6.176      9.691
REMARK  10 active torsions:
REMARK  status: ('A' for Active; 'I' for Inactive)
REMARK    1  A    between atoms: C_6  and  N_7 
REMARK    2  A    between atoms: C_8  and  S_9 
REMARK    3  A    between atoms: S_9  and  C_10 
REMARK    4  A    between atoms: C_10  and  C_11 
REMARK       I    between atoms: C_11  and  N_12 
REMARK    5  A    between atoms: N_12  and  C_13 
REMARK    6  A    between atoms: C_13  and  C_14 
REMARK    7  A    between atoms: C_14  and  C_15 
REMARK    8  A    between atoms: C_17  and  O_18 
REMARK    9  A    between atoms: C_20  and  O_21 
REMARK   10  A    between atoms: C_29  and  N_30 
ROOT
HETATM    1  N   UNL     1      39.019 -12.152  -0.516  1.00  0.00    -0.276 N 
HETATM    2  C   UNL     1      39.397 -13.473  -0.144  1.00  0.00     0.177 A 
HETATM    3  N   UNL     1      40.444 -14.121  -0.597  1.00  0.00    -0.204 NA
HETATM    4  C   UNL     1      41.199 -13.415  -1.465  1.00  0.00     0.162 A 
HETATM    5  C   UNL     1      41.011 -12.149  -1.946  1.00  0.00     0.081 A 
HETATM    6  C   UNL     1      39.849 -11.449  -1.488  1.00  0.00     0.124 A 
HETATM    7  N   UNL     1      42.355 -13.851  -2.040  1.00  0.00    -0.260 N 
HETATM    8  H   UNL     1      42.816 -14.745  -1.912  1.00  0.00     0.191 HD
HETATM    9  N   UNL     1      42.914 -12.936  -2.863  1.00  0.00    -0.177 NA
HETATM   10  C   UNL     1      42.089 -11.878  -2.802  1.00  0.00     0.068 A 
HETATM   11  C   UNL     1      42.409 -10.661  -3.585  1.00  0.00     0.073 C 
ENDROOT
BRANCH   2  12
HETATM   12  S   UNL     1      38.421 -14.369   1.044  1.00  0.00    -0.082 SA
BRANCH  12  13
HETATM   13  C   UNL     1      39.540 -14.375   2.471  1.00  0.00     0.185 C 
BRANCH  13  14
HETATM   14  C   UNL     1      40.235 -15.719   2.636  1.00  0.00     0.227 C 
HETATM   15  N   UNL     1      40.294 -16.462   1.472  1.00  0.00    -0.360 N 
HETATM   16  H   UNL     1      39.819 -16.141   0.639  1.00  0.00     0.162 HD
HETATM   17  O   UNL     1      40.751 -16.090   3.687  1.00  0.00    -0.273 OA
BRANCH  15  18
HETATM   18  C   UNL     1      41.040 -17.704   1.390  1.00  0.00     0.127 C 
BRANCH  18  19
HETATM   19  C   UNL     1      42.555 -17.490   1.340  1.00  0.00     0.058 C 
BRANCH  19  20
HETATM   20  C   UNL     1      43.271 -18.480   2.228  1.00  0.00    -0.054 A 
HETATM   21  C   UNL     1      43.641 -18.122   3.534  1.00  0.00     0.046 A 
HETATM   22  C   UNL     1      44.348 -19.014   4.350  1.00  0.00     0.102 A 
HETATM   23  C   UNL     1      44.693 -20.288   3.854  1.00  0.00     0.101 A 
HETATM   24  C   UNL     1      44.320 -20.644   2.554  1.00  0.00     0.040 A 
HETATM   25  C   UNL     1      43.617 -19.746   1.747  1.00  0.00     0.010 A 
BRANCH  22  26
HETATM   26  O   UNL     1      44.754 -18.738   5.633  1.00  0.00    -0.353 OA
HETATM   27  C   UNL     1      44.436 -17.461   6.165  1.00  0.00     0.210 C 
ENDBRANCH  22  26
BRANCH  23  28
HETATM   28  O   UNL     1      45.392 -21.101   4.712  1.00  0.00    -0.353 OA
HETATM   29  C   UNL     1      44.740 -22.267   5.195  1.00  0.00     0.210 C 
ENDBRANCH  23  28
ENDBRANCH  19  20
ENDBRANCH  18  19
ENDBRANCH  15  18
ENDBRANCH  13  14
ENDBRANCH  12  13
ENDBRANCH   2  12
BRANCH   1  30
HETATM   30  C   UNL     1      37.881 -11.504   0.048  1.00  0.00     0.045 A 
HETATM   31  C   UNL     1      37.974 -10.792   1.250  1.00  0.00     0.054 A 
HETATM   32  C   UNL     1      36.830 -10.240   1.839  1.00  0.00     0.042 A 
HETATM   33  C   UNL     1      35.568 -10.403   1.248  1.00  0.00    -0.040 A 
HETATM   34 CL   UNL     1      37.028  -9.377   3.322  1.00  0.00    -0.084 Cl
HETATM   35  C   UNL     1      34.321  -9.827   1.860  1.00  0.00     0.050 C 
HETATM   36  C   UNL     1      35.479 -11.113   0.042  1.00  0.00     0.011 A 
HETATM   37  C   UNL     1      36.622 -11.658  -0.550  1.00  0.00     0.031 A 
ENDBRANCH   1  30
BRANCH   6  38
HETATM   38  N   UNL     1      39.546 -10.254  -1.960  1.00  0.00    -0.384 N 
HETATM   39  H   UNL     1      39.501 -10.066  -2.951  1.00  0.00     0.157 HD
HETATM   40  H   UNL     1      39.320  -9.499  -1.323  1.00  0.00     0.157 HD
ENDBRANCH   6  38
TORSDOF 10
ENDMDL
MODEL 8
REMARK VINA RESULT:      -8.1      6.056     10.015
REMARK  10 active torsions:
REMARK  status: ('A' for Active; 'I' for Inactive)
REMARK    1  A    between atoms: C_6  and  N_7 
REMARK    2  A    between atoms: C_8  and  S_9 
REMARK    3  A    between atoms: S_9  and  C_10 
REMARK    4  A    between atoms: C_10  and  C_11 
REMARK       I    between atoms: C_11  and  N_12 
REMARK    5  A    between atoms: N_12  and  C_13 
REMARK    6  A    between atoms: C_13  and  C_14 
REMARK    7  A    between atoms: C_14  and  C_15 
REMARK    8  A    between atoms: C_17  and  O_18 
REMARK    9  A    between atoms: C_20  and  O_21 
REMARK   10  A    between atoms: C_29  and  N_30 
ROOT
HETATM    1  N   UNL     1      41.155 -11.899  -1.321  1.00  0.00    -0.276 N 
HETATM    2  C   UNL     1      41.061 -11.905   0.099  1.00  0.00     0.177 A 
HETATM    3  N   UNL     1      41.491 -10.954   0.894  1.00  0.00    -0.204 NA
HETATM    4  C   UNL     1      42.032  -9.898   0.250  1.00  0.00     0.162 A 
HETATM    5  C   UNL     1      42.213  -9.700  -1.090  1.00  0.00     0.081 A 
HETATM    6  C   UNL     1      41.785 -10.751  -1.963  1.00  0.00     0.124 A 
HETATM    7  N   UNL     1      42.509  -8.770   0.849  1.00  0.00    -0.260 N 
HETATM    8  H   UNL     1      42.533  -8.553   1.840  1.00  0.00     0.191 HD
HETATM    9  N   UNL     1      42.987  -7.865  -0.033  1.00  0.00    -0.177 NA
HETATM   10  C   UNL     1      42.799  -8.433  -1.235  1.00  0.00     0.068 A 
HETATM   11  C   UNL     1      43.203  -7.699  -2.458  1.00  0.00     0.073 C 
ENDROOT
BRANCH   2  12
HETATM   12  S   UNL     1      40.294 -13.281   0.928  1.00  0.00    -0.082 SA
BRANCH  12  13
HETATM   13  C   UNL     1      41.335 -13.412   2.407  1.00  0.00     0.185 C 
BRANCH  13  14
HETATM   14  C   UNL     1      42.138 -14.705   2.417  1.00  0.00     0.227 C 
HETATM   15  N   UNL     1      41.921 -15.505   1.311  1.00  0.00    -0.360 N 
HETATM   16  H   UNL     1      41.210 -15.256   0.636  1.00  0.00     0.162 HD
HETATM   17  O   UNL     1      42.951 -14.990   3.293  1.00  0.00    -0.273 OA
BRANCH  15  18
HETATM   18  C   UNL     1      42.697 -16.707   1.066  1.00  0.00     0.127 C 
BRANCH  18  19
HETATM   19  C   UNL     1      41.976 -17.984   1.505  1.00  0.00     0.058 C 
BRANCH  19  20
HETATM   20  C   UNL     1      42.876 -18.849   2.355  1.00  0.00    -0.054 A 
HETATM   21  C   UNL     1      43.145 -18.498   3.687  1.00  0.00     0.046 A 
HETATM   22  C   UNL     1      44.016 -19.266   4.471  1.00  0.00     0.102 A 
HETATM   23  C   UNL     1      44.631 -20.406   3.914  1.00  0.00     0.101 A 
HETATM   24  C   UNL     1      44.359 -20.756   2.588  1.00  0.00     0.040 A 
HETATM   25  C   UNL     1      43.490 -19.982   1.814  1.00  0.00     0.010 A 
BRANCH  22  26
HETATM   26  O   UNL     1      44.337 -18.986   5.776  1.00  0.00    -0.353 OA
HETATM   27  C   UNL     1      44.428 -17.621   6.155  1.00  0.00     0.210 C 
ENDBRANCH  22  26
BRANCH  23  28
HETATM   28  O   UNL     1      45.477 -21.101   4.743  1.00  0.00    -0.353 OA
HETATM   29  C   UNL     1      45.047 -22.372   5.210  1.00  0.00     0.210 C 
ENDBRANCH  23  28
ENDBRANCH  19  20
ENDBRANCH  18  19
ENDBRANCH  15  18
ENDBRANCH  13  14
ENDBRANCH  12  13
ENDBRANCH   2  12
BRANCH   1  30
HETATM   30  C   UNL     1      40.633 -12.961  -2.118  1.00  0.00     0.045 A 
HETATM   31  C   UNL     1      39.312 -12.939  -2.581  1.00  0.00     0.054 A 
HETATM   32  C   UNL     1      38.787 -14.030  -3.282  1.00  0.00     0.042 A 
HETATM   33  C   UNL     1      39.566 -15.173  -3.521  1.00  0.00    -0.040 A 
HETATM   34 CL   UNL     1      37.149 -13.926  -3.819  1.00  0.00    -0.084 Cl
HETATM   35  C   UNL     1      39.027 -16.363  -4.266  1.00  0.00     0.050 C 
HETATM   36  C   UNL     1      40.890 -15.190  -3.060  1.00  0.00     0.011 A 
HETATM   37  C   UNL     1      41.417 -14.098  -2.365  1.00  0.00     0.031 A 
ENDBRANCH   1  30
BRANCH   6  38
HETATM   38  N   UNL     1      41.993 -10.679  -3.264  1.00  0.00    -0.384 N 
HETATM   39  H   UNL     1      42.778 -11.135  -3.706  1.00  0.00     0.157 HD
HETATM   40  H   UNL     1      41.337 -10.182  -3.856  1.00  0.00     0.157 HD
ENDBRANCH   6  38
TORSDOF 10
ENDMDL
MODEL 9
REMARK VINA RESULT:      -8.0      5.048      9.396
REMARK  10 active torsions:
REMARK  status: ('A' for Active; 'I' for Inactive)
REMARK    1  A    between atoms: C_6  and  N_7 
REMARK    2  A    between atoms: C_8  and  S_9 
REMARK    3  A    between atoms: S_9  and  C_10 
REMARK    4  A    between atoms: C_10  and  C_11 
REMARK       I    between atoms: C_11  and  N_12 
REMARK    5  A    between atoms: N_12  and  C_13 
REMARK    6  A    between atoms: C_13  and  C_14 
REMARK    7  A    between atoms: C_14  and  C_15 
REMARK    8  A    between atoms: C_17  and  O_18 
REMARK    9  A    between atoms: C_20  and  O_21 
REMARK   10  A    between atoms: C_29  and  N_30 
ROOT
HETATM    1  N   UNL     1      40.706 -11.578   1.785  1.00  0.00    -0.276 N 
HETATM    2  C   UNL     1      40.385 -12.907   1.391  1.00  0.00     0.177 A 
HETATM    3  N   UNL     1      40.795 -13.496   0.291  1.00  0.00    -0.204 NA
HETATM    4  C   UNL     1      41.606 -12.734  -0.473  1.00  0.00     0.162 A 
HETATM    5  C   UNL     1      42.030 -11.449  -0.274  1.00  0.00     0.081 A 
HETATM    6  C   UNL     1      41.554 -10.786   0.902  1.00  0.00     0.124 A 
HETATM    7  N   UNL     1      42.194 -13.131  -1.637  1.00  0.00    -0.260 N 
HETATM    8  H   UNL     1      42.118 -14.032  -2.098  1.00  0.00     0.191 HD
HETATM    9  N   UNL     1      42.967 -12.172  -2.193  1.00  0.00    -0.177 NA
HETATM   10  C   UNL     1      42.874 -11.132  -1.349  1.00  0.00     0.068 A 
HETATM   11  C   UNL     1      43.621  -9.887  -1.645  1.00  0.00     0.073 C 
ENDROOT
BRANCH   2  12
HETATM   12  S   UNL     1      39.359 -13.917   2.438  1.00  0.00    -0.082 SA
BRANCH  12  13
HETATM   13  C   UNL     1      40.616 -14.767   3.431  1.00  0.00     0.185 C 
BRANCH  13  14
HETATM   14  C   UNL     1      40.965 -16.129   2.850  1.00  0.00     0.227 C 
HETATM   15  N   UNL     1      41.630 -16.066   1.640  1.00  0.00    -0.360 N 
HETATM   16  H   UNL     1      41.761 -15.176   1.178  1.00  0.00     0.162 HD
HETATM   17  O   UNL     1      40.735 -17.189   3.425  1.00  0.00    -0.273 OA
BRANCH  15  18
HETATM   18  C   UNL     1      42.173 -17.249   0.998  1.00  0.00     0.127 C 
BRANCH  18  19
HETATM   19  C   UNL     1      43.672 -17.430   1.249  1.00  0.00     0.058 C 
BRANCH  19  20
HETATM   20  C   UNL     1      43.919 -18.442   2.343  1.00  0.00    -0.054 A 
HETATM   21  C   UNL     1      43.920 -18.044   3.689  1.00  0.00     0.046 A 
HETATM   22  C   UNL     1      44.195 -18.963   4.710  1.00  0.00     0.102 A 
HETATM   23  C   UNL     1      44.476 -20.305   4.381  1.00  0.00     0.101 A 
HETATM   24  C   UNL     1      44.471 -20.700   3.040  1.00  0.00     0.040 A 
HETATM   25  C   UNL     1      44.197 -19.775   2.029  1.00  0.00     0.010 A 
BRANCH  22  26
HETATM   26  O   UNL     1      44.224 -18.652   6.048  1.00  0.00    -0.353 OA
HETATM   27  C   UNL     1      45.369 -17.976   6.543  1.00  0.00     0.210 C 
ENDBRANCH  22  26
BRANCH  23  28
HETATM   28  O   UNL     1      44.743 -21.142   5.437  1.00  0.00    -0.353 OA
HETATM   29  C   UNL     1      45.151 -22.469   5.141  1.00  0.00     0.210 C 
ENDBRANCH  23  28
ENDBRANCH  19  20
ENDBRANCH  18  19
ENDBRANCH  15  18
ENDBRANCH  13  14
ENDBRANCH  12  13
ENDBRANCH   2  12
BRANCH   1  30
HETATM   30  C   UNL     1      40.244 -11.022   3.015  1.00  0.00     0.045 A 
HETATM   31  C   UNL     1      39.042 -10.309   3.082  1.00  0.00     0.054 A 
HETATM   32  C   UNL     1      38.648  -9.691   4.274  1.00  0.00     0.042 A 
HETATM   33  C   UNL     1      39.456  -9.758   5.419  1.00  0.00    -0.040 A 
HETATM   34 CL   UNL     1      37.151  -8.828   4.275  1.00  0.00    -0.084 Cl
HETATM   35  C   UNL     1      39.062  -9.099   6.712  1.00  0.00     0.050 C 
HETATM   36  C   UNL     1      40.657 -10.478   5.350  1.00  0.00     0.011 A 
HETATM   37  C   UNL     1      41.048 -11.101   4.162  1.00  0.00     0.031 A 
ENDBRANCH   1  30
BRANCH   6  38
HETATM   38  N   UNL     1      41.848  -9.520   1.134  1.00  0.00    -0.384 N 
HETATM   39  H   UNL     1      42.453  -8.991   0.522  1.00  0.00     0.157 HD
HETATM   40  H   UNL     1      41.439  -9.041   1.927  1.00  0.00     0.157 HD
ENDBRANCH   6  38
TORSDOF 10
ENDMDL
MODEL 10
REMARK VINA RESULT:      -7.9      4.381      6.886
REMARK  10 active torsions:
REMARK  status: ('A' for Active; 'I' for Inactive)
REMARK    1  A    between atoms: C_6  and  N_7 
REMARK    2  A    between atoms: C_8  and  S_9 
REMARK    3  A    between atoms: S_9  and  C_10 
REMARK    4  A    between atoms: C_10  and  C_11 
REMARK       I    between atoms: C_11  and  N_12 
REMARK    5  A    between atoms: N_12  and  C_13 
REMARK    6  A    between atoms: C_13  and  C_14 
REMARK    7  A    between atoms: C_14  and  C_15 
REMARK    8  A    between atoms: C_17  and  O_18 
REMARK    9  A    between atoms: C_20  and  O_21 
REMARK   10  A    between atoms: C_29  and  N_30 
ROOT
HETATM    1  N   UNL     1      40.192 -13.062   1.252  1.00  0.00    -0.276 N 
HETATM    2  C   UNL     1      41.011 -12.194   2.026  1.00  0.00     0.177 A 
HETATM    3  N   UNL     1      42.111 -12.542   2.653  1.00  0.00    -0.204 NA
HETATM    4  C   UNL     1      42.453 -13.838   2.490  1.00  0.00     0.162 A 
HETATM    5  C   UNL     1      41.809 -14.823   1.794  1.00  0.00     0.081 A 
HETATM    6  C   UNL     1      40.588 -14.462   1.141  1.00  0.00     0.124 A 
HETATM    7  N   UNL     1      43.569 -14.429   3.003  1.00  0.00    -0.260 N 
HETATM    8  H   UNL     1      44.294 -14.003   3.570  1.00  0.00     0.191 HD
HETATM    9  N   UNL     1      43.672 -15.736   2.677  1.00  0.00    -0.177 NA
HETATM   10  C   UNL     1      42.589 -15.983   1.923  1.00  0.00     0.068 A 
HETATM   11  C   UNL     1      42.383 -17.342   1.369  1.00  0.00     0.073 C 
ENDROOT
BRANCH   2  12
HETATM   12  S   UNL     1      40.575 -10.476   2.185  1.00  0.00    -0.082 SA
BRANCH  12  13
HETATM   13  C   UNL     1      40.466 -10.316   3.988  1.00  0.00     0.185 C 
BRANCH  13  14
HETATM   14  C   UNL     1      39.732 -11.494   4.613  1.00  0.00     0.227 C 
HETATM   15  N   UNL     1      40.567 -12.410   5.225  1.00  0.00    -0.360 N 
HETATM   16  H   UNL     1      41.571 -12.311   5.151  1.00  0.00     0.162 HD
HETATM   17  O   UNL     1      38.509 -11.597   4.630  1.00  0.00    -0.273 OA
BRANCH  15  18
HETATM   18  C   UNL     1      40.052 -13.523   6.000  1.00  0.00     0.127 C 
BRANCH  18  19
HETATM   19  C   UNL     1      39.962 -14.822   5.195  1.00  0.00     0.058 C 
BRANCH  19  20
HETATM   20  C   UNL     1      41.140 -15.722   5.486  1.00  0.00    -0.054 A 
HETATM   21  C   UNL     1      42.293 -15.205   6.097  1.00  0.00     0.046 A 
HETATM   22  C   UNL     1      43.409 -16.019   6.329  1.00  0.00     0.102 A 
HETATM   23  C   UNL     1      43.375 -17.374   5.942  1.00  0.00     0.101 A 
HETATM   24  C   UNL     1      42.224 -17.888   5.336  1.00  0.00     0.040 A 
HETATM   25  C   UNL     1      41.116 -17.067   5.108  1.00  0.00     0.010 A 
BRANCH  22  26
HETATM   26  O   UNL     1      44.576 -15.589   6.912  1.00  0.00    -0.353 OA
HETATM   27  C   UNL     1      44.871 -14.202   6.852  1.00  0.00     0.210 C 
ENDBRANCH  22  26
BRANCH  23  28
HETATM   28  O   UNL     1      44.511 -18.103   6.195  1.00  0.00    -0.353 OA
HETATM   29  C   UNL     1      44.844 -19.145   5.289  1.00  0.00     0.210 C 
ENDBRANCH  23  28
ENDBRANCH  19  20
ENDBRANCH  18  19
ENDBRANCH  15  18
ENDBRANCH  13  14
ENDBRANCH  12  13
ENDBRANCH   2  12
BRANCH   1  30
HETATM   30  C   UNL     1      39.027 -12.597   0.573  1.00  0.00     0.045 A 
HETATM   31  C   UNL     1      39.098 -12.103  -0.734  1.00  0.00     0.054 A 
HETATM   32  C   UNL     1      37.964 -11.564  -1.353  1.00  0.00     0.042 A 
HETATM   33  C   UNL     1      36.740 -11.493  -0.671  1.00  0.00    -0.040 A 
HETATM   34 CL   UNL     1      38.134 -10.974  -2.967  1.00  0.00    -0.084 Cl
HETATM   35  C   UNL     1      35.506 -10.915  -1.308  1.00  0.00     0.050 C 
HETATM   36  C   UNL     1      36.670 -11.993   0.637  1.00  0.00     0.011 A 
HETATM   37  C   UNL     1      37.801 -12.537   1.253  1.00  0.00     0.031 A 
ENDBRANCH   1  30
BRANCH   6  38
HETATM   38  N   UNL     1      39.860 -15.367   0.514  1.00  0.00    -0.384 N 
HETATM   39  H   UNL     1      38.861 -15.265   0.401  1.00  0.00     0.157 HD
HETATM   40  H   UNL     1      40.304 -16.179   0.101  1.00  0.00     0.157 HD
ENDBRANCH   6  38
TORSDOF 10
ENDMDL
