MODEL 1
REMARK VINA RESULT:      -8.1      0.000      0.000
REMARK  8 active torsions:
REMARK  status: ('A' for Active; 'I' for Inactive)
REMARK    1  A    between atoms: C_3  and  N_4 
REMARK       I    between atoms: N_4  and  C_5 
REMARK    2  A    between atoms: C_5  and  C_6 
REMARK    3  A    between atoms: C_7  and  C_8 
REMARK    4  A    between atoms: C_11  and  C_12 
REMARK    5  A    between atoms: C_21  and  C_22 
REMARK    6  A    between atoms: C_22  and  C_23 
REMARK    7  A    between atoms: C_23  and  C_24 
REMARK    8  A    between atoms: C_24  and  O_25 
ROOT
HETATM    1  C   UNL     1      41.602 -15.143   5.014  1.00  0.00     0.062 C 
HETATM    2  C   UNL     1      41.736 -13.789   4.335  1.00  0.00     0.202 C 
HETATM    3  N   UNL     1      40.928 -12.781   5.025  1.00  0.00    -0.083 N 
HETATM    4  C   UNL     1      39.941 -13.080   5.925  1.00  0.00     0.726 A 
HETATM    5  N   UNL     1      39.750 -14.366   6.287  1.00  0.00    -0.192 N 
HETATM    6  N   UNL     1      41.036 -11.451   4.831  1.00  0.00    -0.140 NA
HETATM    7  C   UNL     1      40.032 -11.007   5.602  1.00  0.00     0.166 A 
HETATM    8  N   UNL     1      39.343 -11.977   6.295  1.00  0.00    -0.046 NA
HETATM    9  C   UNL     1      40.638 -15.381   5.939  1.00  0.00     0.037 C 
HETATM   10  C   UNL     1      40.460 -16.692   6.664  1.00  0.00     0.070 C 
HETATM   11  H   UNL     1      39.105 -14.556   7.051  1.00  0.00     0.184 HD
ENDROOT
BRANCH   1  12
HETATM   12  C   UNL     1      42.705 -16.113   4.808  1.00  0.00     0.256 C 
HETATM   13  N   UNL     1      42.375 -17.166   3.985  1.00  0.00    -0.323 N 
HETATM   14  H   UNL     1      41.446 -17.165   3.585  1.00  0.00     0.169 HD
HETATM   15  O   UNL     1      43.778 -15.899   5.360  1.00  0.00    -0.267 OA
BRANCH  13  16
HETATM   16  C   UNL     1      43.202 -18.257   3.614  1.00  0.00     0.041 A 
HETATM   17  C   UNL     1      43.506 -18.454   2.248  1.00  0.00    -0.035 A 
HETATM   18  C   UNL     1      43.025 -17.527   1.165  1.00  0.00     0.050 C 
HETATM   19  C   UNL     1      44.335 -19.529   1.872  1.00  0.00     0.009 A 
HETATM   20  C   UNL     1      44.844 -20.409   2.823  1.00  0.00     0.001 A 
HETATM   21  C   UNL     1      44.536 -20.222   4.164  1.00  0.00     0.002 A 
HETATM   22  C   UNL     1      43.724 -19.154   4.554  1.00  0.00     0.030 A 
ENDBRANCH  13  16
ENDBRANCH   1  12
BRANCH   2  23
HETATM   23  C   UNL     1      41.325 -13.832   2.863  1.00  0.00    -0.028 A 
HETATM   24  C   UNL     1      42.162 -13.326   1.854  1.00  0.00     0.010 A 
HETATM   25  C   UNL     1      41.777 -13.381   0.512  1.00  0.00     0.008 A 
HETATM   26  C   UNL     1      40.553 -13.948   0.140  1.00  0.00    -0.055 A 
HETATM   27  C   UNL     1      39.718 -14.454   1.146  1.00  0.00     0.008 A 
HETATM   28  C   UNL     1      40.098 -14.398   2.491  1.00  0.00     0.010 A 
BRANCH  26  29
HETATM   29  C   UNL     1      40.168 -14.004  -1.327  1.00  0.00     0.010 C 
HETATM   30  C   UNL     1      40.760 -15.229  -2.029  1.00  0.00     0.015 C 
HETATM   31  C   UNL     1      38.649 -13.953  -1.503  1.00  0.00     0.015 C 
ENDBRANCH  26  29
ENDBRANCH   2  23
BRANCH   7  32
HETATM   32  C   UNL     1      39.651  -9.574   5.667  1.00  0.00     0.085 C 
BRANCH  32  33
HETATM   33  C   UNL     1      39.986  -8.929   7.011  1.00  0.00     0.034 C 
BRANCH  33  34
HETATM   34  C   UNL     1      38.767  -8.760   7.911  1.00  0.00     0.164 C 
BRANCH  34  35
HETATM   35  O   UNL     1      38.454 -10.000   8.536  1.00  0.00    -0.401 OA
HETATM   36  H   UNL     1      38.687  -9.922   9.476  1.00  0.00     0.209 HD
ENDBRANCH  34  35
ENDBRANCH  33  34
ENDBRANCH  32  33
ENDBRANCH   7  32
TORSDOF 8
ENDMDL
MODEL 2
REMARK VINA RESULT:      -8.1      3.131      7.189
REMARK  8 active torsions:
REMARK  status: ('A' for Active; 'I' for Inactive)
REMARK    1  A    between atoms: C_3  and  N_4 
REMARK       I    between atoms: N_4  and  C_5 
REMARK    2  A    between atoms: C_5  and  C_6 
REMARK    3  A    between atoms: C_7  and  C_8 
REMARK    4  A    between atoms: C_11  and  C_12 
REMARK    5  A    between atoms: C_21  and  C_22 
REMARK    6  A    between atoms: C_22  and  C_23 
REMARK    7  A    between atoms: C_23  and  C_24 
REMARK    8  A    between atoms: C_24  and  O_25 
ROOT
HETATM    1  C   UNL     1      41.850 -14.892   4.754  1.00  0.00     0.062 C 
HETATM    2  C   UNL     1      42.436 -15.093   3.366  1.00  0.00     0.202 C 
HETATM    3  N   UNL     1      41.441 -14.786   2.334  1.00  0.00    -0.083 N 
HETATM    4  C   UNL     1      40.100 -14.671   2.580  1.00  0.00     0.726 A 
HETATM    5  N   UNL     1      39.655 -14.745   3.852  1.00  0.00    -0.192 N 
HETATM    6  N   UNL     1      41.723 -14.616   1.027  1.00  0.00    -0.140 NA
HETATM    7  C   UNL     1      40.488 -14.466   0.526  1.00  0.00     0.166 A 
HETATM    8  N   UNL     1      39.467 -14.486   1.450  1.00  0.00    -0.046 NA
HETATM    9  C   UNL     1      40.517 -14.733   4.947  1.00  0.00     0.037 C 
HETATM   10  C   UNL     1      39.872 -14.510   6.292  1.00  0.00     0.070 C 
HETATM   11  H   UNL     1      38.677 -14.527   4.029  1.00  0.00     0.184 HD
ENDROOT
BRANCH   1  12
HETATM   12  C   UNL     1      42.807 -14.637   5.859  1.00  0.00     0.256 C 
HETATM   13  N   UNL     1      42.843 -13.324   6.272  1.00  0.00    -0.323 N 
HETATM   14  H   UNL     1      42.210 -12.679   5.817  1.00  0.00     0.169 HD
HETATM   15  O   UNL     1      43.454 -15.580   6.298  1.00  0.00    -0.267 OA
BRANCH  13  16
HETATM   16  C   UNL     1      43.663 -12.765   7.287  1.00  0.00     0.041 A 
HETATM   17  C   UNL     1      43.175 -11.674   8.040  1.00  0.00    -0.035 A 
HETATM   18  C   UNL     1      41.797 -11.101   7.844  1.00  0.00     0.050 C 
HETATM   19  C   UNL     1      43.977 -11.121   9.056  1.00  0.00     0.009 A 
HETATM   20  C   UNL     1      45.250 -11.621   9.317  1.00  0.00     0.001 A 
HETATM   21  C   UNL     1      45.735 -12.686   8.569  1.00  0.00     0.002 A 
HETATM   22  C   UNL     1      44.945 -13.253   7.564  1.00  0.00     0.030 A 
ENDBRANCH  13  16
ENDBRANCH   1  12
BRANCH   2  23
HETATM   23  C   UNL     1      42.950 -16.517   3.150  1.00  0.00    -0.028 A 
HETATM   24  C   UNL     1      42.489 -17.588   3.934  1.00  0.00     0.010 A 
HETATM   25  C   UNL     1      42.960 -18.886   3.720  1.00  0.00     0.008 A 
HETATM   26  C   UNL     1      43.897 -19.150   2.715  1.00  0.00    -0.055 A 
HETATM   27  C   UNL     1      44.357 -18.082   1.932  1.00  0.00     0.008 A 
HETATM   28  C   UNL     1      43.891 -16.781   2.146  1.00  0.00     0.010 A 
BRANCH  26  29
HETATM   29  C   UNL     1      44.382 -20.573   2.498  1.00  0.00     0.010 C 
HETATM   30  C   UNL     1      44.773 -21.252   3.814  1.00  0.00     0.015 C 
HETATM   31  C   UNL     1      43.342 -21.402   1.742  1.00  0.00     0.015 C 
ENDBRANCH  26  29
ENDBRANCH   2  23
BRANCH   7  32
HETATM   32  C   UNL     1      40.228 -14.339  -0.929  1.00  0.00     0.085 C 
BRANCH  32  33
HETATM   33  C   UNL     1      40.941 -15.408  -1.758  1.00  0.00     0.034 C 
BRANCH  33  34
HETATM   34  C   UNL     1      41.060 -15.036  -3.232  1.00  0.00     0.164 C 
BRANCH  34  35
HETATM   35  O   UNL     1      42.414 -15.161  -3.652  1.00  0.00    -0.401 OA
HETATM   36  H   UNL     1      42.972 -15.129  -2.857  1.00  0.00     0.209 HD
ENDBRANCH  34  35
ENDBRANCH  33  34
ENDBRANCH  32  33
ENDBRANCH   7  32
TORSDOF 8
ENDMDL
MODEL 3
REMARK VINA RESULT:      -7.8      1.123      1.985
REMARK  8 active torsions:
REMARK  status: ('A' for Active; 'I' for Inactive)
REMARK    1  A    between atoms: C_3  and  N_4 
REMARK       I    between atoms: N_4  and  C_5 
REMARK    2  A    between atoms: C_5  and  C_6 
REMARK    3  A    between atoms: C_7  and  C_8 
REMARK    4  A    between atoms: C_11  and  C_12 
REMARK    5  A    between atoms: C_21  and  C_22 
REMARK    6  A    between atoms: C_22  and  C_23 
REMARK    7  A    between atoms: C_23  and  C_24 
REMARK    8  A    between atoms: C_24  and  O_25 
ROOT
HETATM    1  C   UNL     1      41.379 -15.168   4.598  1.00  0.00     0.062 C 
HETATM    2  C   UNL     1      41.274 -13.792   3.958  1.00  0.00     0.202 C 
HETATM    3  N   UNL     1      40.600 -12.853   4.859  1.00  0.00    -0.083 N 
HETATM    4  C   UNL     1      39.874 -13.235   5.954  1.00  0.00     0.726 A 
HETATM    5  N   UNL     1      39.844 -14.538   6.301  1.00  0.00    -0.192 N 
HETATM    6  N   UNL     1      40.586 -11.514   4.695  1.00  0.00    -0.140 NA
HETATM    7  C   UNL     1      39.773 -11.153   5.698  1.00  0.00     0.166 A 
HETATM    8  N   UNL     1      39.322 -12.180   6.497  1.00  0.00    -0.046 NA
HETATM    9  C   UNL     1      40.677 -15.488   5.714  1.00  0.00     0.037 C 
HETATM   10  C   UNL     1      40.749 -16.824   6.411  1.00  0.00     0.070 C 
HETATM   11  H   UNL     1      39.411 -14.786   7.189  1.00  0.00     0.184 HD
ENDROOT
BRANCH   1  12
HETATM   12  C   UNL     1      42.453 -16.062   4.100  1.00  0.00     0.256 C 
HETATM   13  N   UNL     1      42.064 -17.375   3.960  1.00  0.00    -0.323 N 
HETATM   14  H   UNL     1      41.100 -17.597   4.175  1.00  0.00     0.169 HD
HETATM   15  O   UNL     1      43.550 -15.574   3.858  1.00  0.00    -0.267 OA
BRANCH  13  16
HETATM   16  C   UNL     1      42.861 -18.465   3.526  1.00  0.00     0.041 A 
HETATM   17  C   UNL     1      43.777 -19.048   4.430  1.00  0.00    -0.035 A 
HETATM   18  C   UNL     1      43.915 -18.592   5.857  1.00  0.00     0.050 C 
HETATM   19  C   UNL     1      44.565 -20.138   4.011  1.00  0.00     0.009 A 
HETATM   20  C   UNL     1      44.468 -20.635   2.714  1.00  0.00     0.001 A 
HETATM   21  C   UNL     1      43.577 -20.055   1.821  1.00  0.00     0.002 A 
HETATM   22  C   UNL     1      42.780 -18.981   2.226  1.00  0.00     0.030 A 
ENDBRANCH  13  16
ENDBRANCH   1  12
BRANCH   2  23
HETATM   23  C   UNL     1      40.527 -13.825   2.625  1.00  0.00    -0.028 A 
HETATM   24  C   UNL     1      39.241 -14.383   2.520  1.00  0.00     0.010 A 
HETATM   25  C   UNL     1      38.565 -14.397   1.297  1.00  0.00     0.008 A 
HETATM   26  C   UNL     1      39.150 -13.849   0.150  1.00  0.00    -0.055 A 
HETATM   27  C   UNL     1      40.432 -13.292   0.254  1.00  0.00     0.008 A 
HETATM   28  C   UNL     1      41.113 -13.279   1.476  1.00  0.00     0.010 A 
BRANCH  26  29
HETATM   29  C   UNL     1      38.387 -13.869  -1.162  1.00  0.00     0.010 C 
HETATM   30  C   UNL     1      37.673 -12.541  -1.431  1.00  0.00     0.015 C 
HETATM   31  C   UNL     1      39.302 -14.244  -2.330  1.00  0.00     0.015 C 
ENDBRANCH  26  29
ENDBRANCH   2  23
BRANCH   7  32
HETATM   32  C   UNL     1      39.340  -9.748   5.906  1.00  0.00     0.085 C 
BRANCH  32  33
HETATM   33  C   UNL     1      39.776  -9.185   7.259  1.00  0.00     0.034 C 
BRANCH  33  34
HETATM   34  C   UNL     1      41.288  -9.214   7.457  1.00  0.00     0.164 C 
BRANCH  34  35
HETATM   35  O   UNL     1      41.920  -8.438   6.445  1.00  0.00    -0.401 OA
HETATM   36  H   UNL     1      41.472  -8.631   5.604  1.00  0.00     0.209 HD
ENDBRANCH  34  35
ENDBRANCH  33  34
ENDBRANCH  32  33
ENDBRANCH   7  32
TORSDOF 8
ENDMDL
MODEL 4
REMARK VINA RESULT:      -7.6      3.231      4.223
REMARK  8 active torsions:
REMARK  status: ('A' for Active; 'I' for Inactive)
REMARK    1  A    between atoms: C_3  and  N_4 
REMARK       I    between atoms: N_4  and  C_5 
REMARK    2  A    between atoms: C_5  and  C_6 
REMARK    3  A    between atoms: C_7  and  C_8 
REMARK    4  A    between atoms: C_11  and  C_12 
REMARK    5  A    between atoms: C_21  and  C_22 
REMARK    6  A    between atoms: C_22  and  C_23 
REMARK    7  A    between atoms: C_23  and  C_24 
REMARK    8  A    between atoms: C_24  and  O_25 
ROOT
HETATM    1  C   UNL     1      43.172 -16.679   5.335  1.00  0.00     0.062 C 
HETATM    2  C   UNL     1      43.805 -15.334   5.016  1.00  0.00     0.202 C 
HETATM    3  N   UNL     1      44.310 -14.697   6.236  1.00  0.00    -0.083 N 
HETATM    4  C   UNL     1      43.960 -15.087   7.500  1.00  0.00     0.726 A 
HETATM    5  N   UNL     1      43.185 -16.180   7.660  1.00  0.00    -0.192 N 
HETATM    6  N   UNL     1      45.143 -13.637   6.256  1.00  0.00    -0.140 NA
HETATM    7  C   UNL     1      45.204 -13.397   7.573  1.00  0.00     0.166 A 
HETATM    8  N   UNL     1      44.498 -14.270   8.370  1.00  0.00    -0.046 NA
HETATM    9  C   UNL     1      42.887 -17.046   6.610  1.00  0.00     0.037 C 
HETATM   10  C   UNL     1      42.279 -18.370   6.998  1.00  0.00     0.070 C 
HETATM   11  H   UNL     1      43.045 -16.532   8.605  1.00  0.00     0.184 HD
ENDROOT
BRANCH   1  12
HETATM   12  C   UNL     1      43.100 -17.668   4.232  1.00  0.00     0.256 C 
HETATM   13  N   UNL     1      43.914 -18.764   4.411  1.00  0.00    -0.323 N 
HETATM   14  H   UNL     1      44.449 -18.806   5.269  1.00  0.00     0.169 HD
HETATM   15  O   UNL     1      42.345 -17.439   3.294  1.00  0.00    -0.267 OA
BRANCH  13  16
HETATM   16  C   UNL     1      44.079 -19.864   3.531  1.00  0.00     0.041 A 
HETATM   17  C   UNL     1      44.454 -21.118   4.062  1.00  0.00    -0.035 A 
HETATM   18  C   UNL     1      44.644 -21.354   5.536  1.00  0.00     0.050 C 
HETATM   19  C   UNL     1      44.609 -22.218   3.196  1.00  0.00     0.009 A 
HETATM   20  C   UNL     1      44.418 -22.083   1.824  1.00  0.00     0.001 A 
HETATM   21  C   UNL     1      44.061 -20.848   1.300  1.00  0.00     0.002 A 
HETATM   22  C   UNL     1      43.892 -19.749   2.148  1.00  0.00     0.030 A 
ENDBRANCH  13  16
ENDBRANCH   1  12
BRANCH   2  23
HETATM   23  C   UNL     1      42.831 -14.380   4.325  1.00  0.00    -0.028 A 
HETATM   24  C   UNL     1      43.157 -13.756   3.108  1.00  0.00     0.010 A 
HETATM   25  C   UNL     1      42.253 -12.894   2.482  1.00  0.00     0.008 A 
HETATM   26  C   UNL     1      40.998 -12.638   3.048  1.00  0.00    -0.055 A 
HETATM   27  C   UNL     1      40.673 -13.261   4.261  1.00  0.00     0.008 A 
HETATM   28  C   UNL     1      41.576 -14.122   4.893  1.00  0.00     0.010 A 
BRANCH  26  29
HETATM   29  C   UNL     1      40.033 -11.706   2.339  1.00  0.00     0.010 C 
HETATM   30  C   UNL     1      40.577 -10.278   2.246  1.00  0.00     0.015 C 
HETATM   31  C   UNL     1      39.663 -12.242   0.954  1.00  0.00     0.015 C 
ENDBRANCH  26  29
ENDBRANCH   2  23
BRANCH   7  32
HETATM   32  C   UNL     1      45.938 -12.238   8.139  1.00  0.00     0.085 C 
BRANCH  32  33
HETATM   33  C   UNL     1      45.129 -11.473   9.187  1.00  0.00     0.034 C 
BRANCH  33  34
HETATM   34  C   UNL     1      45.354 -11.989  10.604  1.00  0.00     0.164 C 
BRANCH  34  35
HETATM   35  O   UNL     1      44.318 -12.900  10.955  1.00  0.00    -0.401 OA
HETATM   36  H   UNL     1      44.495 -13.212  11.858  1.00  0.00     0.209 HD
ENDBRANCH  34  35
ENDBRANCH  33  34
ENDBRANCH  32  33
ENDBRANCH   7  32
TORSDOF 8
ENDMDL
MODEL 5
REMARK VINA RESULT:      -7.6      3.220      6.422
REMARK  8 active torsions:
REMARK  status: ('A' for Active; 'I' for Inactive)
REMARK    1  A    between atoms: C_3  and  N_4 
REMARK       I    between atoms: N_4  and  C_5 
REMARK    2  A    between atoms: C_5  and  C_6 
REMARK    3  A    between atoms: C_7  and  C_8 
REMARK    4  A    between atoms: C_11  and  C_12 
REMARK    5  A    between atoms: C_21  and  C_22 
REMARK    6  A    between atoms: C_22  and  C_23 
REMARK    7  A    between atoms: C_23  and  C_24 
REMARK    8  A    between atoms: C_24  and  O_25 
ROOT
HETATM    1  C   UNL     1      41.625 -16.070   2.434  1.00  0.00     0.062 C 
HETATM    2  C   UNL     1      40.383 -15.195   2.371  1.00  0.00     0.202 C 
HETATM    3  N   UNL     1      40.056 -14.860   0.981  1.00  0.00    -0.083 N 
HETATM    4  C   UNL     1      40.924 -15.018  -0.065  1.00  0.00     0.726 A 
HETATM    5  N   UNL     1      42.119 -15.606   0.155  1.00  0.00    -0.192 N 
HETATM    6  N   UNL     1      38.885 -14.327   0.579  1.00  0.00    -0.140 NA
HETATM    7  C   UNL     1      39.140 -14.127  -0.722  1.00  0.00     0.166 A 
HETATM    8  N   UNL     1      40.378 -14.546  -1.156  1.00  0.00    -0.046 NA
HETATM    9  C   UNL     1      42.432 -16.238   1.356  1.00  0.00     0.037 C 
HETATM   10  C   UNL     1      43.666 -17.105   1.344  1.00  0.00     0.070 C 
HETATM   11  H   UNL     1      42.694 -15.834  -0.653  1.00  0.00     0.184 HD
ENDROOT
BRANCH   1  12
HETATM   12  C   UNL     1      41.790 -16.919   3.639  1.00  0.00     0.256 C 
HETATM   13  N   UNL     1      42.799 -16.504   4.479  1.00  0.00    -0.323 N 
HETATM   14  H   UNL     1      43.302 -15.666   4.218  1.00  0.00     0.169 HD
HETATM   15  O   UNL     1      41.038 -17.875   3.784  1.00  0.00    -0.267 OA
BRANCH  13  16
HETATM   16  C   UNL     1      43.211 -17.114   5.692  1.00  0.00     0.041 A 
HETATM   17  C   UNL     1      43.967 -18.307   5.639  1.00  0.00    -0.035 A 
HETATM   18  C   UNL     1      44.396 -18.942   4.344  1.00  0.00     0.050 C 
HETATM   19  C   UNL     1      44.389 -18.913   6.838  1.00  0.00     0.009 A 
HETATM   20  C   UNL     1      44.057 -18.364   8.074  1.00  0.00     0.001 A 
HETATM   21  C   UNL     1      43.305 -17.198   8.127  1.00  0.00     0.002 A 
HETATM   22  C   UNL     1      42.888 -16.579   6.945  1.00  0.00     0.030 A 
ENDBRANCH  13  16
ENDBRANCH   1  12
BRANCH   2  23
HETATM   23  C   UNL     1      40.539 -13.902   3.170  1.00  0.00    -0.028 A 
HETATM   24  C   UNL     1      41.294 -12.824   2.677  1.00  0.00     0.010 A 
HETATM   25  C   UNL     1      41.420 -11.643   3.414  1.00  0.00     0.008 A 
HETATM   26  C   UNL     1      40.791 -11.504   4.656  1.00  0.00    -0.055 A 
HETATM   27  C   UNL     1      40.037 -12.578   5.148  1.00  0.00     0.008 A 
HETATM   28  C   UNL     1      39.912 -13.763   4.415  1.00  0.00     0.010 A 
BRANCH  26  29
HETATM   29  C   UNL     1      40.937 -10.205   5.428  1.00  0.00     0.010 C 
HETATM   30  C   UNL     1      39.616  -9.435   5.511  1.00  0.00     0.015 C 
HETATM   31  C   UNL     1      41.515 -10.452   6.823  1.00  0.00     0.015 C 
ENDBRANCH  26  29
ENDBRANCH   2  23
BRANCH   7  32
HETATM   32  C   UNL     1      38.178 -13.452  -1.628  1.00  0.00     0.085 C 
BRANCH  32  33
HETATM   33  C   UNL     1      38.360 -13.847  -3.093  1.00  0.00     0.034 C 
BRANCH  33  34
HETATM   34  C   UNL     1      37.520 -15.056  -3.492  1.00  0.00     0.164 C 
BRANCH  34  35
HETATM   35  O   UNL     1      37.363 -15.087  -4.906  1.00  0.00    -0.401 OA
HETATM   36  H   UNL     1      37.205 -16.011  -5.164  1.00  0.00     0.209 HD
ENDBRANCH  34  35
ENDBRANCH  33  34
ENDBRANCH  32  33
ENDBRANCH   7  32
TORSDOF 8
ENDMDL
MODEL 6
REMARK VINA RESULT:      -7.5      3.335      7.666
REMARK  8 active torsions:
REMARK  status: ('A' for Active; 'I' for Inactive)
REMARK    1  A    between atoms: C_3  and  N_4 
REMARK       I    between atoms: N_4  and  C_5 
REMARK    2  A    between atoms: C_5  and  C_6 
REMARK    3  A    between atoms: C_7  and  C_8 
REMARK    4  A    between atoms: C_11  and  C_12 
REMARK    5  A    between atoms: C_21  and  C_22 
REMARK    6  A    between atoms: C_22  and  C_23 
REMARK    7  A    between atoms: C_23  and  C_24 
REMARK    8  A    between atoms: C_24  and  O_25 
ROOT
HETATM    1  C   UNL     1      40.980 -11.362   6.194  1.00  0.00     0.062 C 
HETATM    2  C   UNL     1      41.739 -12.123   5.118  1.00  0.00     0.202 C 
HETATM    3  N   UNL     1      40.907 -12.297   3.923  1.00  0.00    -0.083 N 
HETATM    4  C   UNL     1      39.552 -12.111   3.905  1.00  0.00     0.726 A 
HETATM    5  N   UNL     1      38.937 -11.645   5.012  1.00  0.00    -0.192 N 
HETATM    6  N   UNL     1      41.370 -12.693   2.720  1.00  0.00    -0.140 NA
HETATM    7  C   UNL     1      40.223 -12.789   2.034  1.00  0.00     0.166 A 
HETATM    8  N   UNL     1      39.086 -12.432   2.724  1.00  0.00    -0.046 NA
HETATM    9  C   UNL     1      39.642 -11.157   6.110  1.00  0.00     0.037 C 
HETATM   10  C   UNL     1      38.832 -10.396   7.129  1.00  0.00     0.070 C 
HETATM   11  H   UNL     1      37.954 -11.388   4.940  1.00  0.00     0.184 HD
ENDROOT
BRANCH   1  12
HETATM   12  C   UNL     1      41.790 -10.648   7.211  1.00  0.00     0.256 C 
HETATM   13  N   UNL     1      42.016 -11.377   8.356  1.00  0.00    -0.323 N 
HETATM   14  H   UNL     1      41.643 -12.317   8.386  1.00  0.00     0.169 HD
HETATM   15  O   UNL     1      42.182  -9.516   6.952  1.00  0.00    -0.267 OA
BRANCH  13  16
HETATM   16  C   UNL     1      42.733 -10.966   9.509  1.00  0.00     0.041 A 
HETATM   17  C   UNL     1      44.036 -11.471   9.723  1.00  0.00    -0.035 A 
HETATM   18  C   UNL     1      44.719 -12.397   8.754  1.00  0.00     0.050 C 
HETATM   19  C   UNL     1      44.759 -11.059  10.859  1.00  0.00     0.009 A 
HETATM   20  C   UNL     1      44.203 -10.178  11.782  1.00  0.00     0.001 A 
HETATM   21  C   UNL     1      42.919  -9.691  11.579  1.00  0.00     0.002 A 
HETATM   22  C   UNL     1      42.193 -10.081  10.450  1.00  0.00     0.030 A 
ENDBRANCH  13  16
ENDBRANCH   1  12
BRANCH   2  23
HETATM   23  C   UNL     1      42.211 -13.496   5.597  1.00  0.00    -0.028 A 
HETATM   24  C   UNL     1      43.571 -13.760   5.834  1.00  0.00     0.010 A 
HETATM   25  C   UNL     1      43.988 -15.016   6.282  1.00  0.00     0.008 A 
HETATM   26  C   UNL     1      43.060 -16.038   6.513  1.00  0.00    -0.055 A 
HETATM   27  C   UNL     1      41.704 -15.775   6.278  1.00  0.00     0.008 A 
HETATM   28  C   UNL     1      41.283 -14.520   5.826  1.00  0.00     0.010 A 
BRANCH  26  29
HETATM   29  C   UNL     1      43.542 -17.389   7.011  1.00  0.00     0.010 C 
HETATM   30  C   UNL     1      44.934 -17.734   6.474  1.00  0.00     0.015 C 
HETATM   31  C   UNL     1      43.512 -17.458   8.539  1.00  0.00     0.015 C 
ENDBRANCH  26  29
ENDBRANCH   2  23
BRANCH   7  32
HETATM   32  C   UNL     1      40.168 -13.294   0.640  1.00  0.00     0.085 C 
BRANCH  32  33
HETATM   33  C   UNL     1      40.473 -14.789   0.535  1.00  0.00     0.034 C 
BRANCH  33  34
HETATM   34  C   UNL     1      40.012 -15.577   1.756  1.00  0.00     0.164 C 
BRANCH  34  35
HETATM   35  O   UNL     1      38.590 -15.568   1.826  1.00  0.00    -0.401 OA
HETATM   36  H   UNL     1      38.254 -15.328   0.946  1.00  0.00     0.209 HD
ENDBRANCH  34  35
ENDBRANCH  33  34
ENDBRANCH  32  33
ENDBRANCH   7  32
TORSDOF 8
ENDMDL
MODEL 7
REMARK VINA RESULT:      -7.0      2.865      5.201
REMARK  8 active torsions:
REMARK  status: ('A' for Active; 'I' for Inactive)
REMARK    1  A    between atoms: C_3  and  N_4 
REMARK       I    between atoms: N_4  and  C_5 
REMARK    2  A    between atoms: C_5  and  C_6 
REMARK    3  A    between atoms: C_7  and  C_8 
REMARK    4  A    between atoms: C_11  and  C_12 
REMARK    5  A    between atoms: C_21  and  C_22 
REMARK    6  A    between atoms: C_22  and  C_23 
REMARK    7  A    between atoms: C_23  and  C_24 
REMARK    8  A    between atoms: C_24  and  O_25 
ROOT
HETATM    1  C   UNL     1      41.661 -15.909   3.299  1.00  0.00     0.062 C 
HETATM    2  C   UNL     1      41.102 -15.078   4.444  1.00  0.00     0.202 C 
HETATM    3  N   UNL     1      40.377 -13.912   3.931  1.00  0.00    -0.083 N 
HETATM    4  C   UNL     1      40.480 -13.455   2.646  1.00  0.00     0.726 A 
HETATM    5  N   UNL     1      41.209 -14.159   1.754  1.00  0.00    -0.192 N 
HETATM    6  N   UNL     1      39.557 -13.137   4.669  1.00  0.00    -0.140 NA
HETATM    7  C   UNL     1      39.249 -12.185   3.777  1.00  0.00     0.166 A 
HETATM    8  N   UNL     1      39.790 -12.350   2.522  1.00  0.00    -0.046 NA
HETATM    9  C   UNL     1      41.698 -15.434   2.028  1.00  0.00     0.037 C 
HETATM   10  C   UNL     1      42.220 -16.210   0.845  1.00  0.00     0.070 C 
HETATM   11  H   UNL     1      41.167 -13.879   0.776  1.00  0.00     0.184 HD
ENDROOT
BRANCH   1  12
HETATM   12  C   UNL     1      41.939 -17.339   3.577  1.00  0.00     0.256 C 
HETATM   13  N   UNL     1      43.063 -17.821   2.945  1.00  0.00    -0.323 N 
HETATM   14  H   UNL     1      43.596 -17.167   2.388  1.00  0.00     0.169 HD
HETATM   15  O   UNL     1      41.179 -17.944   4.324  1.00  0.00    -0.267 OA
BRANCH  13  16
HETATM   16  C   UNL     1      43.577 -19.143   2.998  1.00  0.00     0.041 A 
HETATM   17  C   UNL     1      44.363 -19.529   4.106  1.00  0.00    -0.035 A 
HETATM   18  C   UNL     1      44.645 -18.610   5.264  1.00  0.00     0.050 C 
HETATM   19  C   UNL     1      44.869 -20.842   4.172  1.00  0.00     0.009 A 
HETATM   20  C   UNL     1      44.620 -21.757   3.153  1.00  0.00     0.001 A 
HETATM   21  C   UNL     1      43.858 -21.375   2.058  1.00  0.00     0.002 A 
HETATM   22  C   UNL     1      43.340 -20.078   1.984  1.00  0.00     0.030 A 
ENDBRANCH  13  16
ENDBRANCH   1  12
BRANCH   2  23
HETATM   23  C   UNL     1      42.192 -14.602   5.404  1.00  0.00    -0.028 A 
HETATM   24  C   UNL     1      43.081 -15.507   6.009  1.00  0.00     0.010 A 
HETATM   25  C   UNL     1      44.078 -15.058   6.878  1.00  0.00     0.008 A 
HETATM   26  C   UNL     1      44.220 -13.694   7.160  1.00  0.00    -0.055 A 
HETATM   27  C   UNL     1      43.335 -12.791   6.556  1.00  0.00     0.008 A 
HETATM   28  C   UNL     1      42.332 -13.237   5.689  1.00  0.00     0.010 A 
BRANCH  26  29
HETATM   29  C   UNL     1      45.322 -13.235   8.099  1.00  0.00     0.010 C 
HETATM   30  C   UNL     1      46.551 -12.730   7.338  1.00  0.00     0.015 C 
HETATM   31  C   UNL     1      44.809 -12.174   9.075  1.00  0.00     0.015 C 
ENDBRANCH  26  29
ENDBRANCH   2  23
BRANCH   7  32
HETATM   32  C   UNL     1      38.423 -11.002   4.127  1.00  0.00     0.085 C 
BRANCH  32  33
HETATM   33  C   UNL     1      38.507  -9.887   3.085  1.00  0.00     0.034 C 
BRANCH  33  34
HETATM   34  C   UNL     1      37.147  -9.513   2.503  1.00  0.00     0.164 C 
BRANCH  34  35
HETATM   35  O   UNL     1      36.494 -10.680   2.018  1.00  0.00    -0.401 OA
HETATM   36  H   UNL     1      35.621 -10.727   2.444  1.00  0.00     0.209 HD
ENDBRANCH  34  35
ENDBRANCH  33  34
ENDBRANCH  32  33
ENDBRANCH   7  32
TORSDOF 8
ENDMDL
MODEL 8
REMARK VINA RESULT:      -7.0      3.226      7.007
REMARK  8 active torsions:
REMARK  status: ('A' for Active; 'I' for Inactive)
REMARK    1  A    between atoms: C_3  and  N_4 
REMARK       I    between atoms: N_4  and  C_5 
REMARK    2  A    between atoms: C_5  and  C_6 
REMARK    3  A    between atoms: C_7  and  C_8 
REMARK    4  A    between atoms: C_11  and  C_12 
REMARK    5  A    between atoms: C_21  and  C_22 
REMARK    6  A    between atoms: C_22  and  C_23 
REMARK    7  A    between atoms: C_23  and  C_24 
REMARK    8  A    between atoms: C_24  and  O_25 
ROOT
HETATM    1  C   UNL     1      40.764 -12.768   3.642  1.00  0.00     0.062 C 
HETATM    2  C   UNL     1      41.472 -13.492   2.507  1.00  0.00     0.202 C 
HETATM    3  N   UNL     1      40.596 -13.599   1.336  1.00  0.00    -0.083 N 
HETATM    4  C   UNL     1      39.244 -13.390   1.374  1.00  0.00     0.726 A 
HETATM    5  N   UNL     1      38.676 -12.965   2.521  1.00  0.00    -0.192 N 
HETATM    6  N   UNL     1      41.011 -13.947   0.101  1.00  0.00    -0.140 NA
HETATM    7  C   UNL     1      39.839 -13.993  -0.548  1.00  0.00     0.166 A 
HETATM    8  N   UNL     1      38.733 -13.650   0.197  1.00  0.00    -0.046 NA
HETATM    9  C   UNL     1      39.427 -12.538   3.614  1.00  0.00     0.037 C 
HETATM   10  C   UNL     1      38.667 -11.810   4.695  1.00  0.00     0.070 C 
HETATM   11  H   UNL     1      37.697 -12.689   2.496  1.00  0.00     0.184 HD
ENDROOT
BRANCH   1  12
HETATM   12  C   UNL     1      41.621 -12.113   4.660  1.00  0.00     0.256 C 
HETATM   13  N   UNL     1      42.016 -12.951   5.679  1.00  0.00    -0.323 N 
HETATM   14  H   UNL     1      41.717 -13.916   5.624  1.00  0.00     0.169 HD
HETATM   15  O   UNL     1      41.901 -10.929   4.511  1.00  0.00    -0.267 OA
BRANCH  13  16
HETATM   16  C   UNL     1      42.817 -12.620   6.801  1.00  0.00     0.041 A 
HETATM   17  C   UNL     1      43.938 -13.424   7.106  1.00  0.00    -0.035 A 
HETATM   18  C   UNL     1      44.350 -14.600   6.262  1.00  0.00     0.050 C 
HETATM   19  C   UNL     1      44.745 -13.096   8.213  1.00  0.00     0.009 A 
HETATM   20  C   UNL     1      44.444 -12.003   9.020  1.00  0.00     0.001 A 
HETATM   21  C   UNL     1      43.336 -11.219   8.729  1.00  0.00     0.002 A 
HETATM   22  C   UNL     1      42.531 -11.525   7.627  1.00  0.00     0.030 A 
ENDBRANCH  13  16
ENDBRANCH   1  12
BRANCH   2  23
HETATM   23  C   UNL     1      41.936 -14.892   2.908  1.00  0.00    -0.028 A 
HETATM   24  C   UNL     1      43.228 -15.351   2.599  1.00  0.00     0.010 A 
HETATM   25  C   UNL     1      43.643 -16.629   2.981  1.00  0.00     0.008 A 
HETATM   26  C   UNL     1      42.785 -17.479   3.687  1.00  0.00    -0.055 A 
HETATM   27  C   UNL     1      41.497 -17.022   3.996  1.00  0.00     0.008 A 
HETATM   28  C   UNL     1      41.076 -15.744   3.613  1.00  0.00     0.010 A 
BRANCH  26  29
HETATM   29  C   UNL     1      43.268 -18.858   4.098  1.00  0.00     0.010 C 
HETATM   30  C   UNL     1      44.071 -19.540   2.986  1.00  0.00     0.015 C 
HETATM   31  C   UNL     1      44.074 -18.797   5.397  1.00  0.00     0.015 C 
ENDBRANCH  26  29
ENDBRANCH   2  23
BRANCH   7  32
HETATM   32  C   UNL     1      39.727 -14.435  -1.961  1.00  0.00     0.085 C 
BRANCH  32  33
HETATM   33  C   UNL     1      41.073 -14.822  -2.573  1.00  0.00     0.034 C 
BRANCH  33  34
HETATM   34  C   UNL     1      41.689 -13.706  -3.410  1.00  0.00     0.164 C 
BRANCH  34  35
HETATM   35  O   UNL     1      43.058 -13.540  -3.056  1.00  0.00    -0.401 OA
HETATM   36  H   UNL     1      43.393 -12.764  -3.536  1.00  0.00     0.209 HD
ENDBRANCH  34  35
ENDBRANCH  33  34
ENDBRANCH  32  33
ENDBRANCH   7  32
TORSDOF 8
ENDMDL
MODEL 9
REMARK VINA RESULT:      -7.0      2.225      7.615
REMARK  8 active torsions:
REMARK  status: ('A' for Active; 'I' for Inactive)
REMARK    1  A    between atoms: C_3  and  N_4 
REMARK       I    between atoms: N_4  and  C_5 
REMARK    2  A    between atoms: C_5  and  C_6 
REMARK    3  A    between atoms: C_7  and  C_8 
REMARK    4  A    between atoms: C_11  and  C_12 
REMARK    5  A    between atoms: C_21  and  C_22 
REMARK    6  A    between atoms: C_22  and  C_23 
REMARK    7  A    between atoms: C_23  and  C_24 
REMARK    8  A    between atoms: C_24  and  O_25 
ROOT
HETATM    1  C   UNL     1      41.431 -14.236   4.253  1.00  0.00     0.062 C 
HETATM    2  C   UNL     1      41.049 -15.208   3.148  1.00  0.00     0.202 C 
HETATM    3  N   UNL     1      41.930 -16.380   3.162  1.00  0.00    -0.083 N 
HETATM    4  C   UNL     1      43.119 -16.431   3.836  1.00  0.00     0.726 A 
HETATM    5  N   UNL     1      43.477 -15.392   4.619  1.00  0.00    -0.192 N 
HETATM    6  N   UNL     1      41.690 -17.524   2.489  1.00  0.00    -0.140 NA
HETATM    7  C   UNL     1      42.816 -18.203   2.750  1.00  0.00     0.166 A 
HETATM    8  N   UNL     1      43.713 -17.569   3.580  1.00  0.00    -0.046 NA
HETATM    9  C   UNL     1      42.601 -14.354   4.930  1.00  0.00     0.037 C 
HETATM   10  C   UNL     1      43.033 -13.439   6.049  1.00  0.00     0.070 C 
HETATM   11  H   UNL     1      44.296 -15.502   5.213  1.00  0.00     0.184 HD
ENDROOT
BRANCH   1  12
HETATM   12  C   UNL     1      40.378 -13.305   4.725  1.00  0.00     0.256 C 
HETATM   13  N   UNL     1      40.407 -12.073   4.111  1.00  0.00    -0.323 N 
HETATM   14  H   UNL     1      41.108 -11.931   3.395  1.00  0.00     0.169 HD
HETATM   15  O   UNL     1      39.595 -13.698   5.582  1.00  0.00    -0.267 OA
BRANCH  13  16
HETATM   16  C   UNL     1      39.549 -10.970   4.357  1.00  0.00     0.041 A 
HETATM   17  C   UNL     1      38.464 -10.736   3.482  1.00  0.00    -0.035 A 
HETATM   18  C   UNL     1      38.148 -11.637   2.319  1.00  0.00     0.050 C 
HETATM   19  C   UNL     1      37.601  -9.650   3.725  1.00  0.00     0.009 A 
HETATM   20  C   UNL     1      37.812  -8.794   4.803  1.00  0.00     0.001 A 
HETATM   21  C   UNL     1      38.885  -9.016   5.656  1.00  0.00     0.002 A 
HETATM   22  C   UNL     1      39.744 -10.097   5.434  1.00  0.00     0.030 A 
ENDBRANCH  13  16
ENDBRANCH   1  12
BRANCH   2  23
HETATM   23  C   UNL     1      41.101 -14.565   1.762  1.00  0.00    -0.028 A 
HETATM   24  C   UNL     1      42.103 -13.640   1.422  1.00  0.00     0.010 A 
HETATM   25  C   UNL     1      42.144 -13.067   0.148  1.00  0.00     0.008 A 
HETATM   26  C   UNL     1      41.193 -13.407  -0.821  1.00  0.00    -0.055 A 
HETATM   27  C   UNL     1      40.194 -14.330  -0.482  1.00  0.00     0.008 A 
HETATM   28  C   UNL     1      40.147 -14.903   0.793  1.00  0.00     0.010 A 
BRANCH  26  29
HETATM   29  C   UNL     1      41.271 -12.777  -2.200  1.00  0.00     0.010 C 
HETATM   30  C   UNL     1      42.458 -11.817  -2.326  1.00  0.00     0.015 C 
HETATM   31  C   UNL     1      41.312 -13.845  -3.295  1.00  0.00     0.015 C 
ENDBRANCH  26  29
ENDBRANCH   2  23
BRANCH   7  32
HETATM   32  C   UNL     1      43.105 -19.528   2.147  1.00  0.00     0.085 C 
BRANCH  32  33
HETATM   33  C   UNL     1      44.441 -20.113   2.606  1.00  0.00     0.034 C 
BRANCH  33  34
HETATM   34  C   UNL     1      44.366 -21.608   2.899  1.00  0.00     0.164 C 
BRANCH  34  35
HETATM   35  O   UNL     1      44.518 -22.343   1.689  1.00  0.00    -0.401 OA
HETATM   36  H   UNL     1      45.222 -22.998   1.830  1.00  0.00     0.209 HD
ENDBRANCH  34  35
ENDBRANCH  33  34
ENDBRANCH  32  33
ENDBRANCH   7  32
TORSDOF 8
ENDMDL
MODEL 10
REMARK VINA RESULT:      -7.0      3.195      4.047
REMARK  8 active torsions:
REMARK  status: ('A' for Active; 'I' for Inactive)
REMARK    1  A    between atoms: C_3  and  N_4 
REMARK       I    between atoms: N_4  and  C_5 
REMARK    2  A    between atoms: C_5  and  C_6 
REMARK    3  A    between atoms: C_7  and  C_8 
REMARK    4  A    between atoms: C_11  and  C_12 
REMARK    5  A    between atoms: C_21  and  C_22 
REMARK    6  A    between atoms: C_22  and  C_23 
REMARK    7  A    between atoms: C_23  and  C_24 
REMARK    8  A    between atoms: C_24  and  O_25 
ROOT
HETATM    1  C   UNL     1      44.202 -17.365   6.169  1.00  0.00     0.062 C 
HETATM    2  C   UNL     1      44.389 -15.944   5.659  1.00  0.00     0.202 C 
HETATM    3  N   UNL     1      44.426 -14.995   6.776  1.00  0.00    -0.083 N 
HETATM    4  C   UNL     1      44.014 -15.295   8.045  1.00  0.00     0.726 A 
HETATM    5  N   UNL     1      43.639 -16.558   8.334  1.00  0.00    -0.192 N 
HETATM    6  N   UNL     1      44.835 -13.714   6.676  1.00  0.00    -0.140 NA
HETATM    7  C   UNL     1      44.579 -13.276   7.917  1.00  0.00     0.166 A 
HETATM    8  N   UNL     1      44.082 -14.220   8.788  1.00  0.00    -0.046 NA
HETATM    9  C   UNL     1      43.840 -17.618   7.452  1.00  0.00     0.037 C 
HETATM   10  C   UNL     1      43.658 -19.000   8.027  1.00  0.00     0.070 C 
HETATM   11  H   UNL     1      43.463 -16.794   9.308  1.00  0.00     0.184 HD
ENDROOT
BRANCH   1  12
HETATM   12  C   UNL     1      44.663 -18.463   5.285  1.00  0.00     0.256 C 
HETATM   13  N   UNL     1      43.693 -18.931   4.427  1.00  0.00    -0.323 N 
HETATM   14  H   UNL     1      42.790 -18.476   4.458  1.00  0.00     0.169 HD
HETATM   15  O   UNL     1      45.825 -18.841   5.383  1.00  0.00    -0.267 OA
BRANCH  13  16
HETATM   16  C   UNL     1      43.819 -19.980   3.479  1.00  0.00     0.041 A 
HETATM   17  C   UNL     1      43.344 -19.777   2.164  1.00  0.00    -0.035 A 
HETATM   18  C   UNL     1      42.747 -18.474   1.706  1.00  0.00     0.050 C 
HETATM   19  C   UNL     1      43.475 -20.809   1.215  1.00  0.00     0.009 A 
HETATM   20  C   UNL     1      44.047 -22.031   1.558  1.00  0.00     0.001 A 
HETATM   21  C   UNL     1      44.503 -22.235   2.853  1.00  0.00     0.002 A 
HETATM   22  C   UNL     1      44.391 -21.216   3.804  1.00  0.00     0.030 A 
ENDBRANCH  13  16
ENDBRANCH   1  12
BRANCH   2  23
HETATM   23  C   UNL     1      43.286 -15.524   4.688  1.00  0.00    -0.028 A 
HETATM   24  C   UNL     1      41.933 -15.529   5.069  1.00  0.00     0.010 A 
HETATM   25  C   UNL     1      40.937 -15.133   4.174  1.00  0.00     0.008 A 
HETATM   26  C   UNL     1      41.263 -14.715   2.878  1.00  0.00    -0.055 A 
HETATM   27  C   UNL     1      42.611 -14.710   2.498  1.00  0.00     0.008 A 
HETATM   28  C   UNL     1      43.612 -15.109   3.390  1.00  0.00     0.010 A 
BRANCH  26  29
HETATM   29  C   UNL     1      40.158 -14.280   1.931  1.00  0.00     0.010 C 
HETATM   30  C   UNL     1      39.027 -15.309   1.858  1.00  0.00     0.015 C 
HETATM   31  C   UNL     1      39.619 -12.899   2.309  1.00  0.00     0.015 C 
ENDBRANCH  26  29
ENDBRANCH   2  23
BRANCH   7  32
HETATM   32  C   UNL     1      44.766 -11.859   8.317  1.00  0.00     0.085 C 
BRANCH  32  33
HETATM   33  C   UNL     1      43.692 -11.366   9.286  1.00  0.00     0.034 C 
BRANCH  33  34
HETATM   34  C   UNL     1      44.163 -11.343  10.736  1.00  0.00     0.164 C 
BRANCH  34  35
HETATM   35  O   UNL     1      43.597 -12.440  11.444  1.00  0.00    -0.401 OA
HETATM   36  H   UNL     1      42.644 -12.451  11.254  1.00  0.00     0.209 HD
ENDBRANCH  34  35
ENDBRANCH  33  34
ENDBRANCH  32  33
ENDBRANCH   7  32
TORSDOF 8
ENDMDL
