MODEL 1
REMARK VINA RESULT:      -8.5      0.000      0.000
REMARK  7 active torsions:
REMARK  status: ('A' for Active; 'I' for Inactive)
REMARK    1  A    between atoms: C_2  and  C_3 
REMARK    2  A    between atoms: C_3  and  C_4 
REMARK    3  A    between atoms: C_5  and  O_6 
REMARK    4  A    between atoms: O_6  and  C_7 
REMARK    5  A    between atoms: C_7  and  C_8 
REMARK       I    between atoms: C_8  and  N_9 
REMARK    6  A    between atoms: N_9  and  C_10 
REMARK    7  A    between atoms: C_17  and  C_18 
REMARK       I    between atoms: C_18  and  N_19 
ROOT
HETATM    1  C   UNL     1      43.123 -18.045   1.541  1.00  0.00     0.246 C 
HETATM    2  N   UNL     1      41.752 -17.836   1.406  1.00  0.00    -0.325 N 
HETATM    3  O   UNL     1      43.991 -17.182   1.463  1.00  0.00    -0.271 OA
HETATM    4  H   UNL     1      41.151 -18.639   1.539  1.00  0.00     0.169 HD
ENDROOT
BRANCH   2   5
HETATM    5  C   UNL     1      41.092 -16.629   1.084  1.00  0.00     0.035 A 
HETATM    6  C   UNL     1      41.339 -16.095  -0.193  1.00  0.00     0.046 A 
HETATM    7  C   UNL     1      40.732 -14.881  -0.577  1.00  0.00     0.030 A 
HETATM    8  C   UNL     1      39.894 -14.239   0.326  1.00  0.00     0.063 A 
HETATM    9  C   UNL     1      40.738 -14.047  -1.735  1.00  0.00     0.156 A 
HETATM   10  N   UNL     1      39.467 -13.110  -0.315  1.00  0.00    -0.277 N 
HETATM   11  C   UNL     1      39.623 -14.742   1.598  1.00  0.00     0.034 A 
HETATM   12  H   UNL     1      38.841 -12.399   0.047  1.00  0.00     0.189 HD
HETATM   13  N   UNL     1      39.954 -12.959  -1.559  1.00  0.00    -0.168 NA
HETATM   14  C   UNL     1      40.240 -15.950   1.958  1.00  0.00     0.032 A 
BRANCH   9  15
HETATM   15  C   UNL     1      41.472 -14.269  -2.987  1.00  0.00     0.270 C 
HETATM   16  N   UNL     1      42.708 -13.686  -3.023  1.00  0.00    -0.365 N 
HETATM   17  H   UNL     1      43.020 -13.160  -2.213  1.00  0.00     0.159 HD
HETATM   18  H   UNL     1      43.288 -13.782  -3.841  1.00  0.00     0.159 HD
HETATM   19  O   UNL     1      41.041 -14.917  -3.936  1.00  0.00    -0.266 OA
ENDBRANCH   9  15
ENDBRANCH   2   5
BRANCH   1  20
HETATM   20  C   UNL     1      43.449 -19.523   1.799  1.00  0.00     0.278 C 
BRANCH  20  21
HETATM   21  O   UNL     1      44.697 -19.680   2.476  1.00  0.00    -0.342 OA
BRANCH  21  22
HETATM   22  C   UNL     1      44.588 -20.473   3.588  1.00  0.00     0.076 A 
HETATM   23  C   UNL     1      44.462 -19.913   4.869  1.00  0.00    -0.021 A 
HETATM   24  C   UNL     1      44.361 -20.809   5.957  1.00  0.00     0.010 A 
HETATM   25  C   UNL     1      44.435 -22.193   5.783  1.00  0.00     0.001 A 
HETATM   26  C   UNL     1      44.624 -22.721   4.514  1.00  0.00     0.003 A 
HETATM   27  C   UNL     1      44.710 -21.862   3.423  1.00  0.00     0.037 A 
BRANCH  23  28
HETATM   28  C   UNL     1      44.458 -18.423   5.208  1.00  0.00     0.017 C 
HETATM   29  C   UNL     1      45.220 -17.964   6.456  1.00  0.00     0.015 C 
BRANCH  28  30
HETATM   30  C   UNL     1      43.025 -17.832   5.200  1.00  0.00     0.004 C 
HETATM   31  C   UNL     1      42.946 -16.339   4.910  1.00  0.00     0.006 C 
ENDBRANCH  28  30
ENDBRANCH  23  28
ENDBRANCH  21  22
ENDBRANCH  20  21
ENDBRANCH   1  20
TORSDOF 7
ENDMDL
MODEL 2
REMARK VINA RESULT:      -8.3      1.893      3.243
REMARK  7 active torsions:
REMARK  status: ('A' for Active; 'I' for Inactive)
REMARK    1  A    between atoms: C_2  and  C_3 
REMARK    2  A    between atoms: C_3  and  C_4 
REMARK    3  A    between atoms: C_5  and  O_6 
REMARK    4  A    between atoms: O_6  and  C_7 
REMARK    5  A    between atoms: C_7  and  C_8 
REMARK       I    between atoms: C_8  and  N_9 
REMARK    6  A    between atoms: N_9  and  C_10 
REMARK    7  A    between atoms: C_17  and  C_18 
REMARK       I    between atoms: C_18  and  N_19 
ROOT
HETATM    1  C   UNL     1      40.538 -15.057   3.682  1.00  0.00     0.246 C 
HETATM    2  N   UNL     1      39.961 -15.647   2.560  1.00  0.00    -0.325 N 
HETATM    3  O   UNL     1      40.585 -13.854   3.917  1.00  0.00    -0.271 OA
HETATM    4  H   UNL     1      39.958 -16.659   2.523  1.00  0.00     0.169 HD
ENDROOT
BRANCH   2   5
HETATM    5  C   UNL     1      39.386 -14.998   1.445  1.00  0.00     0.035 A 
HETATM    6  C   UNL     1      40.178 -14.915   0.285  1.00  0.00     0.046 A 
HETATM    7  C   UNL     1      39.679 -14.261  -0.861  1.00  0.00     0.030 A 
HETATM    8  C   UNL     1      38.404 -13.714  -0.816  1.00  0.00     0.063 A 
HETATM    9  C   UNL     1      40.159 -13.974  -2.174  1.00  0.00     0.156 A 
HETATM   10  N   UNL     1      38.204 -13.156  -2.048  1.00  0.00    -0.277 N 
HETATM   11  C   UNL     1      37.590 -13.781   0.315  1.00  0.00     0.034 A 
HETATM   12  H   UNL     1      37.378 -12.665  -2.371  1.00  0.00     0.189 HD
HETATM   13  N   UNL     1      39.240 -13.293  -2.894  1.00  0.00    -0.168 NA
HETATM   14  C   UNL     1      38.108 -14.434   1.443  1.00  0.00     0.032 A 
BRANCH   9  15
HETATM   15  C   UNL     1      41.465 -14.334  -2.742  1.00  0.00     0.270 C 
HETATM   16  N   UNL     1      42.501 -13.561  -2.298  1.00  0.00    -0.365 N 
HETATM   17  H   UNL     1      42.304 -12.821  -1.633  1.00  0.00     0.159 HD
HETATM   18  H   UNL     1      43.437 -13.731  -2.631  1.00  0.00     0.159 HD
HETATM   19  O   UNL     1      41.643 -15.244  -3.546  1.00  0.00    -0.266 OA
ENDBRANCH   9  15
ENDBRANCH   2   5
BRANCH   1  20
HETATM   20  C   UNL     1      41.141 -16.107   4.628  1.00  0.00     0.278 C 
BRANCH  20  21
HETATM   21  O   UNL     1      41.462 -17.317   3.941  1.00  0.00    -0.342 OA
BRANCH  21  22
HETATM   22  C   UNL     1      42.454 -18.023   4.569  1.00  0.00     0.076 A 
HETATM   23  C   UNL     1      43.299 -18.883   3.851  1.00  0.00    -0.021 A 
HETATM   24  C   UNL     1      44.290 -19.573   4.584  1.00  0.00     0.010 A 
HETATM   25  C   UNL     1      44.401 -19.452   5.971  1.00  0.00     0.001 A 
HETATM   26  C   UNL     1      43.513 -18.645   6.668  1.00  0.00     0.003 A 
HETATM   27  C   UNL     1      42.538 -17.941   5.968  1.00  0.00     0.037 A 
BRANCH  23  28
HETATM   28  C   UNL     1      43.229 -19.175   2.352  1.00  0.00     0.017 C 
HETATM   29  C   UNL     1      43.569 -20.591   1.875  1.00  0.00     0.015 C 
BRANCH  28  30
HETATM   30  C   UNL     1      44.008 -18.123   1.522  1.00  0.00     0.004 C 
HETATM   31  C   UNL     1      43.174 -16.948   1.029  1.00  0.00     0.006 C 
ENDBRANCH  28  30
ENDBRANCH  23  28
ENDBRANCH  21  22
ENDBRANCH  20  21
ENDBRANCH   1  20
TORSDOF 7
ENDMDL
MODEL 3
REMARK VINA RESULT:      -8.2      1.817      3.264
REMARK  7 active torsions:
REMARK  status: ('A' for Active; 'I' for Inactive)
REMARK    1  A    between atoms: C_2  and  C_3 
REMARK    2  A    between atoms: C_3  and  C_4 
REMARK    3  A    between atoms: C_5  and  O_6 
REMARK    4  A    between atoms: O_6  and  C_7 
REMARK    5  A    between atoms: C_7  and  C_8 
REMARK       I    between atoms: C_8  and  N_9 
REMARK    6  A    between atoms: N_9  and  C_10 
REMARK    7  A    between atoms: C_17  and  C_18 
REMARK       I    between atoms: C_18  and  N_19 
ROOT
HETATM    1  C   UNL     1      40.700 -15.212   3.377  1.00  0.00     0.246 C 
HETATM    2  N   UNL     1      39.878 -15.659   2.346  1.00  0.00    -0.325 N 
HETATM    3  O   UNL     1      41.082 -14.058   3.542  1.00  0.00    -0.271 OA
HETATM    4  H   UNL     1      39.609 -16.636   2.363  1.00  0.00     0.169 HD
ENDROOT
BRANCH   2   5
HETATM    5  C   UNL     1      39.379 -14.912   1.255  1.00  0.00     0.035 A 
HETATM    6  C   UNL     1      40.162 -14.903   0.086  1.00  0.00     0.046 A 
HETATM    7  C   UNL     1      39.739 -14.160  -1.036  1.00  0.00     0.030 A 
HETATM    8  C   UNL     1      38.547 -13.453  -0.959  1.00  0.00     0.063 A 
HETATM    9  C   UNL     1      40.238 -13.904  -2.349  1.00  0.00     0.156 A 
HETATM   10  N   UNL     1      38.408 -12.843  -2.174  1.00  0.00    -0.277 N 
HETATM   11  C   UNL     1      37.744 -13.444   0.182  1.00  0.00     0.034 A 
HETATM   12  H   UNL     1      37.649 -12.240  -2.473  1.00  0.00     0.189 HD
HETATM   13  N   UNL     1      39.406 -13.090  -3.039  1.00  0.00    -0.168 NA
HETATM   14  C   UNL     1      38.186 -14.188   1.286  1.00  0.00     0.032 A 
BRANCH   9  15
HETATM   15  C   UNL     1      41.479 -14.415  -2.945  1.00  0.00     0.270 C 
HETATM   16  N   UNL     1      42.549 -13.574  -2.819  1.00  0.00    -0.365 N 
HETATM   17  H   UNL     1      42.416 -12.689  -2.342  1.00  0.00     0.159 HD
HETATM   18  H   UNL     1      43.445 -13.837  -3.197  1.00  0.00     0.159 HD
HETATM   19  O   UNL     1      41.579 -15.499  -3.511  1.00  0.00    -0.266 OA
ENDBRANCH   9  15
ENDBRANCH   2   5
BRANCH   1  20
HETATM   20  C   UNL     1      41.104 -16.357   4.318  1.00  0.00     0.278 C 
BRANCH  20  21
HETATM   21  O   UNL     1      41.832 -17.376   3.631  1.00  0.00    -0.342 OA
BRANCH  21  22
HETATM   22  C   UNL     1      42.757 -17.986   4.436  1.00  0.00     0.076 A 
HETATM   23  C   UNL     1      43.813 -18.733   3.892  1.00  0.00    -0.021 A 
HETATM   24  C   UNL     1      44.716 -19.330   4.801  1.00  0.00     0.010 A 
HETATM   25  C   UNL     1      44.545 -19.232   6.184  1.00  0.00     0.001 A 
HETATM   26  C   UNL     1      43.456 -18.542   6.698  1.00  0.00     0.003 A 
HETATM   27  C   UNL     1      42.561 -17.930   5.825  1.00  0.00     0.037 A 
BRANCH  23  28
HETATM   28  C   UNL     1      44.065 -18.994   2.407  1.00  0.00     0.017 C 
HETATM   29  C   UNL     1      44.022 -17.801   1.446  1.00  0.00     0.015 C 
BRANCH  28  30
HETATM   30  C   UNL     1      43.191 -20.156   1.869  1.00  0.00     0.004 C 
HETATM   31  C   UNL     1      43.883 -21.511   1.819  1.00  0.00     0.006 C 
ENDBRANCH  28  30
ENDBRANCH  23  28
ENDBRANCH  21  22
ENDBRANCH  20  21
ENDBRANCH   1  20
TORSDOF 7
ENDMDL
MODEL 4
REMARK VINA RESULT:      -8.1      3.971      5.794
REMARK  7 active torsions:
REMARK  status: ('A' for Active; 'I' for Inactive)
REMARK    1  A    between atoms: C_2  and  C_3 
REMARK    2  A    between atoms: C_3  and  C_4 
REMARK    3  A    between atoms: C_5  and  O_6 
REMARK    4  A    between atoms: O_6  and  C_7 
REMARK    5  A    between atoms: C_7  and  C_8 
REMARK       I    between atoms: C_8  and  N_9 
REMARK    6  A    between atoms: N_9  and  C_10 
REMARK    7  A    between atoms: C_17  and  C_18 
REMARK       I    between atoms: C_18  and  N_19 
ROOT
HETATM    1  C   UNL     1      42.653 -16.429   5.468  1.00  0.00     0.246 C 
HETATM    2  N   UNL     1      41.468 -16.240   4.761  1.00  0.00    -0.325 N 
HETATM    3  O   UNL     1      43.270 -15.562   6.079  1.00  0.00    -0.271 OA
HETATM    4  H   UNL     1      41.048 -17.061   4.342  1.00  0.00     0.169 HD
ENDROOT
BRANCH   2   5
HETATM    5  C   UNL     1      40.780 -15.026   4.539  1.00  0.00     0.035 A 
HETATM    6  C   UNL     1      40.544 -14.219   5.667  1.00  0.00     0.046 A 
HETATM    7  C   UNL     1      39.843 -13.003   5.527  1.00  0.00     0.030 A 
HETATM    8  C   UNL     1      39.404 -12.628   4.265  1.00  0.00     0.063 A 
HETATM    9  C   UNL     1      39.416 -11.954   6.395  1.00  0.00     0.156 A 
HETATM   10  N   UNL     1      38.768 -11.430   4.442  1.00  0.00    -0.277 N 
HETATM   11  C   UNL     1      39.624 -13.400   3.124  1.00  0.00     0.034 A 
HETATM   12  H   UNL     1      38.320 -10.863   3.732  1.00  0.00     0.189 HD
HETATM   13  N   UNL     1      38.755 -10.991   5.713  1.00  0.00    -0.168 NA
HETATM   14  C   UNL     1      40.321 -14.607   3.289  1.00  0.00     0.032 A 
BRANCH   9  15
HETATM   15  C   UNL     1      39.626 -11.859   7.845  1.00  0.00     0.270 C 
HETATM   16  N   UNL     1      38.822 -12.683   8.582  1.00  0.00    -0.365 N 
HETATM   17  H   UNL     1      38.162 -13.279   8.095  1.00  0.00     0.159 HD
HETATM   18  H   UNL     1      38.892 -12.689   9.588  1.00  0.00     0.159 HD
HETATM   19  O   UNL     1      40.444 -11.116   8.380  1.00  0.00    -0.266 OA
ENDBRANCH   9  15
ENDBRANCH   2   5
BRANCH   1  20
HETATM   20  C   UNL     1      43.131 -17.887   5.396  1.00  0.00     0.278 C 
BRANCH  20  21
HETATM   21  O   UNL     1      44.225 -18.041   4.491  1.00  0.00    -0.342 OA
BRANCH  21  22
HETATM   22  C   UNL     1      44.308 -19.313   3.990  1.00  0.00     0.076 A 
HETATM   23  C   UNL     1      43.969 -19.593   2.657  1.00  0.00    -0.021 A 
HETATM   24  C   UNL     1      44.081 -20.935   2.231  1.00  0.00     0.010 A 
HETATM   25  C   UNL     1      44.461 -21.958   3.103  1.00  0.00     0.001 A 
HETATM   26  C   UNL     1      44.730 -21.667   4.433  1.00  0.00     0.003 A 
HETATM   27  C   UNL     1      44.644 -20.350   4.875  1.00  0.00     0.037 A 
BRANCH  23  28
HETATM   28  C   UNL     1      43.454 -18.589   1.626  1.00  0.00     0.017 C 
HETATM   29  C   UNL     1      44.269 -17.313   1.390  1.00  0.00     0.015 C 
BRANCH  28  30
HETATM   30  C   UNL     1      41.960 -18.243   1.852  1.00  0.00     0.004 C 
HETATM   31  C   UNL     1      41.384 -17.216   0.886  1.00  0.00     0.006 C 
ENDBRANCH  28  30
ENDBRANCH  23  28
ENDBRANCH  21  22
ENDBRANCH  20  21
ENDBRANCH   1  20
TORSDOF 7
ENDMDL
MODEL 5
REMARK VINA RESULT:      -8.1      1.720      3.051
REMARK  7 active torsions:
REMARK  status: ('A' for Active; 'I' for Inactive)
REMARK    1  A    between atoms: C_2  and  C_3 
REMARK    2  A    between atoms: C_3  and  C_4 
REMARK    3  A    between atoms: C_5  and  O_6 
REMARK    4  A    between atoms: O_6  and  C_7 
REMARK    5  A    between atoms: C_7  and  C_8 
REMARK       I    between atoms: C_8  and  N_9 
REMARK    6  A    between atoms: N_9  and  C_10 
REMARK    7  A    between atoms: C_17  and  C_18 
REMARK       I    between atoms: C_18  and  N_19 
ROOT
HETATM    1  C   UNL     1      40.974 -15.171   3.639  1.00  0.00     0.246 C 
HETATM    2  N   UNL     1      40.200 -15.746   2.633  1.00  0.00    -0.325 N 
HETATM    3  O   UNL     1      41.176 -13.971   3.791  1.00  0.00    -0.271 OA
HETATM    4  H   UNL     1      40.087 -16.752   2.660  1.00  0.00     0.169 HD
ENDROOT
BRANCH   2   5
HETATM    5  C   UNL     1      39.561 -15.092   1.557  1.00  0.00     0.035 A 
HETATM    6  C   UNL     1      40.301 -14.960   0.368  1.00  0.00     0.046 A 
HETATM    7  C   UNL     1      39.736 -14.298  -0.742  1.00  0.00     0.030 A 
HETATM    8  C   UNL     1      38.448 -13.791  -0.632  1.00  0.00     0.063 A 
HETATM    9  C   UNL     1      40.153 -13.968  -2.067  1.00  0.00     0.156 A 
HETATM   10  N   UNL     1      38.181 -13.214  -1.843  1.00  0.00    -0.277 N 
HETATM   11  C   UNL     1      37.684 -13.908   0.528  1.00  0.00     0.034 A 
HETATM   12  H   UNL     1      37.328 -12.742  -2.121  1.00  0.00     0.189 HD
HETATM   13  N   UNL     1      39.184 -13.300  -2.733  1.00  0.00    -0.168 NA
HETATM   14  C   UNL     1      38.268 -14.568   1.620  1.00  0.00     0.032 A 
BRANCH   9  15
HETATM   15  C   UNL     1      41.444 -14.274  -2.695  1.00  0.00     0.270 C 
HETATM   16  N   UNL     1      42.490 -13.538  -2.213  1.00  0.00    -0.365 N 
HETATM   17  H   UNL     1      42.309 -12.858  -1.484  1.00  0.00     0.159 HD
HETATM   18  H   UNL     1      43.418 -13.677  -2.583  1.00  0.00     0.159 HD
HETATM   19  O   UNL     1      41.603 -15.113  -3.577  1.00  0.00    -0.266 OA
ENDBRANCH   9  15
ENDBRANCH   2   5
BRANCH   1  20
HETATM   20  C   UNL     1      41.577 -16.235   4.568  1.00  0.00     0.278 C 
BRANCH  20  21
HETATM   21  O   UNL     1      42.992 -16.343   4.402  1.00  0.00    -0.342 OA
BRANCH  21  22
HETATM   22  C   UNL     1      43.344 -17.434   3.652  1.00  0.00     0.076 A 
HETATM   23  C   UNL     1      43.804 -18.613   4.258  1.00  0.00    -0.021 A 
HETATM   24  C   UNL     1      44.149 -19.685   3.404  1.00  0.00     0.010 A 
HETATM   25  C   UNL     1      44.089 -19.569   2.013  1.00  0.00     0.001 A 
HETATM   26  C   UNL     1      43.693 -18.372   1.435  1.00  0.00     0.003 A 
HETATM   27  C   UNL     1      43.331 -17.306   2.254  1.00  0.00     0.037 A 
BRANCH  23  28
HETATM   28  C   UNL     1      44.002 -18.842   5.756  1.00  0.00     0.017 C 
HETATM   29  C   UNL     1      45.113 -18.061   6.466  1.00  0.00     0.015 C 
BRANCH  28  30
HETATM   30  C   UNL     1      44.094 -20.351   6.103  1.00  0.00     0.004 C 
HETATM   31  C   UNL     1      43.585 -20.724   7.489  1.00  0.00     0.006 C 
ENDBRANCH  28  30
ENDBRANCH  23  28
ENDBRANCH  21  22
ENDBRANCH  20  21
ENDBRANCH   1  20
TORSDOF 7
ENDMDL
MODEL 6
REMARK VINA RESULT:      -8.0      2.672      4.285
REMARK  7 active torsions:
REMARK  status: ('A' for Active; 'I' for Inactive)
REMARK    1  A    between atoms: C_2  and  C_3 
REMARK    2  A    between atoms: C_3  and  C_4 
REMARK    3  A    between atoms: C_5  and  O_6 
REMARK    4  A    between atoms: O_6  and  C_7 
REMARK    5  A    between atoms: C_7  and  C_8 
REMARK       I    between atoms: C_8  and  N_9 
REMARK    6  A    between atoms: N_9  and  C_10 
REMARK    7  A    between atoms: C_17  and  C_18 
REMARK       I    between atoms: C_18  and  N_19 
ROOT
HETATM    1  C   UNL     1      42.780 -17.356   6.045  1.00  0.00     0.246 C 
HETATM    2  N   UNL     1      42.810 -16.448   4.988  1.00  0.00    -0.325 N 
HETATM    3  O   UNL     1      42.119 -17.242   7.071  1.00  0.00    -0.271 OA
HETATM    4  H   UNL     1      43.372 -16.699   4.184  1.00  0.00     0.169 HD
ENDROOT
BRANCH   2   5
HETATM    5  C   UNL     1      42.158 -15.198   4.908  1.00  0.00     0.035 A 
HETATM    6  C   UNL     1      41.183 -15.057   3.904  1.00  0.00     0.046 A 
HETATM    7  C   UNL     1      40.505 -13.830   3.749  1.00  0.00     0.030 A 
HETATM    8  C   UNL     1      40.819 -12.782   4.603  1.00  0.00     0.063 A 
HETATM    9  C   UNL     1      39.498 -13.312   2.880  1.00  0.00     0.156 A 
HETATM   10  N   UNL     1      40.018 -11.744   4.214  1.00  0.00    -0.277 N 
HETATM   11  C   UNL     1      41.776 -12.887   5.612  1.00  0.00     0.034 A 
HETATM   12  H   UNL     1      39.980 -10.815   4.618  1.00  0.00     0.189 HD
HETATM   13  N   UNL     1      39.208 -12.025   3.179  1.00  0.00    -0.168 NA
HETATM   14  C   UNL     1      42.439 -14.116   5.746  1.00  0.00     0.032 A 
BRANCH   9  15
HETATM   15  C   UNL     1      38.820 -14.016   1.784  1.00  0.00     0.270 C 
HETATM   16  N   UNL     1      38.456 -13.211   0.742  1.00  0.00    -0.365 N 
HETATM   17  H   UNL     1      38.670 -12.221   0.796  1.00  0.00     0.159 HD
HETATM   18  H   UNL     1      37.984 -13.602  -0.058  1.00  0.00     0.159 HD
HETATM   19  O   UNL     1      38.588 -15.221   1.775  1.00  0.00    -0.266 OA
ENDBRANCH   9  15
ENDBRANCH   2   5
BRANCH   1  20
HETATM   20  C   UNL     1      43.703 -18.557   5.787  1.00  0.00     0.278 C 
BRANCH  20  21
HETATM   21  O   UNL     1      44.359 -18.459   4.522  1.00  0.00    -0.342 OA
BRANCH  21  22
HETATM   22  C   UNL     1      44.359 -19.649   3.844  1.00  0.00     0.076 A 
HETATM   23  C   UNL     1      43.934 -19.725   2.509  1.00  0.00    -0.021 A 
HETATM   24  C   UNL     1      43.965 -20.996   1.893  1.00  0.00     0.010 A 
HETATM   25  C   UNL     1      44.349 -22.145   2.589  1.00  0.00     0.001 A 
HETATM   26  C   UNL     1      44.704 -22.055   3.927  1.00  0.00     0.003 A 
HETATM   27  C   UNL     1      44.699 -20.813   4.554  1.00  0.00     0.037 A 
BRANCH  23  28
HETATM   28  C   UNL     1      43.406 -18.567   1.661  1.00  0.00     0.017 C 
HETATM   29  C   UNL     1      44.265 -17.303   1.549  1.00  0.00     0.015 C 
BRANCH  28  30
HETATM   30  C   UNL     1      41.947 -18.200   2.031  1.00  0.00     0.004 C 
HETATM   31  C   UNL     1      41.207 -17.374   0.987  1.00  0.00     0.006 C 
ENDBRANCH  28  30
ENDBRANCH  23  28
ENDBRANCH  21  22
ENDBRANCH  20  21
ENDBRANCH   1  20
TORSDOF 7
ENDMDL
MODEL 7
REMARK VINA RESULT:      -7.8      3.407      4.849
REMARK  7 active torsions:
REMARK  status: ('A' for Active; 'I' for Inactive)
REMARK    1  A    between atoms: C_2  and  C_3 
REMARK    2  A    between atoms: C_3  and  C_4 
REMARK    3  A    between atoms: C_5  and  O_6 
REMARK    4  A    between atoms: O_6  and  C_7 
REMARK    5  A    between atoms: C_7  and  C_8 
REMARK       I    between atoms: C_8  and  N_9 
REMARK    6  A    between atoms: N_9  and  C_10 
REMARK    7  A    between atoms: C_17  and  C_18 
REMARK       I    between atoms: C_18  and  N_19 
ROOT
HETATM    1  C   UNL     1      40.953 -16.571   1.870  1.00  0.00     0.246 C 
HETATM    2  N   UNL     1      41.282 -15.219   1.937  1.00  0.00    -0.325 N 
HETATM    3  O   UNL     1      39.827 -17.042   1.993  1.00  0.00    -0.271 OA
HETATM    4  H   UNL     1      42.250 -14.974   1.772  1.00  0.00     0.169 HD
ENDROOT
BRANCH   2   5
HETATM    5  C   UNL     1      40.422 -14.136   2.226  1.00  0.00     0.035 A 
HETATM    6  C   UNL     1      40.401 -13.685   3.559  1.00  0.00     0.046 A 
HETATM    7  C   UNL     1      39.550 -12.622   3.928  1.00  0.00     0.030 A 
HETATM    8  C   UNL     1      38.750 -12.040   2.955  1.00  0.00     0.063 A 
HETATM    9  C   UNL     1      39.249 -11.914   5.130  1.00  0.00     0.156 A 
HETATM   10  N   UNL     1      38.048 -11.060   3.601  1.00  0.00    -0.277 N 
HETATM   11  C   UNL     1      38.749 -12.457   1.624  1.00  0.00     0.034 A 
HETATM   12  H   UNL     1      37.363 -10.430   3.199  1.00  0.00     0.189 HD
HETATM   13  N   UNL     1      38.322 -10.953   4.913  1.00  0.00    -0.168 NA
HETATM   14  C   UNL     1      39.601 -13.517   1.281  1.00  0.00     0.032 A 
BRANCH   9  15
HETATM   15  C   UNL     1      39.824 -12.137   6.462  1.00  0.00     0.270 C 
HETATM   16  N   UNL     1      39.405 -13.289   7.067  1.00  0.00    -0.365 N 
HETATM   17  H   UNL     1      38.751 -13.886   6.573  1.00  0.00     0.159 HD
HETATM   18  H   UNL     1      39.745 -13.530   7.985  1.00  0.00     0.159 HD
HETATM   19  O   UNL     1      40.615 -11.377   7.011  1.00  0.00    -0.266 OA
ENDBRANCH   9  15
ENDBRANCH   2   5
BRANCH   1  20
HETATM   20  C   UNL     1      42.192 -17.445   1.626  1.00  0.00     0.278 C 
BRANCH  20  21
HETATM   21  O   UNL     1      43.109 -17.382   2.719  1.00  0.00    -0.342 OA
BRANCH  21  22
HETATM   22  C   UNL     1      43.598 -18.615   3.058  1.00  0.00     0.076 A 
HETATM   23  C   UNL     1      44.100 -18.869   4.344  1.00  0.00    -0.021 A 
HETATM   24  C   UNL     1      44.588 -20.170   4.600  1.00  0.00     0.010 A 
HETATM   25  C   UNL     1      44.624 -21.154   3.610  1.00  0.00     0.001 A 
HETATM   26  C   UNL     1      44.181 -20.860   2.328  1.00  0.00     0.003 A 
HETATM   27  C   UNL     1      43.679 -19.592   2.052  1.00  0.00     0.037 A 
BRANCH  23  28
HETATM   28  C   UNL     1      44.203 -17.862   5.489  1.00  0.00     0.017 C 
HETATM   29  C   UNL     1      45.324 -18.048   6.517  1.00  0.00     0.015 C 
BRANCH  28  30
HETATM   30  C   UNL     1      42.842 -17.658   6.203  1.00  0.00     0.004 C 
HETATM   31  C   UNL     1      42.927 -17.498   7.716  1.00  0.00     0.006 C 
ENDBRANCH  28  30
ENDBRANCH  23  28
ENDBRANCH  21  22
ENDBRANCH  20  21
ENDBRANCH   1  20
TORSDOF 7
ENDMDL
MODEL 8
REMARK VINA RESULT:      -7.7      2.220      3.276
REMARK  7 active torsions:
REMARK  status: ('A' for Active; 'I' for Inactive)
REMARK    1  A    between atoms: C_2  and  C_3 
REMARK    2  A    between atoms: C_3  and  C_4 
REMARK    3  A    between atoms: C_5  and  O_6 
REMARK    4  A    between atoms: O_6  and  C_7 
REMARK    5  A    between atoms: C_7  and  C_8 
REMARK       I    between atoms: C_8  and  N_9 
REMARK    6  A    between atoms: N_9  and  C_10 
REMARK    7  A    between atoms: C_17  and  C_18 
REMARK       I    between atoms: C_18  and  N_19 
ROOT
HETATM    1  C   UNL     1      41.800 -16.749   0.607  1.00  0.00     0.246 C 
HETATM    2  N   UNL     1      41.999 -15.834  -0.425  1.00  0.00    -0.325 N 
HETATM    3  O   UNL     1      40.762 -17.362   0.833  1.00  0.00    -0.271 OA
HETATM    4  H   UNL     1      42.926 -15.438  -0.514  1.00  0.00     0.169 HD
ENDROOT
BRANCH   2   5
HETATM    5  C   UNL     1      41.048 -15.372  -1.362  1.00  0.00     0.035 A 
HETATM    6  C   UNL     1      40.123 -14.417  -0.904  1.00  0.00     0.046 A 
HETATM    7  C   UNL     1      39.130 -13.926  -1.778  1.00  0.00     0.030 A 
HETATM    8  C   UNL     1      39.093 -14.401  -3.081  1.00  0.00     0.063 A 
HETATM    9  C   UNL     1      38.050 -12.996  -1.691  1.00  0.00     0.156 A 
HETATM   10  N   UNL     1      38.042 -13.757  -3.673  1.00  0.00    -0.277 N 
HETATM   11  C   UNL     1      39.997 -15.344  -3.570  1.00  0.00     0.034 A 
HETATM   12  H   UNL     1      37.719 -13.862  -4.629  1.00  0.00     0.189 HD
HETATM   13  N   UNL     1      37.389 -12.903  -2.867  1.00  0.00    -0.168 NA
HETATM   14  C   UNL     1      40.974 -15.820  -2.683  1.00  0.00     0.032 A 
BRANCH   9  15
HETATM   15  C   UNL     1      37.646 -12.209  -0.520  1.00  0.00     0.270 C 
HETATM   16  N   UNL     1      38.047 -10.903  -0.556  1.00  0.00    -0.365 N 
HETATM   17  H   UNL     1      38.577 -10.581  -1.359  1.00  0.00     0.159 HD
HETATM   18  H   UNL     1      37.817 -10.282   0.204  1.00  0.00     0.159 HD
HETATM   19  O   UNL     1      37.002 -12.655   0.425  1.00  0.00    -0.266 OA
ENDBRANCH   9  15
ENDBRANCH   2   5
BRANCH   1  20
HETATM   20  C   UNL     1      43.060 -16.913   1.470  1.00  0.00     0.278 C 
BRANCH  20  21
HETATM   21  O   UNL     1      42.751 -17.430   2.766  1.00  0.00    -0.342 OA
BRANCH  21  22
HETATM   22  C   UNL     1      43.359 -18.635   3.002  1.00  0.00     0.076 A 
HETATM   23  C   UNL     1      43.950 -18.919   4.242  1.00  0.00    -0.021 A 
HETATM   24  C   UNL     1      44.558 -20.186   4.392  1.00  0.00     0.010 A 
HETATM   25  C   UNL     1      44.620 -21.104   3.341  1.00  0.00     0.001 A 
HETATM   26  C   UNL     1      44.085 -20.775   2.104  1.00  0.00     0.003 A 
HETATM   27  C   UNL     1      43.465 -19.541   1.934  1.00  0.00     0.037 A 
BRANCH  23  28
HETATM   28  C   UNL     1      44.032 -17.975   5.442  1.00  0.00     0.017 C 
HETATM   29  C   UNL     1      45.291 -18.023   6.314  1.00  0.00     0.015 C 
BRANCH  28  30
HETATM   30  C   UNL     1      42.759 -18.049   6.323  1.00  0.00     0.004 C 
HETATM   31  C   UNL     1      41.680 -17.030   5.981  1.00  0.00     0.006 C 
ENDBRANCH  28  30
ENDBRANCH  23  28
ENDBRANCH  21  22
ENDBRANCH  20  21
ENDBRANCH   1  20
TORSDOF 7
ENDMDL
MODEL 9
REMARK VINA RESULT:      -7.6      2.864      8.855
REMARK  7 active torsions:
REMARK  status: ('A' for Active; 'I' for Inactive)
REMARK    1  A    between atoms: C_2  and  C_3 
REMARK    2  A    between atoms: C_3  and  C_4 
REMARK    3  A    between atoms: C_5  and  O_6 
REMARK    4  A    between atoms: O_6  and  C_7 
REMARK    5  A    between atoms: C_7  and  C_8 
REMARK       I    between atoms: C_8  and  N_9 
REMARK    6  A    between atoms: N_9  and  C_10 
REMARK    7  A    between atoms: C_17  and  C_18 
REMARK       I    between atoms: C_18  and  N_19 
ROOT
HETATM    1  C   UNL     1      41.637 -16.372   0.307  1.00  0.00     0.246 C 
HETATM    2  N   UNL     1      42.817 -17.060   0.579  1.00  0.00    -0.325 N 
HETATM    3  O   UNL     1      40.804 -16.019   1.135  1.00  0.00    -0.271 OA
HETATM    4  H   UNL     1      43.431 -17.246  -0.204  1.00  0.00     0.169 HD
ENDROOT
BRANCH   2   5
HETATM    5  C   UNL     1      43.259 -17.552   1.828  1.00  0.00     0.035 A 
HETATM    6  C   UNL     1      43.592 -18.918   1.886  1.00  0.00     0.046 A 
HETATM    7  C   UNL     1      44.020 -19.485   3.105  1.00  0.00     0.030 A 
HETATM    8  C   UNL     1      44.106 -18.671   4.226  1.00  0.00     0.063 A 
HETATM    9  C   UNL     1      44.423 -20.778   3.553  1.00  0.00     0.156 A 
HETATM   10  N   UNL     1      44.537 -19.487   5.235  1.00  0.00    -0.277 N 
HETATM   11  C   UNL     1      43.789 -17.313   4.203  1.00  0.00     0.034 A 
HETATM   12  H   UNL     1      44.710 -19.229   6.200  1.00  0.00     0.189 HD
HETATM   13  N   UNL     1      44.739 -20.764   4.868  1.00  0.00    -0.168 NA
HETATM   14  C   UNL     1      43.363 -16.771   2.981  1.00  0.00     0.032 A 
BRANCH   9  15
HETATM   15  C   UNL     1      44.509 -22.009   2.758  1.00  0.00     0.270 C 
HETATM   16  N   UNL     1      44.815 -23.126   3.484  1.00  0.00    -0.365 N 
HETATM   17  H   UNL     1      44.957 -23.030   4.483  1.00  0.00     0.159 HD
HETATM   18  H   UNL     1      44.896 -24.020   3.026  1.00  0.00     0.159 HD
HETATM   19  O   UNL     1      44.325 -22.064   1.545  1.00  0.00    -0.266 OA
ENDBRANCH   9  15
ENDBRANCH   2   5
BRANCH   1  20
HETATM   20  C   UNL     1      41.475 -16.096  -1.196  1.00  0.00     0.278 C 
BRANCH  20  21
HETATM   21  O   UNL     1      40.904 -14.809  -1.440  1.00  0.00    -0.342 OA
BRANCH  21  22
HETATM   22  C   UNL     1      39.817 -14.873  -2.270  1.00  0.00     0.076 A 
HETATM   23  C   UNL     1      38.628 -14.193  -1.964  1.00  0.00    -0.021 A 
HETATM   24  C   UNL     1      37.558 -14.322  -2.877  1.00  0.00     0.010 A 
HETATM   25  C   UNL     1      37.648 -15.131  -4.012  1.00  0.00     0.001 A 
HETATM   26  C   UNL     1      38.812 -15.845  -4.260  1.00  0.00     0.003 A 
HETATM   27  C   UNL     1      39.888 -15.723  -3.386  1.00  0.00     0.037 A 
BRANCH  23  28
HETATM   28  C   UNL     1      38.365 -13.350  -0.716  1.00  0.00     0.017 C 
HETATM   29  C   UNL     1      37.646 -14.012   0.464  1.00  0.00     0.015 C 
BRANCH  28  30
HETATM   30  C   UNL     1      37.699 -11.994  -1.065  1.00  0.00     0.004 C 
HETATM   31  C   UNL     1      37.304 -11.144   0.136  1.00  0.00     0.006 C 
ENDBRANCH  28  30
ENDBRANCH  23  28
ENDBRANCH  21  22
ENDBRANCH  20  21
ENDBRANCH   1  20
TORSDOF 7
ENDMDL
MODEL 10
REMARK VINA RESULT:      -7.2      2.862      9.203
REMARK  7 active torsions:
REMARK  status: ('A' for Active; 'I' for Inactive)
REMARK    1  A    between atoms: C_2  and  C_3 
REMARK    2  A    between atoms: C_3  and  C_4 
REMARK    3  A    between atoms: C_5  and  O_6 
REMARK    4  A    between atoms: O_6  and  C_7 
REMARK    5  A    between atoms: C_7  and  C_8 
REMARK       I    between atoms: C_8  and  N_9 
REMARK    6  A    between atoms: N_9  and  C_10 
REMARK    7  A    between atoms: C_17  and  C_18 
REMARK       I    between atoms: C_18  and  N_19 
ROOT
HETATM    1  C   UNL     1      41.174 -15.865   1.707  1.00  0.00     0.246 C 
HETATM    2  N   UNL     1      42.489 -16.321   1.665  1.00  0.00    -0.325 N 
HETATM    3  O   UNL     1      40.232 -16.439   2.243  1.00  0.00    -0.271 OA
HETATM    4  H   UNL     1      43.170 -15.716   1.223  1.00  0.00     0.169 HD
ENDROOT
BRANCH   2   5
HETATM    5  C   UNL     1      42.992 -17.548   2.154  1.00  0.00     0.035 A 
HETATM    6  C   UNL     1      43.385 -17.575   3.504  1.00  0.00     0.046 A 
HETATM    7  C   UNL     1      43.918 -18.758   4.057  1.00  0.00     0.030 A 
HETATM    8  C   UNL     1      44.039 -19.878   3.246  1.00  0.00     0.063 A 
HETATM    9  C   UNL     1      44.418 -19.166   5.330  1.00  0.00     0.156 A 
HETATM   10  N   UNL     1      44.579 -20.848   4.044  1.00  0.00    -0.277 N 
HETATM   11  C   UNL     1      43.655 -19.888   1.905  1.00  0.00     0.034 A 
HETATM   12  H   UNL     1      44.807 -21.801   3.782  1.00  0.00     0.189 HD
HETATM   13  N   UNL     1      44.821 -20.457   5.307  1.00  0.00    -0.168 NA
HETATM   14  C   UNL     1      43.130 -18.700   1.377  1.00  0.00     0.032 A 
BRANCH   9  15
HETATM   15  C   UNL     1      44.516 -18.354   6.549  1.00  0.00     0.270 C 
HETATM   16  N   UNL     1      43.378 -18.339   7.305  1.00  0.00    -0.365 N 
HETATM   17  H   UNL     1      42.575 -18.868   6.984  1.00  0.00     0.159 HD
HETATM   18  H   UNL     1      43.348 -17.808   8.162  1.00  0.00     0.159 HD
HETATM   19  O   UNL     1      45.519 -17.732   6.888  1.00  0.00    -0.266 OA
ENDBRANCH   9  15
ENDBRANCH   2   5
BRANCH   1  20
HETATM   20  C   UNL     1      41.015 -14.522   0.978  1.00  0.00     0.278 C 
BRANCH  20  21
HETATM   21  O   UNL     1      40.292 -14.665  -0.245  1.00  0.00    -0.342 OA
BRANCH  21  22
HETATM   22  C   UNL     1      40.836 -13.923  -1.259  1.00  0.00     0.076 A 
HETATM   23  C   UNL     1      40.317 -13.982  -2.562  1.00  0.00    -0.021 A 
HETATM   24  C   UNL     1      40.947 -13.184  -3.544  1.00  0.00     0.010 A 
HETATM   25  C   UNL     1      42.071 -12.408  -3.255  1.00  0.00     0.001 A 
HETATM   26  C   UNL     1      42.606 -12.415  -1.974  1.00  0.00     0.003 A 
HETATM   27  C   UNL     1      41.995 -13.178  -0.984  1.00  0.00     0.037 A 
BRANCH  23  28
HETATM   28  C   UNL     1      39.153 -14.854  -3.033  1.00  0.00     0.017 C 
HETATM   29  C   UNL     1      39.474 -16.094  -3.874  1.00  0.00     0.015 C 
BRANCH  28  30
HETATM   30  C   UNL     1      38.038 -14.014  -3.708  1.00  0.00     0.004 C 
HETATM   31  C   UNL     1      36.699 -14.725  -3.856  1.00  0.00     0.006 C 
ENDBRANCH  28  30
ENDBRANCH  23  28
ENDBRANCH  21  22
ENDBRANCH  20  21
ENDBRANCH   1  20
TORSDOF 7
ENDMDL
