MODEL 1
REMARK VINA RESULT:      -9.4      0.000      0.000
REMARK  7 active torsions:
REMARK  status: ('A' for Active; 'I' for Inactive)
REMARK    1  A    between atoms: C_4  and  C_5 
REMARK    2  A    between atoms: C_5  and  N_6 
REMARK    3  A    between atoms: C_14  and  C_15 
REMARK    4  A    between atoms: C_18  and  O_19 
REMARK    5  A    between atoms: O_19  and  C_20 
REMARK    6  A    between atoms: C_20  and  C_21 
REMARK    7  A    between atoms: C_22  and  C_23 
ROOT
HETATM    1  N   UNL     1      41.330 -11.394   6.942  1.00  0.00    -0.063 N 
HETATM    2  H   UNL     1      42.263 -11.821   6.932  1.00  0.00     0.280 HD
HETATM    3  C   UNL     1      40.358 -12.564   6.842  1.00  0.00     0.282 C 
HETATM    4  C   UNL     1      40.503 -13.230   5.516  1.00  0.00     0.018 A 
HETATM    5  C   UNL     1      41.131 -12.677   4.415  1.00  0.00    -0.023 A 
HETATM    6  C   UNL     1      41.113 -13.580   3.304  1.00  0.00     0.073 A 
HETATM    7  C   UNL     1      40.403 -14.721   3.587  1.00  0.00     0.088 A 
HETATM    8  N   UNL     1      40.182 -15.700   2.689  1.00  0.00    -0.358 N 
HETATM    9  C   UNL     1      40.965 -15.757   1.470  1.00  0.00     0.219 C 
HETATM   10  N   UNL     1      41.539 -14.479   1.138  1.00  0.00    -0.332 N 
HETATM   11  C   UNL     1      41.711 -13.429   1.991  1.00  0.00     0.256 C 
HETATM   12  O   UNL     1      42.338 -12.426   1.666  1.00  0.00    -0.267 OA
HETATM   13  S   UNL     1      39.841 -14.764   5.192  1.00  0.00    -0.074 SA
HETATM   14  C   UNL     1      41.749 -11.309   4.465  1.00  0.00     0.068 C 
HETATM   15  C   UNL     1      41.263 -10.518   5.696  1.00  0.00     0.240 C 
HETATM   16  H   UNL     1      39.830 -16.599   3.005  1.00  0.00     0.162 HD
HETATM   17  H   UNL     1      42.009 -14.392   0.249  1.00  0.00     0.165 HD
ENDROOT
BRANCH   9  18
HETATM   18  C   UNL     1      41.998 -16.863   1.577  1.00  0.00    -0.016 A 
HETATM   19  C   UNL     1      41.576 -18.192   1.767  1.00  0.00     0.014 A 
HETATM   20  C   UNL     1      42.506 -19.214   1.970  1.00  0.00     0.038 A 
HETATM   21  C   UNL     1      43.868 -18.915   1.982  1.00  0.00     0.079 A 
HETATM   22  C   UNL     1      44.311 -17.610   1.788  1.00  0.00     0.038 A 
HETATM   23  C   UNL     1      43.378 -16.591   1.579  1.00  0.00     0.014 A 
BRANCH  21  24
HETATM   24  O   UNL     1      44.723 -19.976   2.343  1.00  0.00    -0.276 OA
BRANCH  24  25
HETATM   25  C   UNL     1      44.717 -20.527   3.615  1.00  0.00     0.288 C 
HETATM   26  O   UNL     1      44.791 -21.712   3.904  1.00  0.00    -0.260 OA
BRANCH  25  27
HETATM   27  C   UNL     1      44.657 -19.465   4.643  1.00  0.00     0.085 C 
HETATM   28  C   UNL     1      43.616 -19.275   5.467  1.00  0.00     0.043 C 
BRANCH  28  29
HETATM   29  C   UNL     1      43.596 -18.185   6.379  1.00  0.00     0.075 A 
HETATM   30  O   UNL     1      43.236 -18.290   7.704  1.00  0.00    -0.323 OA
HETATM   31  C   UNL     1      43.357 -17.069   8.280  1.00  0.00     0.142 A 
HETATM   32  C   UNL     1      43.789 -16.148   7.360  1.00  0.00     0.027 A 
HETATM   33  C   UNL     1      43.939 -16.858   6.146  1.00  0.00     0.039 A 
ENDBRANCH  28  29
ENDBRANCH  25  27
ENDBRANCH  24  25
ENDBRANCH  21  24
ENDBRANCH   9  18
BRANCH   1  34
HETATM   34  C   UNL     1      41.247 -10.641   8.246  1.00  0.00     0.273 C 
BRANCH  34  35
HETATM   35  C   UNL     1      42.477 -10.686   9.110  1.00  0.00    -0.033 A 
HETATM   36  C   UNL     1      43.601 -11.425   8.700  1.00  0.00     0.009 A 
HETATM   37  C   UNL     1      44.735 -11.497   9.509  1.00  0.00     0.001 A 
HETATM   38  C   UNL     1      44.763 -10.830  10.732  1.00  0.00     0.000 A 
HETATM   39  C   UNL     1      43.662 -10.085  11.144  1.00  0.00     0.001 A 
HETATM   40  C   UNL     1      42.524 -10.009  10.337  1.00  0.00     0.009 A 
ENDBRANCH  34  35
ENDBRANCH   1  34
TORSDOF 7
ENDMDL
MODEL 2
REMARK VINA RESULT:      -9.3      3.134      8.732
REMARK  7 active torsions:
REMARK  status: ('A' for Active; 'I' for Inactive)
REMARK    1  A    between atoms: C_4  and  C_5 
REMARK    2  A    between atoms: C_5  and  N_6 
REMARK    3  A    between atoms: C_14  and  C_15 
REMARK    4  A    between atoms: C_18  and  O_19 
REMARK    5  A    between atoms: O_19  and  C_20 
REMARK    6  A    between atoms: C_20  and  C_21 
REMARK    7  A    between atoms: C_22  and  C_23 
ROOT
HETATM    1  N   UNL     1      43.098 -17.958   2.298  1.00  0.00    -0.063 N 
HETATM    2  H   UNL     1      42.651 -18.096   3.212  1.00  0.00     0.280 HD
HETATM    3  C   UNL     1      43.910 -16.677   2.443  1.00  0.00     0.282 C 
HETATM    4  C   UNL     1      42.995 -15.518   2.644  1.00  0.00     0.018 A 
HETATM    5  C   UNL     1      41.637 -15.522   2.375  1.00  0.00    -0.023 A 
HETATM    6  C   UNL     1      41.045 -14.258   2.692  1.00  0.00     0.073 A 
HETATM    7  C   UNL     1      41.986 -13.342   3.093  1.00  0.00     0.088 A 
HETATM    8  N   UNL     1      41.697 -12.059   3.386  1.00  0.00    -0.358 N 
HETATM    9  C   UNL     1      40.321 -11.659   3.614  1.00  0.00     0.219 C 
HETATM   10  N   UNL     1      39.387 -12.576   3.013  1.00  0.00    -0.332 N 
HETATM   11  C   UNL     1      39.653 -13.857   2.625  1.00  0.00     0.256 C 
HETATM   12  O   UNL     1      38.767 -14.618   2.253  1.00  0.00    -0.267 OA
HETATM   13  S   UNL     1      43.550 -14.004   3.186  1.00  0.00    -0.074 SA
HETATM   14  C   UNL     1      40.945 -16.744   1.844  1.00  0.00     0.068 C 
HETATM   15  C   UNL     1      41.957 -17.774   1.304  1.00  0.00     0.240 C 
HETATM   16  H   UNL     1      42.386 -11.488   3.865  1.00  0.00     0.162 HD
HETATM   17  H   UNL     1      38.410 -12.324   3.021  1.00  0.00     0.165 HD
ENDROOT
BRANCH   9  18
HETATM   18  C   UNL     1      40.087 -11.460   5.099  1.00  0.00    -0.016 A 
HETATM   19  C   UNL     1      39.764 -12.566   5.906  1.00  0.00     0.014 A 
HETATM   20  C   UNL     1      39.443 -12.396   7.255  1.00  0.00     0.038 A 
HETATM   21  C   UNL     1      39.448 -11.118   7.809  1.00  0.00     0.079 A 
HETATM   22  C   UNL     1      39.772 -10.008   7.034  1.00  0.00     0.038 A 
HETATM   23  C   UNL     1      40.098 -10.182   5.687  1.00  0.00     0.014 A 
BRANCH  21  24
HETATM   24  O   UNL     1      38.967 -11.022   9.131  1.00  0.00    -0.276 OA
BRANCH  24  25
HETATM   25  C   UNL     1      39.643 -10.312  10.112  1.00  0.00     0.288 C 
HETATM   26  O   UNL     1      39.187  -9.438  10.834  1.00  0.00    -0.260 OA
BRANCH  25  27
HETATM   27  C   UNL     1      41.039 -10.786  10.230  1.00  0.00     0.085 C 
HETATM   28  C   UNL     1      42.115 -10.022   9.987  1.00  0.00     0.043 C 
BRANCH  28  29
HETATM   29  C   UNL     1      43.426 -10.567  10.046  1.00  0.00     0.075 A 
HETATM   30  O   UNL     1      44.144 -10.978   8.944  1.00  0.00    -0.323 OA
HETATM   31  C   UNL     1      45.357 -11.415   9.361  1.00  0.00     0.142 A 
HETATM   32  C   UNL     1      45.461 -11.308  10.724  1.00  0.00     0.027 A 
HETATM   33  C   UNL     1      44.229 -10.769  11.163  1.00  0.00     0.039 A 
ENDBRANCH  28  29
ENDBRANCH  25  27
ENDBRANCH  24  25
ENDBRANCH  21  24
ENDBRANCH   9  18
BRANCH   1  34
HETATM   34  C   UNL     1      43.936 -19.191   2.072  1.00  0.00     0.273 C 
BRANCH  34  35
HETATM   35  C   UNL     1      44.172 -20.056   3.280  1.00  0.00    -0.033 A 
HETATM   36  C   UNL     1      44.107 -19.501   4.570  1.00  0.00     0.009 A 
HETATM   37  C   UNL     1      44.354 -20.289   5.694  1.00  0.00     0.001 A 
HETATM   38  C   UNL     1      44.664 -21.638   5.545  1.00  0.00     0.000 A 
HETATM   39  C   UNL     1      44.719 -22.204   4.274  1.00  0.00     0.001 A 
HETATM   40  C   UNL     1      44.472 -21.419   3.145  1.00  0.00     0.009 A 
ENDBRANCH  34  35
ENDBRANCH   1  34
TORSDOF 7
ENDMDL
MODEL 3
REMARK VINA RESULT:      -9.0      3.778      8.310
REMARK  7 active torsions:
REMARK  status: ('A' for Active; 'I' for Inactive)
REMARK    1  A    between atoms: C_4  and  C_5 
REMARK    2  A    between atoms: C_5  and  N_6 
REMARK    3  A    between atoms: C_14  and  C_15 
REMARK    4  A    between atoms: C_18  and  O_19 
REMARK    5  A    between atoms: O_19  and  C_20 
REMARK    6  A    between atoms: C_20  and  C_21 
REMARK    7  A    between atoms: C_22  and  C_23 
ROOT
HETATM    1  N   UNL     1      40.086 -13.593  -1.723  1.00  0.00    -0.063 N 
HETATM    2  H   UNL     1      40.926 -13.113  -1.380  1.00  0.00     0.280 HD
HETATM    3  C   UNL     1      39.183 -13.732  -0.504  1.00  0.00     0.282 C 
HETATM    4  C   UNL     1      39.813 -14.645   0.492  1.00  0.00     0.018 A 
HETATM    5  C   UNL     1      40.853 -15.517   0.222  1.00  0.00    -0.023 A 
HETATM    6  C   UNL     1      41.238 -16.239   1.397  1.00  0.00     0.073 A 
HETATM    7  C   UNL     1      40.422 -15.948   2.463  1.00  0.00     0.088 A 
HETATM    8  N   UNL     1      40.533 -16.543   3.666  1.00  0.00    -0.358 N 
HETATM    9  C   UNL     1      41.733 -17.283   4.002  1.00  0.00     0.219 C 
HETATM   10  N   UNL     1      42.449 -17.710   2.829  1.00  0.00    -0.332 N 
HETATM   11  C   UNL     1      42.315 -17.194   1.573  1.00  0.00     0.256 C 
HETATM   12  O   UNL     1      43.065 -17.515   0.657  1.00  0.00    -0.267 OA
HETATM   13  S   UNL     1      39.266 -14.755   2.099  1.00  0.00    -0.074 SA
HETATM   14  C   UNL     1      41.461 -15.617  -1.147  1.00  0.00     0.068 C 
HETATM   15  C   UNL     1      40.561 -14.957  -2.211  1.00  0.00     0.240 C 
HETATM   16  H   UNL     1      40.043 -16.150   4.465  1.00  0.00     0.162 HD
HETATM   17  H   UNL     1      43.238 -18.326   2.957  1.00  0.00     0.165 HD
ENDROOT
BRANCH   9  18
HETATM   18  C   UNL     1      42.586 -16.469   4.957  1.00  0.00    -0.016 A 
HETATM   19  C   UNL     1      43.510 -17.121   5.793  1.00  0.00     0.014 A 
HETATM   20  C   UNL     1      44.233 -16.407   6.751  1.00  0.00     0.038 A 
HETATM   21  C   UNL     1      44.042 -15.032   6.877  1.00  0.00     0.079 A 
HETATM   22  C   UNL     1      43.140 -14.362   6.055  1.00  0.00     0.038 A 
HETATM   23  C   UNL     1      42.422 -15.078   5.094  1.00  0.00     0.014 A 
BRANCH  21  24
HETATM   24  O   UNL     1      44.698 -14.421   7.965  1.00  0.00    -0.276 OA
BRANCH  24  25
HETATM   25  C   UNL     1      45.324 -13.189   7.850  1.00  0.00     0.288 C 
HETATM   26  O   UNL     1      46.148 -12.857   7.011  1.00  0.00    -0.260 OA
BRANCH  25  27
HETATM   27  C   UNL     1      44.822 -12.252   8.879  1.00  0.00     0.085 C 
HETATM   28  C   UNL     1      44.618 -12.585  10.163  1.00  0.00     0.043 C 
BRANCH  28  29
HETATM   29  C   UNL     1      44.061 -11.653  11.079  1.00  0.00     0.075 A 
HETATM   30  O   UNL     1      43.261 -11.999  12.146  1.00  0.00    -0.323 OA
HETATM   31  C   UNL     1      42.933 -10.870  12.820  1.00  0.00     0.142 A 
HETATM   32  C   UNL     1      43.496  -9.774  12.220  1.00  0.00     0.027 A 
HETATM   33  C   UNL     1      44.214 -10.271  11.107  1.00  0.00     0.039 A 
ENDBRANCH  28  29
ENDBRANCH  25  27
ENDBRANCH  24  25
ENDBRANCH  21  24
ENDBRANCH   9  18
BRANCH   1  34
HETATM   34  C   UNL     1      39.526 -12.700  -2.801  1.00  0.00     0.273 C 
BRANCH  34  35
HETATM   35  C   UNL     1      40.471 -11.673  -3.361  1.00  0.00    -0.033 A 
HETATM   36  C   UNL     1      41.615 -12.080  -4.070  1.00  0.00     0.009 A 
HETATM   37  C   UNL     1      42.514 -11.135  -4.567  1.00  0.00     0.001 A 
HETATM   38  C   UNL     1      42.279  -9.777  -4.367  1.00  0.00     0.000 A 
HETATM   39  C   UNL     1      41.144  -9.360  -3.678  1.00  0.00     0.001 A 
HETATM   40  C   UNL     1      40.241 -10.302  -3.179  1.00  0.00     0.009 A 
ENDBRANCH  34  35
ENDBRANCH   1  34
TORSDOF 7
ENDMDL
MODEL 4
REMARK VINA RESULT:      -8.9      3.152      8.364
REMARK  7 active torsions:
REMARK  status: ('A' for Active; 'I' for Inactive)
REMARK    1  A    between atoms: C_4  and  C_5 
REMARK    2  A    between atoms: C_5  and  N_6 
REMARK    3  A    between atoms: C_14  and  C_15 
REMARK    4  A    between atoms: C_18  and  O_19 
REMARK    5  A    between atoms: O_19  and  C_20 
REMARK    6  A    between atoms: C_20  and  C_21 
REMARK    7  A    between atoms: C_22  and  C_23 
ROOT
HETATM    1  N   UNL     1      44.164 -18.666   5.587  1.00  0.00    -0.063 N 
HETATM    2  H   UNL     1      44.329 -18.231   4.672  1.00  0.00     0.280 HD
HETATM    3  C   UNL     1      42.659 -18.574   5.805  1.00  0.00     0.282 C 
HETATM    4  C   UNL     1      42.254 -17.146   5.939  1.00  0.00     0.018 A 
HETATM    5  C   UNL     1      43.118 -16.097   6.198  1.00  0.00    -0.023 A 
HETATM    6  C   UNL     1      42.415 -14.851   6.249  1.00  0.00     0.073 A 
HETATM    7  C   UNL     1      41.059 -15.026   6.118  1.00  0.00     0.088 A 
HETATM    8  N   UNL     1      40.169 -14.018   6.197  1.00  0.00    -0.358 N 
HETATM    9  C   UNL     1      40.618 -12.643   6.093  1.00  0.00     0.219 C 
HETATM   10  N   UNL     1      42.014 -12.507   6.416  1.00  0.00    -0.332 N 
HETATM   11  C   UNL     1      42.939 -13.510   6.428  1.00  0.00     0.256 C 
HETATM   12  O   UNL     1      44.136 -13.286   6.574  1.00  0.00    -0.267 OA
HETATM   13  S   UNL     1      40.630 -16.648   5.841  1.00  0.00    -0.074 SA
HETATM   14  C   UNL     1      44.594 -16.316   6.367  1.00  0.00     0.068 C 
HETATM   15  C   UNL     1      44.918 -17.806   6.595  1.00  0.00     0.240 C 
HETATM   16  H   UNL     1      39.211 -14.171   5.896  1.00  0.00     0.162 HD
HETATM   17  H   UNL     1      42.394 -11.573   6.479  1.00  0.00     0.165 HD
ENDROOT
BRANCH   9  18
HETATM   18  C   UNL     1      40.267 -12.093   4.723  1.00  0.00    -0.016 A 
HETATM   19  C   UNL     1      38.965 -12.260   4.220  1.00  0.00     0.014 A 
HETATM   20  C   UNL     1      38.643 -11.855   2.923  1.00  0.00     0.038 A 
HETATM   21  C   UNL     1      39.622 -11.274   2.119  1.00  0.00     0.079 A 
HETATM   22  C   UNL     1      40.917 -11.089   2.597  1.00  0.00     0.038 A 
HETATM   23  C   UNL     1      41.233 -11.491   3.897  1.00  0.00     0.014 A 
BRANCH  21  24
HETATM   24  O   UNL     1      39.252 -11.035   0.780  1.00  0.00    -0.276 OA
BRANCH  24  25
HETATM   25  C   UNL     1      39.221 -12.046  -0.168  1.00  0.00     0.288 C 
HETATM   26  O   UNL     1      38.555 -12.074  -1.193  1.00  0.00    -0.260 OA
BRANCH  25  27
HETATM   27  C   UNL     1      40.169 -13.124   0.189  1.00  0.00     0.085 C 
HETATM   28  C   UNL     1      39.800 -14.372   0.513  1.00  0.00     0.043 C 
BRANCH  28  29
HETATM   29  C   UNL     1      40.762 -15.336   0.921  1.00  0.00     0.075 A 
HETATM   30  O   UNL     1      41.420 -16.187   0.060  1.00  0.00    -0.323 OA
HETATM   31  C   UNL     1      42.280 -16.945   0.781  1.00  0.00     0.142 A 
HETATM   32  C   UNL     1      42.207 -16.619   2.111  1.00  0.00     0.027 A 
HETATM   33  C   UNL     1      41.237 -15.593   2.202  1.00  0.00     0.039 A 
ENDBRANCH  28  29
ENDBRANCH  25  27
ENDBRANCH  24  25
ENDBRANCH  21  24
ENDBRANCH   9  18
BRANCH   1  34
HETATM   34  C   UNL     1      44.677 -20.078   5.457  1.00  0.00     0.273 C 
BRANCH  34  35
HETATM   35  C   UNL     1      44.508 -20.717   4.106  1.00  0.00    -0.033 A 
HETATM   36  C   UNL     1      44.071 -19.950   3.012  1.00  0.00     0.009 A 
HETATM   37  C   UNL     1      43.883 -20.541   1.762  1.00  0.00     0.001 A 
HETATM   38  C   UNL     1      44.131 -21.900   1.589  1.00  0.00     0.000 A 
HETATM   39  C   UNL     1      44.576 -22.669   2.661  1.00  0.00     0.001 A 
HETATM   40  C   UNL     1      44.767 -22.082   3.914  1.00  0.00     0.009 A 
ENDBRANCH  34  35
ENDBRANCH   1  34
TORSDOF 7
ENDMDL
MODEL 5
REMARK VINA RESULT:      -8.5      3.864      9.022
REMARK  7 active torsions:
REMARK  status: ('A' for Active; 'I' for Inactive)
REMARK    1  A    between atoms: C_4  and  C_5 
REMARK    2  A    between atoms: C_5  and  N_6 
REMARK    3  A    between atoms: C_14  and  C_15 
REMARK    4  A    between atoms: C_18  and  O_19 
REMARK    5  A    between atoms: O_19  and  C_20 
REMARK    6  A    between atoms: C_20  and  C_21 
REMARK    7  A    between atoms: C_22  and  C_23 
ROOT
HETATM    1  N   UNL     1      44.151 -17.892   5.399  1.00  0.00    -0.063 N 
HETATM    2  H   UNL     1      44.707 -17.389   4.699  1.00  0.00     0.280 HD
HETATM    3  C   UNL     1      42.806 -18.144   4.730  1.00  0.00     0.282 C 
HETATM    4  C   UNL     1      42.109 -16.848   4.489  1.00  0.00     0.018 A 
HETATM    5  C   UNL     1      42.436 -15.648   5.095  1.00  0.00    -0.023 A 
HETATM    6  C   UNL     1      41.586 -14.591   4.637  1.00  0.00     0.073 A 
HETATM    7  C   UNL     1      40.612 -15.054   3.786  1.00  0.00     0.088 A 
HETATM    8  N   UNL     1      39.647 -14.272   3.266  1.00  0.00    -0.358 N 
HETATM    9  C   UNL     1      39.779 -12.829   3.312  1.00  0.00     0.219 C 
HETATM   10  N   UNL     1      40.685 -12.403   4.346  1.00  0.00    -0.332 N 
HETATM   11  C   UNL     1      41.626 -13.178   4.960  1.00  0.00     0.256 C 
HETATM   12  O   UNL     1      42.454 -12.703   5.730  1.00  0.00    -0.267 OA
HETATM   13  S   UNL     1      40.762 -16.716   3.458  1.00  0.00    -0.074 SA
HETATM   14  C   UNL     1      43.566 -15.544   6.078  1.00  0.00     0.068 C 
HETATM   15  C   UNL     1      44.007 -16.935   6.577  1.00  0.00     0.240 C 
HETATM   16  H   UNL     1      39.083 -14.618   2.496  1.00  0.00     0.162 HD
HETATM   17  H   UNL     1      40.759 -11.413   4.530  1.00  0.00     0.165 HD
ENDROOT
BRANCH   9  18
HETATM   18  C   UNL     1      40.156 -12.306   1.939  1.00  0.00    -0.016 A 
HETATM   19  C   UNL     1      41.508 -12.292   1.548  1.00  0.00     0.014 A 
HETATM   20  C   UNL     1      41.893 -11.724   0.332  1.00  0.00     0.038 A 
HETATM   21  C   UNL     1      40.928 -11.168  -0.507  1.00  0.00     0.079 A 
HETATM   22  C   UNL     1      39.583 -11.178  -0.147  1.00  0.00     0.038 A 
HETATM   23  C   UNL     1      39.201 -11.752   1.067  1.00  0.00     0.014 A 
BRANCH  21  24
HETATM   24  O   UNL     1      41.420 -10.485  -1.637  1.00  0.00    -0.276 OA
BRANCH  24  25
HETATM   25  C   UNL     1      41.705 -11.138  -2.827  1.00  0.00     0.288 C 
HETATM   26  O   UNL     1      42.680 -10.968  -3.544  1.00  0.00    -0.260 OA
BRANCH  25  27
HETATM   27  C   UNL     1      40.670 -12.151  -3.126  1.00  0.00     0.085 C 
HETATM   28  C   UNL     1      40.890 -13.475  -3.115  1.00  0.00     0.043 C 
BRANCH  28  29
HETATM   29  C   UNL     1      39.866 -14.388  -3.489  1.00  0.00     0.075 A 
HETATM   30  O   UNL     1      40.094 -15.590  -4.120  1.00  0.00    -0.323 OA
HETATM   31  C   UNL     1      38.903 -16.213  -4.299  1.00  0.00     0.142 A 
HETATM   32  C   UNL     1      37.883 -15.445  -3.801  1.00  0.00     0.027 A 
HETATM   33  C   UNL     1      38.495 -14.278  -3.286  1.00  0.00     0.039 A 
ENDBRANCH  28  29
ENDBRANCH  25  27
ENDBRANCH  24  25
ENDBRANCH  21  24
ENDBRANCH   9  18
BRANCH   1  34
HETATM   34  C   UNL     1      44.928 -19.149   5.701  1.00  0.00     0.273 C 
BRANCH  34  35
HETATM   35  C   UNL     1      44.761 -20.277   4.720  1.00  0.00    -0.033 A 
HETATM   36  C   UNL     1      44.770 -21.609   5.168  1.00  0.00     0.009 A 
HETATM   37  C   UNL     1      44.646 -22.663   4.262  1.00  0.00     0.001 A 
HETATM   38  C   UNL     1      44.509 -22.399   2.901  1.00  0.00     0.000 A 
HETATM   39  C   UNL     1      44.487 -21.084   2.445  1.00  0.00     0.001 A 
HETATM   40  C   UNL     1      44.609 -20.026   3.348  1.00  0.00     0.009 A 
ENDBRANCH  34  35
ENDBRANCH   1  34
TORSDOF 7
ENDMDL
MODEL 6
REMARK VINA RESULT:      -8.4      3.370      7.212
REMARK  7 active torsions:
REMARK  status: ('A' for Active; 'I' for Inactive)
REMARK    1  A    between atoms: C_4  and  C_5 
REMARK    2  A    between atoms: C_5  and  N_6 
REMARK    3  A    between atoms: C_14  and  C_15 
REMARK    4  A    between atoms: C_18  and  O_19 
REMARK    5  A    between atoms: O_19  and  C_20 
REMARK    6  A    between atoms: C_20  and  C_21 
REMARK    7  A    between atoms: C_22  and  C_23 
ROOT
HETATM    1  N   UNL     1      40.310 -13.383   0.798  1.00  0.00    -0.063 N 
HETATM    2  H   UNL     1      40.205 -14.400   0.706  1.00  0.00     0.280 HD
HETATM    3  C   UNL     1      41.768 -13.168   1.184  1.00  0.00     0.282 C 
HETATM    4  C   UNL     1      42.023 -13.743   2.536  1.00  0.00     0.018 A 
HETATM    5  C   UNL     1      41.043 -14.081   3.453  1.00  0.00    -0.023 A 
HETATM    6  C   UNL     1      41.619 -14.622   4.646  1.00  0.00     0.073 A 
HETATM    7  C   UNL     1      42.991 -14.584   4.612  1.00  0.00     0.088 A 
HETATM    8  N   UNL     1      43.771 -14.974   5.639  1.00  0.00    -0.358 N 
HETATM    9  C   UNL     1      43.210 -15.768   6.715  1.00  0.00     0.219 C 
HETATM   10  N   UNL     1      41.781 -15.623   6.803  1.00  0.00    -0.332 N 
HETATM   11  C   UNL     1      40.957 -15.158   5.820  1.00  0.00     0.256 C 
HETATM   12  O   UNL     1      39.736 -15.200   5.925  1.00  0.00    -0.267 OA
HETATM   13  S   UNL     1      43.596 -13.998   3.134  1.00  0.00    -0.074 SA
HETATM   14  C   UNL     1      39.584 -13.896   3.149  1.00  0.00     0.068 C 
HETATM   15  C   UNL     1      39.376 -12.973   1.931  1.00  0.00     0.240 C 
HETATM   16  H   UNL     1      44.765 -15.113   5.487  1.00  0.00     0.162 HD
HETATM   17  H   UNL     1      41.312 -16.050   7.589  1.00  0.00     0.165 HD
ENDROOT
BRANCH   9  18
HETATM   18  C   UNL     1      43.654 -17.212   6.568  1.00  0.00    -0.016 A 
HETATM   19  C   UNL     1      44.893 -17.501   5.967  1.00  0.00     0.014 A 
HETATM   20  C   UNL     1      45.279 -18.821   5.728  1.00  0.00     0.038 A 
HETATM   21  C   UNL     1      44.431 -19.865   6.092  1.00  0.00     0.079 A 
HETATM   22  C   UNL     1      43.204 -19.606   6.696  1.00  0.00     0.038 A 
HETATM   23  C   UNL     1      42.823 -18.285   6.939  1.00  0.00     0.014 A 
BRANCH  21  24
HETATM   24  O   UNL     1      44.831 -21.152   5.678  1.00  0.00    -0.276 OA
BRANCH  24  25
HETATM   25  C   UNL     1      44.773 -21.551   4.351  1.00  0.00     0.288 C 
HETATM   26  O   UNL     1      44.870 -22.690   3.920  1.00  0.00    -0.260 OA
BRANCH  25  27
HETATM   27  C   UNL     1      44.518 -20.391   3.470  1.00  0.00     0.085 C 
HETATM   28  C   UNL     1      43.295 -19.992   3.087  1.00  0.00     0.043 C 
BRANCH  28  29
HETATM   29  C   UNL     1      43.131 -18.915   2.175  1.00  0.00     0.075 A 
HETATM   30  O   UNL     1      41.911 -18.454   1.732  1.00  0.00    -0.323 OA
HETATM   31  C   UNL     1      42.124 -17.406   0.900  1.00  0.00     0.142 A 
HETATM   32  C   UNL     1      43.467 -17.160   0.775  1.00  0.00     0.027 A 
HETATM   33  C   UNL     1      44.111 -18.124   1.587  1.00  0.00     0.039 A 
ENDBRANCH  28  29
ENDBRANCH  25  27
ENDBRANCH  24  25
ENDBRANCH  21  24
ENDBRANCH   9  18
BRANCH   1  34
HETATM   34  C   UNL     1      39.946 -12.819  -0.552  1.00  0.00     0.273 C 
BRANCH  34  35
HETATM   35  C   UNL     1      39.783 -13.821  -1.662  1.00  0.00    -0.033 A 
HETATM   36  C   UNL     1      38.572 -13.898  -2.371  1.00  0.00     0.009 A 
HETATM   37  C   UNL     1      38.401 -14.844  -3.382  1.00  0.00     0.001 A 
HETATM   38  C   UNL     1      39.436 -15.721  -3.698  1.00  0.00     0.000 A 
HETATM   39  C   UNL     1      40.645 -15.648  -3.012  1.00  0.00     0.001 A 
HETATM   40  C   UNL     1      40.821 -14.701  -2.000  1.00  0.00     0.009 A 
ENDBRANCH  34  35
ENDBRANCH   1  34
TORSDOF 7
ENDMDL
MODEL 7
REMARK VINA RESULT:      -8.4      3.827      9.018
REMARK  7 active torsions:
REMARK  status: ('A' for Active; 'I' for Inactive)
REMARK    1  A    between atoms: C_4  and  C_5 
REMARK    2  A    between atoms: C_5  and  N_6 
REMARK    3  A    between atoms: C_14  and  C_15 
REMARK    4  A    between atoms: C_18  and  O_19 
REMARK    5  A    between atoms: O_19  and  C_20 
REMARK    6  A    between atoms: C_20  and  C_21 
REMARK    7  A    between atoms: C_22  and  C_23 
ROOT
HETATM    1  N   UNL     1      41.077 -14.388  -1.433  1.00  0.00    -0.063 N 
HETATM    2  H   UNL     1      42.065 -14.207  -1.219  1.00  0.00     0.280 HD
HETATM    3  C   UNL     1      40.296 -13.630  -0.367  1.00  0.00     0.282 C 
HETATM    4  C   UNL     1      40.554 -14.233   0.972  1.00  0.00     0.018 A 
HETATM    5  C   UNL     1      41.101 -15.485   1.187  1.00  0.00    -0.023 A 
HETATM    6  C   UNL     1      41.232 -15.757   2.586  1.00  0.00     0.073 A 
HETATM    7  C   UNL     1      40.700 -14.749   3.353  1.00  0.00     0.088 A 
HETATM    8  N   UNL     1      40.639 -14.791   4.698  1.00  0.00    -0.358 N 
HETATM    9  C   UNL     1      41.433 -15.759   5.430  1.00  0.00     0.219 C 
HETATM   10  N   UNL     1      41.810 -16.879   4.608  1.00  0.00    -0.332 N 
HETATM   11  C   UNL     1      41.812 -16.912   3.244  1.00  0.00     0.256 C 
HETATM   12  O   UNL     1      42.282 -17.857   2.620  1.00  0.00    -0.267 OA
HETATM   13  S   UNL     1      40.135 -13.443   2.421  1.00  0.00    -0.074 SA
HETATM   14  C   UNL     1      41.503 -16.374   0.046  1.00  0.00     0.068 C 
HETATM   15  C   UNL     1      40.890 -15.893  -1.284  1.00  0.00     0.240 C 
HETATM   16  H   UNL     1      40.424 -13.945   5.216  1.00  0.00     0.162 HD
HETATM   17  H   UNL     1      42.270 -17.658   5.057  1.00  0.00     0.165 HD
ENDROOT
BRANCH   9  18
HETATM   18  C   UNL     1      42.621 -15.064   6.070  1.00  0.00    -0.016 A 
HETATM   19  C   UNL     1      43.611 -15.831   6.712  1.00  0.00     0.014 A 
HETATM   20  C   UNL     1      44.660 -15.212   7.395  1.00  0.00     0.038 A 
HETATM   21  C   UNL     1      44.731 -13.821   7.438  1.00  0.00     0.079 A 
HETATM   22  C   UNL     1      43.769 -13.041   6.804  1.00  0.00     0.038 A 
HETATM   23  C   UNL     1      42.724 -13.662   6.116  1.00  0.00     0.014 A 
BRANCH  21  24
HETATM   24  O   UNL     1      45.732 -13.285   8.274  1.00  0.00    -0.276 OA
BRANCH  24  25
HETATM   25  C   UNL     1      45.703 -11.969   8.708  1.00  0.00     0.288 C 
HETATM   26  O   UNL     1      46.398 -11.046   8.309  1.00  0.00    -0.260 OA
BRANCH  25  27
HETATM   27  C   UNL     1      44.650 -11.781   9.729  1.00  0.00     0.085 C 
HETATM   28  C   UNL     1      44.669 -10.815  10.660  1.00  0.00     0.043 C 
BRANCH  28  29
HETATM   29  C   UNL     1      43.660 -10.742  11.658  1.00  0.00     0.075 A 
HETATM   30  O   UNL     1      42.521 -11.517  11.667  1.00  0.00    -0.323 OA
HETATM   31  C   UNL     1      41.800 -11.207  12.771  1.00  0.00     0.142 A 
HETATM   32  C   UNL     1      42.435 -10.236  13.501  1.00  0.00     0.027 A 
HETATM   33  C   UNL     1      43.622  -9.936  12.791  1.00  0.00     0.039 A 
ENDBRANCH  28  29
ENDBRANCH  25  27
ENDBRANCH  24  25
ENDBRANCH  21  24
ENDBRANCH   9  18
BRANCH   1  34
HETATM   34  C   UNL     1      40.869 -13.863  -2.831  1.00  0.00     0.273 C 
BRANCH  34  35
HETATM   35  C   UNL     1      39.438 -13.705  -3.268  1.00  0.00    -0.033 A 
HETATM   36  C   UNL     1      38.667 -14.839  -3.581  1.00  0.00     0.009 A 
HETATM   37  C   UNL     1      37.348 -14.701  -4.015  1.00  0.00     0.001 A 
HETATM   38  C   UNL     1      36.784 -13.434  -4.139  1.00  0.00     0.000 A 
HETATM   39  C   UNL     1      37.532 -12.304  -3.821  1.00  0.00     0.001 A 
HETATM   40  C   UNL     1      38.852 -12.437  -3.385  1.00  0.00     0.009 A 
ENDBRANCH  34  35
ENDBRANCH   1  34
TORSDOF 7
ENDMDL
MODEL 8
REMARK VINA RESULT:      -8.4      4.618      6.951
REMARK  7 active torsions:
REMARK  status: ('A' for Active; 'I' for Inactive)
REMARK    1  A    between atoms: C_4  and  C_5 
REMARK    2  A    between atoms: C_5  and  N_6 
REMARK    3  A    between atoms: C_14  and  C_15 
REMARK    4  A    between atoms: C_18  and  O_19 
REMARK    5  A    between atoms: O_19  and  C_20 
REMARK    6  A    between atoms: C_20  and  C_21 
REMARK    7  A    between atoms: C_22  and  C_23 
ROOT
HETATM    1  N   UNL     1      35.884 -10.776   1.497  1.00  0.00    -0.063 N 
HETATM    2  H   UNL     1      35.784 -11.082   2.471  1.00  0.00     0.280 HD
HETATM    3  C   UNL     1      36.441 -11.984   0.756  1.00  0.00     0.282 C 
HETATM    4  C   UNL     1      37.817 -12.288   1.245  1.00  0.00     0.018 A 
HETATM    5  C   UNL     1      38.610 -11.417   1.970  1.00  0.00    -0.023 A 
HETATM    6  C   UNL     1      39.867 -12.019   2.299  1.00  0.00     0.073 A 
HETATM    7  C   UNL     1      39.997 -13.265   1.736  1.00  0.00     0.088 A 
HETATM    8  N   UNL     1      41.112 -14.014   1.840  1.00  0.00    -0.358 N 
HETATM    9  C   UNL     1      42.117 -13.686   2.833  1.00  0.00     0.219 C 
HETATM   10  N   UNL     1      42.033 -12.311   3.251  1.00  0.00    -0.332 N 
HETATM   11  C   UNL     1      40.956 -11.488   3.096  1.00  0.00     0.256 C 
HETATM   12  O   UNL     1      40.914 -10.374   3.608  1.00  0.00    -0.267 OA
HETATM   13  S   UNL     1      38.600 -13.759   0.902  1.00  0.00    -0.074 SA
HETATM   14  C   UNL     1      38.133 -10.045   2.346  1.00  0.00     0.068 C 
HETATM   15  C   UNL     1      36.895  -9.635   1.524  1.00  0.00     0.240 C 
HETATM   16  H   UNL     1      41.081 -14.995   1.581  1.00  0.00     0.162 HD
HETATM   17  H   UNL     1      42.759 -11.959   3.857  1.00  0.00     0.165 HD
ENDROOT
BRANCH   9  18
HETATM   18  C   UNL     1      42.031 -14.666   3.989  1.00  0.00    -0.016 A 
HETATM   19  C   UNL     1      42.824 -14.462   5.133  1.00  0.00     0.014 A 
HETATM   20  C   UNL     1      42.840 -15.401   6.167  1.00  0.00     0.038 A 
HETATM   21  C   UNL     1      42.059 -16.551   6.066  1.00  0.00     0.079 A 
HETATM   22  C   UNL     1      41.260 -16.772   4.949  1.00  0.00     0.038 A 
HETATM   23  C   UNL     1      41.241 -15.828   3.919  1.00  0.00     0.014 A 
BRANCH  21  24
HETATM   24  O   UNL     1      42.252 -17.511   7.080  1.00  0.00    -0.276 OA
BRANCH  24  25
HETATM   25  C   UNL     1      43.377 -18.321   7.125  1.00  0.00     0.288 C 
HETATM   26  O   UNL     1      44.232 -18.345   7.998  1.00  0.00    -0.260 OA
BRANCH  25  27
HETATM   27  C   UNL     1      43.406 -19.236   5.964  1.00  0.00     0.085 C 
HETATM   28  C   UNL     1      44.328 -19.185   4.990  1.00  0.00     0.043 C 
BRANCH  28  29
HETATM   29  C   UNL     1      44.249 -20.048   3.863  1.00  0.00     0.075 A 
HETATM   30  O   UNL     1      44.701 -21.349   3.850  1.00  0.00    -0.323 OA
HETATM   31  C   UNL     1      44.441 -21.881   2.631  1.00  0.00     0.142 A 
HETATM   32  C   UNL     1      43.827 -20.956   1.827  1.00  0.00     0.027 A 
HETATM   33  C   UNL     1      43.705 -19.784   2.611  1.00  0.00     0.039 A 
ENDBRANCH  28  29
ENDBRANCH  25  27
ENDBRANCH  24  25
ENDBRANCH  21  24
ENDBRANCH   9  18
BRANCH   1  34
HETATM   34  C   UNL     1      34.497 -10.377   1.058  1.00  0.00     0.273 C 
BRANCH  34  35
HETATM   35  C   UNL     1      33.507 -10.121   2.162  1.00  0.00    -0.033 A 
HETATM   36  C   UNL     1      32.348 -10.910   2.266  1.00  0.00     0.009 A 
HETATM   37  C   UNL     1      31.409 -10.661   3.268  1.00  0.00     0.001 A 
HETATM   38  C   UNL     1      31.617  -9.626   4.177  1.00  0.00     0.000 A 
HETATM   39  C   UNL     1      32.767  -8.845   4.092  1.00  0.00     0.001 A 
HETATM   40  C   UNL     1      33.710  -9.091   3.091  1.00  0.00     0.009 A 
ENDBRANCH  34  35
ENDBRANCH   1  34
TORSDOF 7
ENDMDL
MODEL 9
REMARK VINA RESULT:      -8.3      3.612      9.261
REMARK  7 active torsions:
REMARK  status: ('A' for Active; 'I' for Inactive)
REMARK    1  A    between atoms: C_4  and  C_5 
REMARK    2  A    between atoms: C_5  and  N_6 
REMARK    3  A    between atoms: C_14  and  C_15 
REMARK    4  A    between atoms: C_18  and  O_19 
REMARK    5  A    between atoms: O_19  and  C_20 
REMARK    6  A    between atoms: C_20  and  C_21 
REMARK    7  A    between atoms: C_22  and  C_23 
ROOT
HETATM    1  N   UNL     1      44.252 -18.489   5.574  1.00  0.00    -0.063 N 
HETATM    2  H   UNL     1      44.468 -18.020   4.687  1.00  0.00     0.280 HD
HETATM    3  C   UNL     1      42.731 -18.503   5.655  1.00  0.00     0.282 C 
HETATM    4  C   UNL     1      42.218 -17.108   5.779  1.00  0.00     0.018 A 
HETATM    5  C   UNL     1      42.982 -16.012   6.138  1.00  0.00    -0.023 A 
HETATM    6  C   UNL     1      42.193 -14.817   6.150  1.00  0.00     0.073 A 
HETATM    7  C   UNL     1      40.870 -15.078   5.892  1.00  0.00     0.088 A 
HETATM    8  N   UNL     1      39.910 -14.133   5.909  1.00  0.00    -0.358 N 
HETATM    9  C   UNL     1      40.271 -12.729   5.875  1.00  0.00     0.219 C 
HETATM   10  N   UNL     1      41.621 -12.510   6.326  1.00  0.00    -0.332 N 
HETATM   11  C   UNL     1      42.606 -13.450   6.403  1.00  0.00     0.256 C 
HETATM   12  O   UNL     1      43.767 -13.151   6.663  1.00  0.00    -0.267 OA
HETATM   13  S   UNL     1      40.579 -16.717   5.543  1.00  0.00    -0.074 SA
HETATM   14  C   UNL     1      44.448 -16.137   6.437  1.00  0.00     0.068 C 
HETATM   15  C   UNL     1      44.851 -17.608   6.663  1.00  0.00     0.240 C 
HETATM   16  H   UNL     1      38.996 -14.342   5.518  1.00  0.00     0.162 HD
HETATM   17  H   UNL     1      41.928 -11.555   6.444  1.00  0.00     0.165 HD
ENDROOT
BRANCH   9  18
HETATM   18  C   UNL     1      40.009 -12.168   4.490  1.00  0.00    -0.016 A 
HETATM   19  C   UNL     1      38.757 -11.597   4.197  1.00  0.00     0.014 A 
HETATM   20  C   UNL     1      38.455 -11.166   2.904  1.00  0.00     0.038 A 
HETATM   21  C   UNL     1      39.404 -11.298   1.892  1.00  0.00     0.079 A 
HETATM   22  C   UNL     1      40.653 -11.851   2.158  1.00  0.00     0.038 A 
HETATM   23  C   UNL     1      40.955 -12.277   3.454  1.00  0.00     0.014 A 
BRANCH  21  24
HETATM   24  O   UNL     1      38.962 -10.978   0.592  1.00  0.00    -0.276 OA
BRANCH  24  25
HETATM   25  C   UNL     1      39.739 -11.219  -0.531  1.00  0.00     0.288 C 
HETATM   26  O   UNL     1      40.715 -10.584  -0.901  1.00  0.00    -0.260 OA
BRANCH  25  27
HETATM   27  C   UNL     1      39.262 -12.423  -1.245  1.00  0.00     0.085 C 
HETATM   28  C   UNL     1      39.880 -12.960  -2.308  1.00  0.00     0.043 C 
BRANCH  28  29
HETATM   29  C   UNL     1      39.321 -14.074  -2.992  1.00  0.00     0.075 A 
HETATM   30  O   UNL     1      40.054 -14.979  -3.727  1.00  0.00    -0.323 OA
HETATM   31  C   UNL     1      39.209 -15.921  -4.214  1.00  0.00     0.142 A 
HETATM   32  C   UNL     1      37.922 -15.658  -3.821  1.00  0.00     0.027 A 
HETATM   33  C   UNL     1      37.991 -14.478  -3.043  1.00  0.00     0.039 A 
ENDBRANCH  28  29
ENDBRANCH  25  27
ENDBRANCH  24  25
ENDBRANCH  21  24
ENDBRANCH   9  18
BRANCH   1  34
HETATM   34  C   UNL     1      44.870 -19.860   5.463  1.00  0.00     0.273 C 
BRANCH  34  35
HETATM   35  C   UNL     1      44.636 -20.584   4.165  1.00  0.00    -0.033 A 
HETATM   36  C   UNL     1      44.260 -19.867   3.015  1.00  0.00     0.009 A 
HETATM   37  C   UNL     1      44.012 -20.533   1.815  1.00  0.00     0.001 A 
HETATM   38  C   UNL     1      44.138 -21.918   1.747  1.00  0.00     0.000 A 
HETATM   39  C   UNL     1      44.521 -22.639   2.875  1.00  0.00     0.001 A 
HETATM   40  C   UNL     1      44.772 -21.977   4.079  1.00  0.00     0.009 A 
ENDBRANCH  34  35
ENDBRANCH   1  34
TORSDOF 7
ENDMDL
MODEL 10
REMARK VINA RESULT:      -8.2      3.951      7.706
REMARK  7 active torsions:
REMARK  status: ('A' for Active; 'I' for Inactive)
REMARK    1  A    between atoms: C_4  and  C_5 
REMARK    2  A    between atoms: C_5  and  N_6 
REMARK    3  A    between atoms: C_14  and  C_15 
REMARK    4  A    between atoms: C_18  and  O_19 
REMARK    5  A    between atoms: O_19  and  C_20 
REMARK    6  A    between atoms: C_20  and  C_21 
REMARK    7  A    between atoms: C_22  and  C_23 
ROOT
HETATM    1  N   UNL     1      42.712 -11.044  -1.534  1.00  0.00    -0.063 N 
HETATM    2  H   UNL     1      43.555 -11.480  -1.144  1.00  0.00     0.280 HD
HETATM    3  C   UNL     1      41.896 -10.607  -0.325  1.00  0.00     0.282 C 
HETATM    4  C   UNL     1      41.437 -11.804   0.436  1.00  0.00     0.018 A 
HETATM    5  C   UNL     1      41.424 -13.098  -0.054  1.00  0.00    -0.023 A 
HETATM    6  C   UNL     1      40.942 -14.017   0.932  1.00  0.00     0.073 A 
HETATM    7  C   UNL     1      40.535 -13.371   2.074  1.00  0.00     0.088 A 
HETATM    8  N   UNL     1      39.982 -14.003   3.128  1.00  0.00    -0.358 N 
HETATM    9  C   UNL     1      40.090 -15.444   3.249  1.00  0.00     0.219 C 
HETATM   10  N   UNL     1      40.345 -16.073   1.980  1.00  0.00    -0.332 N 
HETATM   11  C   UNL     1      40.828 -15.461   0.860  1.00  0.00     0.256 C 
HETATM   12  O   UNL     1      41.152 -16.097  -0.137  1.00  0.00    -0.267 OA
HETATM   13  S   UNL     1      40.810 -11.694   2.014  1.00  0.00    -0.074 SA
HETATM   14  C   UNL     1      41.893 -13.418  -1.444  1.00  0.00     0.068 C 
HETATM   15  C   UNL     1      41.998 -12.146  -2.308  1.00  0.00     0.240 C 
HETATM   16  H   UNL     1      39.887 -13.512   4.012  1.00  0.00     0.162 HD
HETATM   17  H   UNL     1      40.327 -17.082   1.943  1.00  0.00     0.165 HD
ENDROOT
BRANCH   9  18
HETATM   18  C   UNL     1      41.124 -15.791   4.303  1.00  0.00    -0.016 A 
HETATM   19  C   UNL     1      42.469 -15.962   3.928  1.00  0.00     0.014 A 
HETATM   20  C   UNL     1      43.422 -16.381   4.859  1.00  0.00     0.038 A 
HETATM   21  C   UNL     1      43.038 -16.628   6.176  1.00  0.00     0.079 A 
HETATM   22  C   UNL     1      41.716 -16.457   6.575  1.00  0.00     0.038 A 
HETATM   23  C   UNL     1      40.766 -16.033   5.642  1.00  0.00     0.014 A 
BRANCH  21  24
HETATM   24  O   UNL     1      44.029 -17.190   7.007  1.00  0.00    -0.276 OA
BRANCH  24  25
HETATM   25  C   UNL     1      44.088 -18.551   7.267  1.00  0.00     0.288 C 
HETATM   26  O   UNL     1      44.257 -19.086   8.352  1.00  0.00    -0.260 OA
BRANCH  25  27
HETATM   27  C   UNL     1      43.863 -19.328   6.029  1.00  0.00     0.085 C 
HETATM   28  C   UNL     1      44.834 -19.670   5.169  1.00  0.00     0.043 C 
BRANCH  28  29
HETATM   29  C   UNL     1      44.532 -20.351   3.959  1.00  0.00     0.075 A 
HETATM   30  O   UNL     1      44.723 -21.700   3.761  1.00  0.00    -0.323 OA
HETATM   31  C   UNL     1      44.304 -22.014   2.511  1.00  0.00     0.142 A 
HETATM   32  C   UNL     1      43.839 -20.896   1.867  1.00  0.00     0.027 A 
HETATM   33  C   UNL     1      43.986 -19.833   2.789  1.00  0.00     0.039 A 
ENDBRANCH  28  29
ENDBRANCH  25  27
ENDBRANCH  24  25
ENDBRANCH  21  24
ENDBRANCH   9  18
BRANCH   1  34
HETATM   34  C   UNL     1      43.208  -9.900  -2.382  1.00  0.00     0.273 C 
BRANCH  34  35
HETATM   35  C   UNL     1      42.342  -9.526  -3.554  1.00  0.00    -0.033 A 
HETATM   36  C   UNL     1      41.261  -8.645  -3.379  1.00  0.00     0.009 A 
HETATM   37  C   UNL     1      40.434  -8.316  -4.454  1.00  0.00     0.001 A 
HETATM   38  C   UNL     1      40.678  -8.858  -5.713  1.00  0.00     0.000 A 
HETATM   39  C   UNL     1      41.753  -9.722  -5.903  1.00  0.00     0.001 A 
HETATM   40  C   UNL     1      42.584 -10.054  -4.830  1.00  0.00     0.009 A 
ENDBRANCH  34  35
ENDBRANCH   1  34
TORSDOF 7
ENDMDL
