MODEL 1
REMARK VINA RESULT:      -8.7      0.000      0.000
REMARK  7 active torsions:
REMARK  status: ('A' for Active; 'I' for Inactive)
REMARK    1  A    between atoms: C_4  and  C_5 
REMARK    2  A    between atoms: C_5  and  N_6 
REMARK       I    between atoms: N_6  and  C_7 
REMARK    3  A    between atoms: N_6  and  C_22 
REMARK    4  A    between atoms: C_7  and  C_8 
REMARK    5  A    between atoms: C_13  and  C_14 
REMARK    6  A    between atoms: C_15  and  O_16 
REMARK    7  A    between atoms: C_22  and  C_23 
ROOT
HETATM    1  N   UNL     1      43.845 -14.562   6.785  1.00  0.00    -0.343 N 
HETATM    2  C   UNL     1      43.232 -14.404   5.547  1.00  0.00     0.235 C 
HETATM    3  O   UNL     1      43.726 -13.679   4.672  1.00  0.00    -0.272 OA
ENDROOT
BRANCH   2   4
HETATM    4  C   UNL     1      41.949 -15.135   5.236  1.00  0.00     0.195 C 
HETATM    5  C   UNL     1      40.725 -14.330   5.557  1.00  0.00     0.247 C 
HETATM    6  O   UNL     1      40.552 -13.561   6.488  1.00  0.00    -0.271 OA
HETATM    7  N   UNL     1      39.779 -14.631   4.590  1.00  0.00    -0.290 N 
HETATM    8  N   UNL     1      40.296 -15.385   3.533  1.00  0.00    -0.228 NA
HETATM    9  H   UNL     1      38.870 -14.177   4.586  1.00  0.00     0.183 HD
HETATM   10  C   UNL     1      41.769 -15.300   3.717  1.00  0.00     0.134 C 
HETATM   11  H   UNL     1      40.056 -14.954   2.635  1.00  0.00     0.147 HD
BRANCH  10  12
HETATM   12  C   UNL     1      42.534 -16.492   3.180  1.00  0.00    -0.004 A 
HETATM   13  C   UNL     1      42.239 -17.808   3.570  1.00  0.00     0.073 A 
HETATM   14  C   UNL     1      42.946 -18.889   3.038  1.00  0.00     0.037 A 
HETATM   15  C   UNL     1      43.953 -18.681   2.098  1.00  0.00     0.003 A 
HETATM   16  C   UNL     1      44.254 -17.388   1.687  1.00  0.00     0.001 A 
HETATM   17  C   UNL     1      43.548 -16.306   2.219  1.00  0.00     0.012 A 
BRANCH  13  18
HETATM   18  O   UNL     1      41.271 -18.150   4.474  1.00  0.00    -0.360 OA
HETATM   19  H   UNL     1      40.381 -18.215   4.079  1.00  0.00     0.217 HD
ENDBRANCH  13  18
ENDBRANCH  10  12
ENDBRANCH   2   4
BRANCH   1  20
HETATM   20  C   UNL     1      45.080 -13.805   7.021  1.00  0.00     0.164 C 
BRANCH  20  21
HETATM   21  C   UNL     1      44.935 -12.750   8.091  1.00  0.00    -0.040 A 
HETATM   22  C   UNL     1      46.061 -12.272   8.777  1.00  0.00     0.009 A 
HETATM   23  C   UNL     1      45.935 -11.253   9.723  1.00  0.00     0.001 A 
HETATM   24  C   UNL     1      44.684 -10.700   9.993  1.00  0.00     0.000 A 
HETATM   25  C   UNL     1      43.559 -11.162   9.315  1.00  0.00     0.001 A 
HETATM   26  C   UNL     1      43.685 -12.174   8.362  1.00  0.00     0.009 A 
ENDBRANCH  20  21
ENDBRANCH   1  20
BRANCH   1  27
HETATM   27  C   UNL     1      43.626 -15.713   7.669  1.00  0.00     0.164 C 
BRANCH  27  28
HETATM   28  C   UNL     1      43.962 -17.078   7.122  1.00  0.00    -0.040 A 
HETATM   29  C   UNL     1      43.148 -18.175   7.458  1.00  0.00     0.009 A 
HETATM   30  C   UNL     1      43.415 -19.447   6.952  1.00  0.00     0.001 A 
HETATM   31  C   UNL     1      44.491 -19.640   6.091  1.00  0.00     0.000 A 
HETATM   32  C   UNL     1      45.292 -18.559   5.729  1.00  0.00     0.001 A 
HETATM   33  C   UNL     1      45.022 -17.284   6.232  1.00  0.00     0.009 A 
ENDBRANCH  27  28
ENDBRANCH   1  27
TORSDOF 7
ENDMDL
MODEL 2
REMARK VINA RESULT:      -8.4      3.463      7.260
REMARK  7 active torsions:
REMARK  status: ('A' for Active; 'I' for Inactive)
REMARK    1  A    between atoms: C_4  and  C_5 
REMARK    2  A    between atoms: C_5  and  N_6 
REMARK       I    between atoms: N_6  and  C_7 
REMARK    3  A    between atoms: N_6  and  C_22 
REMARK    4  A    between atoms: C_7  and  C_8 
REMARK    5  A    between atoms: C_13  and  C_14 
REMARK    6  A    between atoms: C_15  and  O_16 
REMARK    7  A    between atoms: C_22  and  C_23 
ROOT
HETATM    1  N   UNL     1      41.810 -16.385   2.873  1.00  0.00    -0.343 N 
HETATM    2  C   UNL     1      41.942 -15.380   3.825  1.00  0.00     0.235 C 
HETATM    3  O   UNL     1      43.043 -14.869   4.074  1.00  0.00    -0.272 OA
ENDROOT
BRANCH   2   4
HETATM    4  C   UNL     1      40.731 -14.875   4.570  1.00  0.00     0.195 C 
HETATM    5  C   UNL     1      40.602 -15.462   5.944  1.00  0.00     0.247 C 
HETATM    6  O   UNL     1      40.873 -16.594   6.308  1.00  0.00    -0.271 OA
HETATM    7  N   UNL     1      40.086 -14.468   6.760  1.00  0.00    -0.290 N 
HETATM    8  N   UNL     1      40.050 -13.214   6.143  1.00  0.00    -0.228 NA
HETATM    9  H   UNL     1      39.939 -14.627   7.753  1.00  0.00     0.183 HD
HETATM   10  C   UNL     1      40.891 -13.387   4.929  1.00  0.00     0.134 C 
HETATM   11  H   UNL     1      40.488 -12.508   6.742  1.00  0.00     0.147 HD
BRANCH  10  12
HETATM   12  C   UNL     1      40.514 -12.481   3.775  1.00  0.00    -0.004 A 
HETATM   13  C   UNL     1      41.425 -12.138   2.764  1.00  0.00     0.073 A 
HETATM   14  C   UNL     1      41.041 -11.321   1.699  1.00  0.00     0.037 A 
HETATM   15  C   UNL     1      39.737 -10.838   1.614  1.00  0.00     0.003 A 
HETATM   16  C   UNL     1      38.813 -11.174   2.596  1.00  0.00     0.001 A 
HETATM   17  C   UNL     1      39.197 -11.991   3.662  1.00  0.00     0.012 A 
BRANCH  13  18
HETATM   18  O   UNL     1      42.728 -12.552   2.722  1.00  0.00    -0.360 OA
HETATM   19  H   UNL     1      43.037 -12.939   3.563  1.00  0.00     0.217 HD
ENDBRANCH  13  18
ENDBRANCH  10  12
ENDBRANCH   2   4
BRANCH   1  20
HETATM   20  C   UNL     1      43.036 -16.837   2.204  1.00  0.00     0.164 C 
BRANCH  20  21
HETATM   21  C   UNL     1      43.498 -18.197   2.667  1.00  0.00    -0.040 A 
HETATM   22  C   UNL     1      43.495 -19.288   1.786  1.00  0.00     0.009 A 
HETATM   23  C   UNL     1      43.980 -20.532   2.196  1.00  0.00     0.001 A 
HETATM   24  C   UNL     1      44.474 -20.698   3.488  1.00  0.00     0.000 A 
HETATM   25  C   UNL     1      44.488 -19.622   4.371  1.00  0.00     0.001 A 
HETATM   26  C   UNL     1      44.012 -18.376   3.961  1.00  0.00     0.009 A 
ENDBRANCH  20  21
ENDBRANCH   1  20
BRANCH   1  27
HETATM   27  C   UNL     1      40.554 -16.702   2.182  1.00  0.00     0.164 C 
BRANCH  27  28
HETATM   28  C   UNL     1      39.925 -15.608   1.357  1.00  0.00    -0.040 A 
HETATM   29  C   UNL     1      40.623 -15.093   0.249  1.00  0.00     0.009 A 
HETATM   30  C   UNL     1      40.062 -14.096  -0.551  1.00  0.00     0.001 A 
HETATM   31  C   UNL     1      38.791 -13.609  -0.263  1.00  0.00     0.000 A 
HETATM   32  C   UNL     1      38.077 -14.127   0.815  1.00  0.00     0.001 A 
HETATM   33  C   UNL     1      38.636 -15.127   1.614  1.00  0.00     0.009 A 
ENDBRANCH  27  28
ENDBRANCH   1  27
TORSDOF 7
ENDMDL
MODEL 3
REMARK VINA RESULT:      -8.2      2.896      6.585
REMARK  7 active torsions:
REMARK  status: ('A' for Active; 'I' for Inactive)
REMARK    1  A    between atoms: C_4  and  C_5 
REMARK    2  A    between atoms: C_5  and  N_6 
REMARK       I    between atoms: N_6  and  C_7 
REMARK    3  A    between atoms: N_6  and  C_22 
REMARK    4  A    between atoms: C_7  and  C_8 
REMARK    5  A    between atoms: C_13  and  C_14 
REMARK    6  A    between atoms: C_15  and  O_16 
REMARK    7  A    between atoms: C_22  and  C_23 
ROOT
HETATM    1  N   UNL     1      41.514 -15.047   2.170  1.00  0.00    -0.343 N 
HETATM    2  C   UNL     1      40.942 -14.413   3.267  1.00  0.00     0.235 C 
HETATM    3  O   UNL     1      39.736 -14.533   3.523  1.00  0.00    -0.272 OA
ENDROOT
BRANCH   2   4
HETATM    4  C   UNL     1      41.792 -13.571   4.187  1.00  0.00     0.195 C 
HETATM    5  C   UNL     1      41.506 -12.104   4.068  1.00  0.00     0.247 C 
HETATM    6  O   UNL     1      41.224 -11.470   3.065  1.00  0.00    -0.271 OA
HETATM    7  N   UNL     1      41.639 -11.564   5.337  1.00  0.00    -0.290 N 
HETATM    8  N   UNL     1      41.774 -12.533   6.336  1.00  0.00    -0.228 NA
HETATM    9  H   UNL     1      41.461 -10.578   5.510  1.00  0.00     0.183 HD
HETATM   10  C   UNL     1      41.401 -13.802   5.657  1.00  0.00     0.134 C 
HETATM   11  H   UNL     1      41.106 -12.362   7.093  1.00  0.00     0.147 HD
BRANCH  10  12
HETATM   12  C   UNL     1      42.063 -15.036   6.235  1.00  0.00    -0.004 A 
HETATM   13  C   UNL     1      41.358 -16.230   6.454  1.00  0.00     0.073 A 
HETATM   14  C   UNL     1      42.003 -17.359   6.964  1.00  0.00     0.037 A 
HETATM   15  C   UNL     1      43.365 -17.325   7.254  1.00  0.00     0.003 A 
HETATM   16  C   UNL     1      44.086 -16.158   7.032  1.00  0.00     0.001 A 
HETATM   17  C   UNL     1      43.443 -15.028   6.524  1.00  0.00     0.012 A 
BRANCH  13  18
HETATM   18  O   UNL     1      40.025 -16.400   6.203  1.00  0.00    -0.360 OA
HETATM   19  H   UNL     1      39.788 -17.322   5.982  1.00  0.00     0.217 HD
ENDBRANCH  13  18
ENDBRANCH  10  12
ENDBRANCH   2   4
BRANCH   1  20
HETATM   20  C   UNL     1      40.620 -15.833   1.311  1.00  0.00     0.164 C 
BRANCH  20  21
HETATM   21  C   UNL     1      40.485 -15.267  -0.081  1.00  0.00    -0.040 A 
HETATM   22  C   UNL     1      39.794 -14.065  -0.297  1.00  0.00     0.009 A 
HETATM   23  C   UNL     1      39.721 -13.509  -1.575  1.00  0.00     0.001 A 
HETATM   24  C   UNL     1      40.339 -14.145  -2.650  1.00  0.00     0.000 A 
HETATM   25  C   UNL     1      41.034 -15.335  -2.449  1.00  0.00     0.001 A 
HETATM   26  C   UNL     1      41.115 -15.888  -1.170  1.00  0.00     0.009 A 
ENDBRANCH  20  21
ENDBRANCH   1  20
BRANCH   1  27
HETATM   27  C   UNL     1      42.944 -15.360   2.055  1.00  0.00     0.164 C 
BRANCH  27  28
HETATM   28  C   UNL     1      43.355 -16.796   2.269  1.00  0.00    -0.040 A 
HETATM   29  C   UNL     1      43.376 -17.320   3.574  1.00  0.00     0.009 A 
HETATM   30  C   UNL     1      43.730 -18.650   3.807  1.00  0.00     0.001 A 
HETATM   31  C   UNL     1      44.055 -19.479   2.738  1.00  0.00     0.000 A 
HETATM   32  C   UNL     1      44.015 -18.981   1.437  1.00  0.00     0.001 A 
HETATM   33  C   UNL     1      43.657 -17.651   1.204  1.00  0.00     0.009 A 
ENDBRANCH  27  28
ENDBRANCH   1  27
TORSDOF 7
ENDMDL
MODEL 4
REMARK VINA RESULT:      -8.1      2.776      6.250
REMARK  7 active torsions:
REMARK  status: ('A' for Active; 'I' for Inactive)
REMARK    1  A    between atoms: C_4  and  C_5 
REMARK    2  A    between atoms: C_5  and  N_6 
REMARK       I    between atoms: N_6  and  C_7 
REMARK    3  A    between atoms: N_6  and  C_22 
REMARK    4  A    between atoms: C_7  and  C_8 
REMARK    5  A    between atoms: C_13  and  C_14 
REMARK    6  A    between atoms: C_15  and  O_16 
REMARK    7  A    between atoms: C_22  and  C_23 
ROOT
HETATM    1  N   UNL     1      42.102 -16.628   2.900  1.00  0.00    -0.343 N 
HETATM    2  C   UNL     1      42.001 -16.275   4.241  1.00  0.00     0.235 C 
HETATM    3  O   UNL     1      40.913 -16.303   4.833  1.00  0.00    -0.272 OA
ENDROOT
BRANCH   2   4
HETATM    4  C   UNL     1      43.229 -15.860   5.013  1.00  0.00     0.195 C 
HETATM    5  C   UNL     1      43.424 -14.374   5.049  1.00  0.00     0.247 C 
HETATM    6  O   UNL     1      43.191 -13.562   4.170  1.00  0.00    -0.271 OA
HETATM    7  N   UNL     1      43.950 -14.067   6.294  1.00  0.00    -0.290 N 
HETATM    8  N   UNL     1      43.935 -15.149   7.179  1.00  0.00    -0.228 NA
HETATM    9  H   UNL     1      44.139 -13.105   6.562  1.00  0.00     0.183 HD
HETATM   10  C   UNL     1      43.052 -16.144   6.515  1.00  0.00     0.134 C 
HETATM   11  H   UNL     1      43.506 -14.878   8.069  1.00  0.00     0.147 HD
BRANCH  10  12
HETATM   12  C   UNL     1      43.364 -17.584   6.862  1.00  0.00    -0.004 A 
HETATM   13  C   UNL     1      43.609 -18.001   8.181  1.00  0.00     0.073 A 
HETATM   14  C   UNL     1      43.869 -19.341   8.473  1.00  0.00     0.037 A 
HETATM   15  C   UNL     1      43.878 -20.296   7.459  1.00  0.00     0.003 A 
HETATM   16  C   UNL     1      43.625 -19.910   6.148  1.00  0.00     0.001 A 
HETATM   17  C   UNL     1      43.366 -18.570   5.854  1.00  0.00     0.012 A 
BRANCH  13  18
HETATM   18  O   UNL     1      43.619 -17.169   9.267  1.00  0.00    -0.360 OA
HETATM   19  H   UNL     1      44.517 -16.981   9.600  1.00  0.00     0.217 HD
ENDBRANCH  13  18
ENDBRANCH  10  12
ENDBRANCH   2   4
BRANCH   1  20
HETATM   20  C   UNL     1      40.861 -17.001   2.211  1.00  0.00     0.164 C 
BRANCH  20  21
HETATM   21  C   UNL     1      40.231 -15.854   1.461  1.00  0.00    -0.040 A 
HETATM   22  C   UNL     1      39.058 -15.250   1.938  1.00  0.00     0.009 A 
HETATM   23  C   UNL     1      38.508 -14.149   1.279  1.00  0.00     0.001 A 
HETATM   24  C   UNL     1      39.124 -13.638   0.138  1.00  0.00     0.000 A 
HETATM   25  C   UNL     1      40.293 -14.224  -0.343  1.00  0.00     0.001 A 
HETATM   26  C   UNL     1      40.848 -15.319   0.320  1.00  0.00     0.009 A 
ENDBRANCH  20  21
ENDBRANCH   1  20
BRANCH   1  27
HETATM   27  C   UNL     1      43.345 -17.080   2.262  1.00  0.00     0.164 C 
BRANCH  27  28
HETATM   28  C   UNL     1      43.627 -18.562   2.274  1.00  0.00    -0.040 A 
HETATM   29  C   UNL     1      44.818 -19.031   2.858  1.00  0.00     0.009 A 
HETATM   30  C   UNL     1      45.102 -20.397   2.907  1.00  0.00     0.001 A 
HETATM   31  C   UNL     1      44.194 -21.314   2.385  1.00  0.00     0.000 A 
HETATM   32  C   UNL     1      43.000 -20.865   1.826  1.00  0.00     0.001 A 
HETATM   33  C   UNL     1      42.714 -19.499   1.780  1.00  0.00     0.009 A 
ENDBRANCH  27  28
ENDBRANCH   1  27
TORSDOF 7
ENDMDL
MODEL 5
REMARK VINA RESULT:      -8.0      2.738      5.966
REMARK  7 active torsions:
REMARK  status: ('A' for Active; 'I' for Inactive)
REMARK    1  A    between atoms: C_4  and  C_5 
REMARK    2  A    between atoms: C_5  and  N_6 
REMARK       I    between atoms: N_6  and  C_7 
REMARK    3  A    between atoms: N_6  and  C_22 
REMARK    4  A    between atoms: C_7  and  C_8 
REMARK    5  A    between atoms: C_13  and  C_14 
REMARK    6  A    between atoms: C_15  and  O_16 
REMARK    7  A    between atoms: C_22  and  C_23 
ROOT
HETATM    1  N   UNL     1      40.769 -14.733   2.770  1.00  0.00    -0.343 N 
HETATM    2  C   UNL     1      40.861 -14.691   4.157  1.00  0.00     0.235 C 
HETATM    3  O   UNL     1      39.872 -14.903   4.873  1.00  0.00    -0.272 OA
ENDROOT
BRANCH   2   4
HETATM    4  C   UNL     1      42.183 -14.399   4.823  1.00  0.00     0.195 C 
HETATM    5  C   UNL     1      42.256 -13.015   5.396  1.00  0.00     0.247 C 
HETATM    6  O   UNL     1      41.781 -11.986   4.945  1.00  0.00    -0.271 OA
HETATM    7  N   UNL     1      42.999 -13.101   6.563  1.00  0.00    -0.290 N 
HETATM    8  N   UNL     1      43.256 -14.418   6.955  1.00  0.00    -0.228 NA
HETATM    9  H   UNL     1      43.158 -12.284   7.145  1.00  0.00     0.183 HD
HETATM   10  C   UNL     1      42.341 -15.230   6.109  1.00  0.00     0.134 C 
HETATM   11  H   UNL     1      42.997 -14.556   7.937  1.00  0.00     0.147 HD
BRANCH  10  12
HETATM   12  C   UNL     1      42.837 -16.632   5.823  1.00  0.00    -0.004 A 
HETATM   13  C   UNL     1      41.965 -17.681   5.492  1.00  0.00     0.073 A 
HETATM   14  C   UNL     1      42.455 -18.958   5.208  1.00  0.00     0.037 A 
HETATM   15  C   UNL     1      43.824 -19.211   5.235  1.00  0.00     0.003 A 
HETATM   16  C   UNL     1      44.708 -18.185   5.546  1.00  0.00     0.001 A 
HETATM   17  C   UNL     1      44.219 -16.908   5.832  1.00  0.00     0.012 A 
BRANCH  13  18
HETATM   18  O   UNL     1      40.604 -17.564   5.420  1.00  0.00    -0.360 OA
HETATM   19  H   UNL     1      40.283 -16.665   5.624  1.00  0.00     0.217 HD
ENDBRANCH  13  18
ENDBRANCH  10  12
ENDBRANCH   2   4
BRANCH   1  20
HETATM   20  C   UNL     1      39.447 -15.004   2.195  1.00  0.00     0.164 C 
BRANCH  20  21
HETATM   21  C   UNL     1      38.717 -13.753   1.770  1.00  0.00    -0.040 A 
HETATM   22  C   UNL     1      37.652 -13.824   0.860  1.00  0.00     0.009 A 
HETATM   23  C   UNL     1      36.937 -12.676   0.513  1.00  0.00     0.001 A 
HETATM   24  C   UNL     1      37.276 -11.446   1.074  1.00  0.00     0.000 A 
HETATM   25  C   UNL     1      38.327 -11.362   1.984  1.00  0.00     0.001 A 
HETATM   26  C   UNL     1      39.037 -12.510   2.337  1.00  0.00     0.009 A 
ENDBRANCH  20  21
ENDBRANCH   1  20
BRANCH   1  27
HETATM   27  C   UNL     1      41.912 -14.971   1.879  1.00  0.00     0.164 C 
BRANCH  27  28
HETATM   28  C   UNL     1      42.480 -16.367   1.843  1.00  0.00    -0.040 A 
HETATM   29  C   UNL     1      41.607 -17.464   1.726  1.00  0.00     0.009 A 
HETATM   30  C   UNL     1      42.098 -18.769   1.668  1.00  0.00     0.001 A 
HETATM   31  C   UNL     1      43.471 -18.996   1.710  1.00  0.00     0.000 A 
HETATM   32  C   UNL     1      44.349 -17.918   1.801  1.00  0.00     0.001 A 
HETATM   33  C   UNL     1      43.858 -16.612   1.856  1.00  0.00     0.009 A 
ENDBRANCH  27  28
ENDBRANCH   1  27
TORSDOF 7
ENDMDL
MODEL 6
REMARK VINA RESULT:      -7.9      2.899      4.946
REMARK  7 active torsions:
REMARK  status: ('A' for Active; 'I' for Inactive)
REMARK    1  A    between atoms: C_4  and  C_5 
REMARK    2  A    between atoms: C_5  and  N_6 
REMARK       I    between atoms: N_6  and  C_7 
REMARK    3  A    between atoms: N_6  and  C_22 
REMARK    4  A    between atoms: C_7  and  C_8 
REMARK    5  A    between atoms: C_13  and  C_14 
REMARK    6  A    between atoms: C_15  and  O_16 
REMARK    7  A    between atoms: C_22  and  C_23 
ROOT
HETATM    1  N   UNL     1      42.040 -14.898   5.187  1.00  0.00    -0.343 N 
HETATM    2  C   UNL     1      41.587 -13.608   4.937  1.00  0.00     0.235 C 
HETATM    3  O   UNL     1      42.346 -12.632   5.019  1.00  0.00    -0.272 OA
ENDROOT
BRANCH   2   4
HETATM    4  C   UNL     1      40.151 -13.370   4.540  1.00  0.00     0.195 C 
HETATM    5  C   UNL     1      39.362 -12.656   5.597  1.00  0.00     0.247 C 
HETATM    6  O   UNL     1      39.446 -12.773   6.809  1.00  0.00    -0.271 OA
HETATM    7  N   UNL     1      38.474 -11.818   4.941  1.00  0.00    -0.290 N 
HETATM    8  N   UNL     1      38.718 -11.728   3.567  1.00  0.00    -0.228 NA
HETATM    9  H   UNL     1      37.850 -11.205   5.458  1.00  0.00     0.183 HD
HETATM   10  C   UNL     1      40.062 -12.341   3.399  1.00  0.00     0.134 C 
HETATM   11  H   UNL     1      38.771 -10.747   3.276  1.00  0.00     0.147 HD
BRANCH  10  12
HETATM   12  C   UNL     1      40.293 -12.975   2.043  1.00  0.00    -0.004 A 
HETATM   13  C   UNL     1      41.551 -12.972   1.420  1.00  0.00     0.073 A 
HETATM   14  C   UNL     1      41.738 -13.588   0.181  1.00  0.00     0.037 A 
HETATM   15  C   UNL     1      40.679 -14.230  -0.457  1.00  0.00     0.003 A 
HETATM   16  C   UNL     1      39.428 -14.257   0.147  1.00  0.00     0.001 A 
HETATM   17  C   UNL     1      39.239 -13.641   1.385  1.00  0.00     0.012 A 
BRANCH  13  18
HETATM   18  O   UNL     1      42.672 -12.389   1.941  1.00  0.00    -0.360 OA
HETATM   19  H   UNL     1      43.055 -12.888   2.688  1.00  0.00     0.217 HD
ENDBRANCH  13  18
ENDBRANCH  10  12
ENDBRANCH   2   4
BRANCH   1  20
HETATM   20  C   UNL     1      43.444 -15.048   5.586  1.00  0.00     0.164 C 
BRANCH  20  21
HETATM   21  C   UNL     1      43.704 -16.305   6.380  1.00  0.00    -0.040 A 
HETATM   22  C   UNL     1      44.488 -17.337   5.843  1.00  0.00     0.009 A 
HETATM   23  C   UNL     1      44.780 -18.473   6.601  1.00  0.00     0.001 A 
HETATM   24  C   UNL     1      44.295 -18.590   7.902  1.00  0.00     0.000 A 
HETATM   25  C   UNL     1      43.521 -17.570   8.450  1.00  0.00     0.001 A 
HETATM   26  C   UNL     1      43.235 -16.429   7.697  1.00  0.00     0.009 A 
ENDBRANCH  20  21
ENDBRANCH   1  20
BRANCH   1  27
HETATM   27  C   UNL     1      41.392 -16.110   4.671  1.00  0.00     0.164 C 
BRANCH  27  28
HETATM   28  C   UNL     1      41.734 -16.529   3.263  1.00  0.00    -0.040 A 
HETATM   29  C   UNL     1      40.731 -17.082   2.446  1.00  0.00     0.009 A 
HETATM   30  C   UNL     1      41.005 -17.460   1.131  1.00  0.00     0.001 A 
HETATM   31  C   UNL     1      42.282 -17.278   0.608  1.00  0.00     0.000 A 
HETATM   32  C   UNL     1      43.279 -16.708   1.397  1.00  0.00     0.001 A 
HETATM   33  C   UNL     1      43.004 -16.327   2.712  1.00  0.00     0.009 A 
ENDBRANCH  27  28
ENDBRANCH   1  27
TORSDOF 7
ENDMDL
MODEL 7
REMARK VINA RESULT:      -7.8      3.404      7.349
REMARK  7 active torsions:
REMARK  status: ('A' for Active; 'I' for Inactive)
REMARK    1  A    between atoms: C_4  and  C_5 
REMARK    2  A    between atoms: C_5  and  N_6 
REMARK       I    between atoms: N_6  and  C_7 
REMARK    3  A    between atoms: N_6  and  C_22 
REMARK    4  A    between atoms: C_7  and  C_8 
REMARK    5  A    between atoms: C_13  and  C_14 
REMARK    6  A    between atoms: C_15  and  O_16 
REMARK    7  A    between atoms: C_22  and  C_23 
ROOT
HETATM    1  N   UNL     1      41.881 -15.253   2.759  1.00  0.00    -0.343 N 
HETATM    2  C   UNL     1      42.317 -14.106   3.411  1.00  0.00     0.235 C 
HETATM    3  O   UNL     1      43.420 -13.602   3.158  1.00  0.00    -0.272 OA
ENDROOT
BRANCH   2   4
HETATM    4  C   UNL     1      41.439 -13.437   4.440  1.00  0.00     0.195 C 
HETATM    5  C   UNL     1      42.016 -13.487   5.823  1.00  0.00     0.247 C 
HETATM    6  O   UNL     1      42.652 -14.389   6.342  1.00  0.00    -0.271 OA
HETATM    7  N   UNL     1      41.676 -12.296   6.445  1.00  0.00    -0.290 N 
HETATM    8  N   UNL     1      41.118 -11.359   5.570  1.00  0.00    -0.228 NA
HETATM    9  H   UNL     1      41.988 -12.089   7.390  1.00  0.00     0.183 HD
HETATM   10  C   UNL     1      41.403 -11.914   4.220  1.00  0.00     0.134 C 
HETATM   11  H   UNL     1      41.598 -10.458   5.657  1.00  0.00     0.147 HD
BRANCH  10  12
HETATM   12  C   UNL     1      40.399 -11.516   3.159  1.00  0.00    -0.004 A 
HETATM   13  C   UNL     1      39.025 -11.411   3.429  1.00  0.00     0.073 A 
HETATM   14  C   UNL     1      38.127 -11.018   2.435  1.00  0.00     0.037 A 
HETATM   15  C   UNL     1      38.581 -10.709   1.155  1.00  0.00     0.003 A 
HETATM   16  C   UNL     1      39.937 -10.792   0.867  1.00  0.00     0.001 A 
HETATM   17  C   UNL     1      40.837 -11.187   1.860  1.00  0.00     0.012 A 
BRANCH  13  18
HETATM   18  O   UNL     1      38.452 -11.675   4.643  1.00  0.00    -0.360 OA
HETATM   19  H   UNL     1      37.506 -11.906   4.580  1.00  0.00     0.217 HD
ENDBRANCH  13  18
ENDBRANCH  10  12
ENDBRANCH   2   4
BRANCH   1  20
HETATM   20  C   UNL     1      42.798 -15.858   1.785  1.00  0.00     0.164 C 
BRANCH  20  21
HETATM   21  C   UNL     1      43.320 -17.206   2.219  1.00  0.00    -0.040 A 
HETATM   22  C   UNL     1      43.582 -17.466   3.572  1.00  0.00     0.009 A 
HETATM   23  C   UNL     1      44.006 -18.731   3.983  1.00  0.00     0.001 A 
HETATM   24  C   UNL     1      44.171 -19.750   3.046  1.00  0.00     0.000 A 
HETATM   25  C   UNL     1      43.908 -19.508   1.701  1.00  0.00     0.001 A 
HETATM   26  C   UNL     1      43.475 -18.246   1.290  1.00  0.00     0.009 A 
ENDBRANCH  20  21
ENDBRANCH   1  20
BRANCH   1  27
HETATM   27  C   UNL     1      40.470 -15.637   2.627  1.00  0.00     0.164 C 
BRANCH  27  28
HETATM   28  C   UNL     1      39.687 -15.016   1.498  1.00  0.00    -0.040 A 
HETATM   29  C   UNL     1      38.319 -14.743   1.676  1.00  0.00     0.009 A 
HETATM   30  C   UNL     1      37.568 -14.148   0.661  1.00  0.00     0.001 A 
HETATM   31  C   UNL     1      38.178 -13.804  -0.542  1.00  0.00     0.000 A 
HETATM   32  C   UNL     1      39.538 -14.045  -0.724  1.00  0.00     0.001 A 
HETATM   33  C   UNL     1      40.290 -14.637   0.293  1.00  0.00     0.009 A 
ENDBRANCH  27  28
ENDBRANCH   1  27
TORSDOF 7
ENDMDL
MODEL 8
REMARK VINA RESULT:      -7.8      2.968      5.744
REMARK  7 active torsions:
REMARK  status: ('A' for Active; 'I' for Inactive)
REMARK    1  A    between atoms: C_4  and  C_5 
REMARK    2  A    between atoms: C_5  and  N_6 
REMARK       I    between atoms: N_6  and  C_7 
REMARK    3  A    between atoms: N_6  and  C_22 
REMARK    4  A    between atoms: C_7  and  C_8 
REMARK    5  A    between atoms: C_13  and  C_14 
REMARK    6  A    between atoms: C_15  and  O_16 
REMARK    7  A    between atoms: C_22  and  C_23 
ROOT
HETATM    1  N   UNL     1      41.785 -15.559   3.913  1.00  0.00    -0.343 N 
HETATM    2  C   UNL     1      42.130 -16.561   4.813  1.00  0.00     0.235 C 
HETATM    3  O   UNL     1      41.264 -17.219   5.407  1.00  0.00    -0.272 OA
ENDROOT
BRANCH   2   4
HETATM    4  C   UNL     1      43.581 -16.882   5.074  1.00  0.00     0.195 C 
HETATM    5  C   UNL     1      44.094 -16.278   6.348  1.00  0.00     0.247 C 
HETATM    6  O   UNL     1      43.812 -15.196   6.836  1.00  0.00    -0.271 OA
HETATM    7  N   UNL     1      44.991 -17.183   6.891  1.00  0.00    -0.290 N 
HETATM    8  N   UNL     1      44.985 -18.421   6.240  1.00  0.00    -0.228 NA
HETATM    9  H   UNL     1      45.448 -17.001   7.780  1.00  0.00     0.183 HD
HETATM   10  C   UNL     1      43.762 -18.376   5.395  1.00  0.00     0.134 C 
HETATM   11  H   UNL     1      44.882 -19.181   6.919  1.00  0.00     0.147 HD
BRANCH  10  12
HETATM   12  C   UNL     1      43.839 -19.221   4.141  1.00  0.00    -0.004 A 
HETATM   13  C   UNL     1      44.410 -20.504   4.137  1.00  0.00     0.073 A 
HETATM   14  C   UNL     1      44.444 -21.270   2.970  1.00  0.00     0.037 A 
HETATM   15  C   UNL     1      43.898 -20.779   1.787  1.00  0.00     0.003 A 
HETATM   16  C   UNL     1      43.315 -19.518   1.769  1.00  0.00     0.001 A 
HETATM   17  C   UNL     1      43.282 -18.750   2.936  1.00  0.00     0.012 A 
BRANCH  13  18
HETATM   18  O   UNL     1      44.971 -21.107   5.230  1.00  0.00    -0.360 OA
HETATM   19  H   UNL     1      45.108 -20.495   5.979  1.00  0.00     0.217 HD
ENDBRANCH  13  18
ENDBRANCH  10  12
ENDBRANCH   2   4
BRANCH   1  20
HETATM   20  C   UNL     1      40.355 -15.292   3.725  1.00  0.00     0.164 C 
BRANCH  20  21
HETATM   21  C   UNL     1      39.924 -13.954   4.274  1.00  0.00    -0.040 A 
HETATM   22  C   UNL     1      39.525 -12.925   3.408  1.00  0.00     0.009 A 
HETATM   23  C   UNL     1      39.067 -11.708   3.917  1.00  0.00     0.001 A 
HETATM   24  C   UNL     1      39.002 -11.506   5.295  1.00  0.00     0.000 A 
HETATM   25  C   UNL     1      39.390 -12.521   6.165  1.00  0.00     0.001 A 
HETATM   26  C   UNL     1      39.838 -13.742   5.658  1.00  0.00     0.009 A 
ENDBRANCH  20  21
ENDBRANCH   1  20
BRANCH   1  27
HETATM   27  C   UNL     1      42.668 -15.076   2.844  1.00  0.00     0.164 C 
BRANCH  27  28
HETATM   28  C   UNL     1      42.092 -15.007   1.452  1.00  0.00    -0.040 A 
HETATM   29  C   UNL     1      41.900 -13.752   0.847  1.00  0.00     0.009 A 
HETATM   30  C   UNL     1      41.390 -13.650  -0.448  1.00  0.00     0.001 A 
HETATM   31  C   UNL     1      41.078 -14.803  -1.163  1.00  0.00     0.000 A 
HETATM   32  C   UNL     1      41.285 -16.054  -0.587  1.00  0.00     0.001 A 
HETATM   33  C   UNL     1      41.799 -16.156   0.708  1.00  0.00     0.009 A 
ENDBRANCH  27  28
ENDBRANCH   1  27
TORSDOF 7
ENDMDL
MODEL 9
REMARK VINA RESULT:      -7.7      2.696      6.713
REMARK  7 active torsions:
REMARK  status: ('A' for Active; 'I' for Inactive)
REMARK    1  A    between atoms: C_4  and  C_5 
REMARK    2  A    between atoms: C_5  and  N_6 
REMARK       I    between atoms: N_6  and  C_7 
REMARK    3  A    between atoms: N_6  and  C_22 
REMARK    4  A    between atoms: C_7  and  C_8 
REMARK    5  A    between atoms: C_13  and  C_14 
REMARK    6  A    between atoms: C_15  and  O_16 
REMARK    7  A    between atoms: C_22  and  C_23 
ROOT
HETATM    1  N   UNL     1      42.353 -16.870   3.031  1.00  0.00    -0.343 N 
HETATM    2  C   UNL     1      41.217 -16.327   2.443  1.00  0.00     0.235 C 
HETATM    3  O   UNL     1      40.109 -16.870   2.561  1.00  0.00    -0.272 OA
ENDROOT
BRANCH   2   4
HETATM    4  C   UNL     1      41.309 -15.043   1.656  1.00  0.00     0.195 C 
HETATM    5  C   UNL     1      41.048 -15.234   0.192  1.00  0.00     0.247 C 
HETATM    6  O   UNL     1      41.364 -16.178  -0.513  1.00  0.00    -0.271 OA
HETATM    7  N   UNL     1      40.375 -14.105  -0.248  1.00  0.00    -0.290 N 
HETATM    8  N   UNL     1      39.965 -13.268   0.794  1.00  0.00    -0.228 NA
HETATM    9  H   UNL     1      40.064 -14.022  -1.212  1.00  0.00     0.183 HD
HETATM   10  C   UNL     1      40.146 -14.099   2.014  1.00  0.00     0.134 C 
HETATM   11  H   UNL     1      38.970 -13.042   0.701  1.00  0.00     0.147 HD
BRANCH  10  12
HETATM   12  C   UNL     1      40.426 -13.304   3.272  1.00  0.00    -0.004 A 
HETATM   13  C   UNL     1      41.177 -12.118   3.258  1.00  0.00     0.073 A 
HETATM   14  C   UNL     1      41.397 -11.394   4.431  1.00  0.00     0.037 A 
HETATM   15  C   UNL     1      40.862 -11.830   5.641  1.00  0.00     0.003 A 
HETATM   16  C   UNL     1      40.104 -12.994   5.678  1.00  0.00     0.001 A 
HETATM   17  C   UNL     1      39.885 -13.720   4.506  1.00  0.00     0.012 A 
BRANCH  13  18
HETATM   18  O   UNL     1      41.748 -11.576   2.139  1.00  0.00    -0.360 OA
HETATM   19  H   UNL     1      42.576 -11.094   2.324  1.00  0.00     0.217 HD
ENDBRANCH  13  18
ENDBRANCH  10  12
ENDBRANCH   2   4
BRANCH   1  20
HETATM   20  C   UNL     1      42.189 -18.131   3.764  1.00  0.00     0.164 C 
BRANCH  20  21
HETATM   21  C   UNL     1      43.151 -19.206   3.320  1.00  0.00    -0.040 A 
HETATM   22  C   UNL     1      44.167 -19.651   4.178  1.00  0.00     0.009 A 
HETATM   23  C   UNL     1      45.019 -20.688   3.791  1.00  0.00     0.001 A 
HETATM   24  C   UNL     1      44.863 -21.292   2.544  1.00  0.00     0.000 A 
HETATM   25  C   UNL     1      43.854 -20.864   1.685  1.00  0.00     0.001 A 
HETATM   26  C   UNL     1      42.996 -19.834   2.074  1.00  0.00     0.009 A 
ENDBRANCH  20  21
ENDBRANCH   1  20
BRANCH   1  27
HETATM   27  C   UNL     1      43.560 -16.099   3.355  1.00  0.00     0.164 C 
BRANCH  27  28
HETATM   28  C   UNL     1      43.684 -15.571   4.762  1.00  0.00    -0.040 A 
HETATM   29  C   UNL     1      43.837 -16.478   5.827  1.00  0.00     0.009 A 
HETATM   30  C   UNL     1      43.977 -16.025   7.140  1.00  0.00     0.001 A 
HETATM   31  C   UNL     1      43.982 -14.659   7.406  1.00  0.00     0.000 A 
HETATM   32  C   UNL     1      43.857 -13.748   6.359  1.00  0.00     0.001 A 
HETATM   33  C   UNL     1      43.720 -14.201   5.045  1.00  0.00     0.009 A 
ENDBRANCH  27  28
ENDBRANCH   1  27
TORSDOF 7
ENDMDL
MODEL 10
REMARK VINA RESULT:      -7.7      2.883      6.462
REMARK  7 active torsions:
REMARK  status: ('A' for Active; 'I' for Inactive)
REMARK    1  A    between atoms: C_4  and  C_5 
REMARK    2  A    between atoms: C_5  and  N_6 
REMARK       I    between atoms: N_6  and  C_7 
REMARK    3  A    between atoms: N_6  and  C_22 
REMARK    4  A    between atoms: C_7  and  C_8 
REMARK    5  A    between atoms: C_13  and  C_14 
REMARK    6  A    between atoms: C_15  and  O_16 
REMARK    7  A    between atoms: C_22  and  C_23 
ROOT
HETATM    1  N   UNL     1      41.558 -15.281   2.040  1.00  0.00    -0.343 N 
HETATM    2  C   UNL     1      41.218 -14.836   3.312  1.00  0.00     0.235 C 
HETATM    3  O   UNL     1      40.037 -14.792   3.684  1.00  0.00    -0.272 OA
ENDROOT
BRANCH   2   4
HETATM    4  C   UNL     1      42.293 -14.409   4.281  1.00  0.00     0.195 C 
HETATM    5  C   UNL     1      42.175 -12.971   4.690  1.00  0.00     0.247 C 
HETATM    6  O   UNL     1      41.825 -12.021   4.010  1.00  0.00    -0.271 OA
HETATM    7  N   UNL     1      42.561 -12.897   6.019  1.00  0.00    -0.290 N 
HETATM    8  N   UNL     1      42.724 -14.152   6.614  1.00  0.00    -0.228 NA
HETATM    9  H   UNL     1      42.533 -12.017   6.525  1.00  0.00     0.183 HD
HETATM   10  C   UNL     1      42.101 -15.092   5.646  1.00  0.00     0.134 C 
HETATM   11  H   UNL     1      42.203 -14.200   7.495  1.00  0.00     0.147 HD
BRANCH  10  12
HETATM   12  C   UNL     1      42.686 -16.489   5.670  1.00  0.00    -0.004 A 
HETATM   13  C   UNL     1      41.922 -17.626   5.360  1.00  0.00     0.073 A 
HETATM   14  C   UNL     1      42.496 -18.899   5.365  1.00  0.00     0.037 A 
HETATM   15  C   UNL     1      43.845 -19.064   5.668  1.00  0.00     0.003 A 
HETATM   16  C   UNL     1      44.625 -17.953   5.965  1.00  0.00     0.001 A 
HETATM   17  C   UNL     1      44.052 -16.679   5.961  1.00  0.00     0.012 A 
BRANCH  13  18
HETATM   18  O   UNL     1      40.593 -17.602   5.036  1.00  0.00    -0.360 OA
HETATM   19  H   UNL     1      40.035 -17.199   5.729  1.00  0.00     0.217 HD
ENDBRANCH  13  18
ENDBRANCH  10  12
ENDBRANCH   2   4
BRANCH   1  20
HETATM   20  C   UNL     1      40.457 -15.661   1.147  1.00  0.00     0.164 C 
BRANCH  20  21
HETATM   21  C   UNL     1      40.592 -15.085  -0.241  1.00  0.00    -0.040 A 
HETATM   22  C   UNL     1      40.973 -15.901  -1.316  1.00  0.00     0.009 A 
HETATM   23  C   UNL     1      41.039 -15.383  -2.611  1.00  0.00     0.001 A 
HETATM   24  C   UNL     1      40.723 -14.046  -2.846  1.00  0.00     0.000 A 
HETATM   25  C   UNL     1      40.337 -13.226  -1.789  1.00  0.00     0.001 A 
HETATM   26  C   UNL     1      40.262 -13.745  -0.495  1.00  0.00     0.009 A 
ENDBRANCH  20  21
ENDBRANCH   1  20
BRANCH   1  27
HETATM   27  C   UNL     1      42.879 -15.812   1.681  1.00  0.00     0.164 C 
BRANCH  27  28
HETATM   28  C   UNL     1      43.092 -17.297   1.839  1.00  0.00    -0.040 A 
HETATM   29  C   UNL     1      42.013 -18.174   1.623  1.00  0.00     0.009 A 
HETATM   30  C   UNL     1      42.179 -19.555   1.738  1.00  0.00     0.001 A 
HETATM   31  C   UNL     1      43.428 -20.080   2.056  1.00  0.00     0.000 A 
HETATM   32  C   UNL     1      44.511 -19.226   2.248  1.00  0.00     0.001 A 
HETATM   33  C   UNL     1      44.346 -17.844   2.130  1.00  0.00     0.009 A 
ENDBRANCH  27  28
ENDBRANCH   1  27
TORSDOF 7
ENDMDL
