MODEL 1
REMARK VINA RESULT:      -9.4      0.000      0.000
REMARK  3 active torsions:
REMARK  status: ('A' for Active; 'I' for Inactive)
REMARK    1  A    between atoms: C_2  and  C_3 
REMARK    2  A    between atoms: C_8  and  C_9 
REMARK       I    between atoms: C_9  and  N_10 
REMARK    3  A    between atoms: N_10  and  C_11 
ROOT
HETATM    1  C   UNL     1      41.919 -13.860   2.372  1.00  0.00     0.104 A 
HETATM    2  N   UNL     1      41.943 -12.533   2.598  1.00  0.00    -0.174 NA
HETATM    3  N   UNL     1      42.327 -12.409   3.872  1.00  0.00    -0.288 N 
HETATM    4  H   UNL     1      42.444 -11.474   4.252  1.00  0.00     0.188 HD
HETATM    5  C   UNL     1      42.508 -13.597   4.497  1.00  0.00     0.128 A 
HETATM    6  C   UNL     1      42.219 -14.585   3.571  1.00  0.00     0.080 A 
ENDROOT
BRANCH   6   7
HETATM    7  C   UNL     1      42.272 -16.008   3.896  1.00  0.00     0.260 C 
HETATM    8  N   UNL     1      43.522 -16.585   3.774  1.00  0.00    -0.323 N 
HETATM    9  H   UNL     1      44.273 -15.985   3.459  1.00  0.00     0.169 HD
HETATM   10  O   UNL     1      41.240 -16.601   4.193  1.00  0.00    -0.267 OA
BRANCH   8  11
HETATM   11  C   UNL     1      43.870 -17.936   3.995  1.00  0.00     0.035 A 
HETATM   12  C   UNL     1      43.964 -18.894   2.981  1.00  0.00     0.037 A 
HETATM   13  C   UNL     1      44.326 -20.191   3.315  1.00  0.00    -0.050 A 
HETATM   14  C   UNL     1      44.603 -20.553   4.635  1.00  0.00    -0.052 A 
HETATM   15  C   UNL     1      44.536 -21.349   2.387  1.00  0.00     0.039 C 
HETATM   16  C   UNL     1      45.024 -21.985   4.717  1.00  0.00     0.039 C 
HETATM   17  C   UNL     1      44.524 -19.621   5.652  1.00  0.00     0.010 A 
HETATM   18  C   UNL     1      44.515 -22.526   3.373  1.00  0.00     0.009 C 
HETATM   19  C   UNL     1      44.150 -18.311   5.327  1.00  0.00     0.030 A 
ENDBRANCH   8  11
ENDBRANCH   6   7
BRANCH   1  20
HETATM   20  C   UNL     1      41.623 -14.339   1.018  1.00  0.00    -0.002 A 
HETATM   21  C   UNL     1      41.668 -15.717   0.744  1.00  0.00     0.017 A 
HETATM   22  C   UNL     1      41.358 -16.206  -0.527  1.00  0.00     0.040 A 
HETATM   23  C   UNL     1      40.996 -15.320  -1.536  1.00  0.00     0.102 A 
HETATM   24  C   UNL     1      40.968 -13.944  -1.283  1.00  0.00     0.103 A 
HETATM   25  O   UNL     1      40.678 -15.867  -2.752  1.00  0.00    -0.346 OA
HETATM   26  C   UNL     1      41.256 -13.456  -0.006  1.00  0.00     0.053 A 
HETATM   27  O   UNL     1      40.652 -13.013  -2.239  1.00  0.00    -0.346 OA
HETATM   28  C   UNL     1      40.689 -13.579  -3.555  1.00  0.00     0.202 C 
HETATM   29  C   UNL     1      39.984 -14.926  -3.579  1.00  0.00     0.202 C 
ENDBRANCH   1  20
TORSDOF 3
ENDMDL
MODEL 2
REMARK VINA RESULT:      -9.3      2.234      4.812
REMARK  3 active torsions:
REMARK  status: ('A' for Active; 'I' for Inactive)
REMARK    1  A    between atoms: C_2  and  C_3 
REMARK    2  A    between atoms: C_8  and  C_9 
REMARK       I    between atoms: C_9  and  N_10 
REMARK    3  A    between atoms: N_10  and  C_11 
ROOT
HETATM    1  C   UNL     1      41.432 -14.311   0.989  1.00  0.00     0.104 A 
HETATM    2  N   UNL     1      41.273 -13.446  -0.030  1.00  0.00    -0.174 NA
HETATM    3  N   UNL     1      41.158 -14.214  -1.118  1.00  0.00    -0.288 N 
HETATM    4  H   UNL     1      40.998 -13.761  -2.013  1.00  0.00     0.188 HD
HETATM    5  C   UNL     1      41.284 -15.537  -0.857  1.00  0.00     0.128 A 
HETATM    6  C   UNL     1      41.501 -15.658   0.504  1.00  0.00     0.080 A 
ENDROOT
BRANCH   6   7
HETATM    7  C   UNL     1      41.719 -16.948   1.155  1.00  0.00     0.260 C 
HETATM    8  N   UNL     1      42.952 -17.089   1.765  1.00  0.00    -0.323 N 
HETATM    9  H   UNL     1      43.589 -16.307   1.691  1.00  0.00     0.169 HD
HETATM   10  O   UNL     1      40.857 -17.817   1.083  1.00  0.00    -0.267 OA
BRANCH   8  11
HETATM   11  C   UNL     1      43.450 -18.222   2.445  1.00  0.00     0.035 A 
HETATM   12  C   UNL     1      43.622 -19.476   1.851  1.00  0.00     0.037 A 
HETATM   13  C   UNL     1      44.131 -20.516   2.615  1.00  0.00    -0.050 A 
HETATM   14  C   UNL     1      44.478 -20.333   3.955  1.00  0.00    -0.052 A 
HETATM   15  C   UNL     1      44.443 -21.911   2.168  1.00  0.00     0.039 C 
HETATM   16  C   UNL     1      45.053 -21.586   4.533  1.00  0.00     0.039 C 
HETATM   17  C   UNL     1      44.322 -19.101   4.561  1.00  0.00     0.010 A 
HETATM   18  C   UNL     1      44.574 -22.633   3.516  1.00  0.00     0.009 C 
HETATM   19  C   UNL     1      43.801 -18.046   3.801  1.00  0.00     0.030 A 
ENDBRANCH   8  11
ENDBRANCH   6   7
BRANCH   1  20
HETATM   20  C   UNL     1      41.493 -13.787   2.356  1.00  0.00    -0.002 A 
HETATM   21  C   UNL     1      42.736 -13.680   3.004  1.00  0.00     0.017 A 
HETATM   22  C   UNL     1      42.829 -13.153   4.294  1.00  0.00     0.040 A 
HETATM   23  C   UNL     1      41.678 -12.724   4.948  1.00  0.00     0.102 A 
HETATM   24  C   UNL     1      40.432 -12.844   4.322  1.00  0.00     0.103 A 
HETATM   25  O   UNL     1      41.843 -12.192   6.200  1.00  0.00    -0.346 OA
HETATM   26  C   UNL     1      40.341 -13.350   3.024  1.00  0.00     0.053 A 
HETATM   27  O   UNL     1      39.256 -12.472   4.921  1.00  0.00    -0.346 OA
HETATM   28  C   UNL     1      39.423 -12.274   6.330  1.00  0.00     0.202 C 
HETATM   29  C   UNL     1      40.679 -11.466   6.612  1.00  0.00     0.202 C 
ENDBRANCH   1  20
TORSDOF 3
ENDMDL
MODEL 3
REMARK VINA RESULT:      -9.3      1.330      1.554
REMARK  3 active torsions:
REMARK  status: ('A' for Active; 'I' for Inactive)
REMARK    1  A    between atoms: C_2  and  C_3 
REMARK    2  A    between atoms: C_8  and  C_9 
REMARK       I    between atoms: C_9  and  N_10 
REMARK    3  A    between atoms: N_10  and  C_11 
ROOT
HETATM    1  C   UNL     1      41.393 -13.655   1.162  1.00  0.00     0.104 A 
HETATM    2  N   UNL     1      41.506 -12.335   1.400  1.00  0.00    -0.174 NA
HETATM    3  N   UNL     1      42.148 -12.250   2.569  1.00  0.00    -0.288 N 
HETATM    4  H   UNL     1      42.371 -11.328   2.931  1.00  0.00     0.188 HD
HETATM    5  C   UNL     1      42.415 -13.456   3.124  1.00  0.00     0.128 A 
HETATM    6  C   UNL     1      41.910 -14.415   2.263  1.00  0.00     0.080 A 
ENDROOT
BRANCH   6   7
HETATM    7  C   UNL     1      41.981 -15.846   2.547  1.00  0.00     0.260 C 
HETATM    8  N   UNL     1      43.244 -16.311   2.864  1.00  0.00    -0.323 N 
HETATM    9  H   UNL     1      43.996 -15.635   2.854  1.00  0.00     0.169 HD
HETATM   10  O   UNL     1      40.973 -16.537   2.440  1.00  0.00    -0.267 OA
BRANCH   8  11
HETATM   11  C   UNL     1      43.621 -17.640   3.159  1.00  0.00     0.035 A 
HETATM   12  C   UNL     1      43.686 -18.663   2.208  1.00  0.00     0.037 A 
HETATM   13  C   UNL     1      44.080 -19.930   2.611  1.00  0.00    -0.050 A 
HETATM   14  C   UNL     1      44.417 -20.200   3.939  1.00  0.00    -0.052 A 
HETATM   15  C   UNL     1      44.269 -21.145   1.755  1.00  0.00     0.039 C 
HETATM   16  C   UNL     1      44.862 -21.619   4.099  1.00  0.00     0.039 C 
HETATM   17  C   UNL     1      44.366 -19.203   4.895  1.00  0.00     0.010 A 
HETATM   18  C   UNL     1      44.306 -22.254   2.816  1.00  0.00     0.009 C 
HETATM   19  C   UNL     1      43.960 -17.922   4.500  1.00  0.00     0.030 A 
ENDBRANCH   8  11
ENDBRANCH   6   7
BRANCH   1  20
HETATM   20  C   UNL     1      40.809 -14.096  -0.108  1.00  0.00    -0.002 A 
HETATM   21  C   UNL     1      41.484 -15.050  -0.888  1.00  0.00     0.017 A 
HETATM   22  C   UNL     1      40.936 -15.514  -2.086  1.00  0.00     0.040 A 
HETATM   23  C   UNL     1      39.705 -15.029  -2.514  1.00  0.00     0.102 A 
HETATM   24  C   UNL     1      39.033 -14.062  -1.758  1.00  0.00     0.103 A 
HETATM   25  O   UNL     1      39.212 -15.545  -3.684  1.00  0.00    -0.346 OA
HETATM   26  C   UNL     1      39.569 -13.615  -0.549  1.00  0.00     0.053 A 
HETATM   27  O   UNL     1      37.832 -13.517  -2.137  1.00  0.00    -0.346 OA
HETATM   28  C   UNL     1      37.538 -13.799  -3.511  1.00  0.00     0.202 C 
HETATM   29  C   UNL     1      37.816 -15.259  -3.829  1.00  0.00     0.202 C 
ENDBRANCH   1  20
TORSDOF 3
ENDMDL
MODEL 4
REMARK VINA RESULT:      -9.2      6.308     10.230
REMARK  3 active torsions:
REMARK  status: ('A' for Active; 'I' for Inactive)
REMARK    1  A    between atoms: C_2  and  C_3 
REMARK    2  A    between atoms: C_8  and  C_9 
REMARK       I    between atoms: C_9  and  N_10 
REMARK    3  A    between atoms: N_10  and  C_11 
ROOT
HETATM    1  C   UNL     1      45.563 -13.290   7.244  1.00  0.00     0.104 A 
HETATM    2  N   UNL     1      46.676 -13.129   6.504  1.00  0.00    -0.174 NA
HETATM    3  N   UNL     1      47.468 -12.346   7.243  1.00  0.00    -0.288 N 
HETATM    4  H   UNL     1      48.390 -12.116   6.884  1.00  0.00     0.188 HD
HETATM    5  C   UNL     1      46.900 -11.952   8.408  1.00  0.00     0.128 A 
HETATM    6  C   UNL     1      45.635 -12.512   8.446  1.00  0.00     0.080 A 
ENDROOT
BRANCH   6   7
HETATM    7  C   UNL     1      44.703 -12.280   9.547  1.00  0.00     0.260 C 
HETATM    8  N   UNL     1      44.296 -10.967   9.694  1.00  0.00    -0.323 N 
HETATM    9  H   UNL     1      44.687 -10.292   9.050  1.00  0.00     0.169 HD
HETATM   10  O   UNL     1      44.388 -13.210  10.281  1.00  0.00    -0.267 OA
BRANCH   8  11
HETATM   11  C   UNL     1      43.427 -10.442  10.676  1.00  0.00     0.035 A 
HETATM   12  C   UNL     1      43.805 -10.187  11.998  1.00  0.00     0.037 A 
HETATM   13  C   UNL     1      42.868  -9.659  12.874  1.00  0.00    -0.050 A 
HETATM   14  C   UNL     1      41.565  -9.373  12.460  1.00  0.00    -0.052 A 
HETATM   15  C   UNL     1      43.074  -9.263  14.304  1.00  0.00     0.039 C 
HETATM   16  C   UNL     1      40.775  -8.761  13.573  1.00  0.00     0.039 C 
HETATM   17  C   UNL     1      41.171  -9.611  11.158  1.00  0.00     0.010 A 
HETATM   18  C   UNL     1      41.623  -9.151  14.793  1.00  0.00     0.009 C 
HETATM   19  C   UNL     1      42.107 -10.152  10.268  1.00  0.00     0.030 A 
ENDBRANCH   8  11
ENDBRANCH   6   7
BRANCH   1  20
HETATM   20  C   UNL     1      44.514 -14.189   6.753  1.00  0.00    -0.002 A 
HETATM   21  C   UNL     1      43.306 -13.652   6.276  1.00  0.00     0.017 A 
HETATM   22  C   UNL     1      42.303 -14.481   5.771  1.00  0.00     0.040 A 
HETATM   23  C   UNL     1      42.500 -15.858   5.734  1.00  0.00     0.102 A 
HETATM   24  C   UNL     1      43.689 -16.407   6.226  1.00  0.00     0.103 A 
HETATM   25  O   UNL     1      41.486 -16.611   5.202  1.00  0.00    -0.346 OA
HETATM   26  C   UNL     1      44.702 -15.577   6.710  1.00  0.00     0.053 A 
HETATM   27  O   UNL     1      43.936 -17.756   6.250  1.00  0.00    -0.346 OA
HETATM   28  C   UNL     1      42.738 -18.513   6.037  1.00  0.00     0.202 C 
HETATM   29  C   UNL     1      41.937 -17.934   4.883  1.00  0.00     0.202 C 
ENDBRANCH   1  20
TORSDOF 3
ENDMDL
MODEL 5
REMARK VINA RESULT:      -9.1      1.192      1.512
REMARK  3 active torsions:
REMARK  status: ('A' for Active; 'I' for Inactive)
REMARK    1  A    between atoms: C_2  and  C_3 
REMARK    2  A    between atoms: C_8  and  C_9 
REMARK       I    between atoms: C_9  and  N_10 
REMARK    3  A    between atoms: N_10  and  C_11 
ROOT
HETATM    1  C   UNL     1      41.207 -13.351   2.460  1.00  0.00     0.104 A 
HETATM    2  N   UNL     1      41.357 -12.063   2.823  1.00  0.00    -0.174 NA
HETATM    3  N   UNL     1      42.114 -12.102   3.923  1.00  0.00    -0.288 N 
HETATM    4  H   UNL     1      42.381 -11.223   4.356  1.00  0.00     0.188 HD
HETATM    5  C   UNL     1      42.423 -13.360   4.318  1.00  0.00     0.128 A 
HETATM    6  C   UNL     1      41.825 -14.222   3.416  1.00  0.00     0.080 A 
ENDROOT
BRANCH   6   7
HETATM    7  C   UNL     1      41.910 -15.675   3.538  1.00  0.00     0.260 C 
HETATM    8  N   UNL     1      43.197 -16.179   3.577  1.00  0.00    -0.323 N 
HETATM    9  H   UNL     1      43.952 -15.510   3.499  1.00  0.00     0.169 HD
HETATM   10  O   UNL     1      40.883 -16.345   3.546  1.00  0.00    -0.267 OA
BRANCH   8  11
HETATM   11  C   UNL     1      43.587 -17.534   3.665  1.00  0.00     0.035 A 
HETATM   12  C   UNL     1      43.552 -18.428   2.592  1.00  0.00     0.037 A 
HETATM   13  C   UNL     1      43.970 -19.736   2.794  1.00  0.00    -0.050 A 
HETATM   14  C   UNL     1      44.430 -20.169   4.040  1.00  0.00    -0.052 A 
HETATM   15  C   UNL     1      44.065 -20.833   1.778  1.00  0.00     0.039 C 
HETATM   16  C   UNL     1      44.873 -21.596   3.977  1.00  0.00     0.039 C 
HETATM   17  C   UNL     1      44.479 -19.300   5.113  1.00  0.00     0.010 A 
HETATM   18  C   UNL     1      44.192 -22.066   2.683  1.00  0.00     0.009 C 
HETATM   19  C   UNL     1      44.050 -17.981   4.922  1.00  0.00     0.030 A 
ENDBRANCH   8  11
ENDBRANCH   6   7
BRANCH   1  20
HETATM   20  C   UNL     1      40.494 -13.654   1.215  1.00  0.00    -0.002 A 
HETATM   21  C   UNL     1      39.128 -13.343   1.104  1.00  0.00     0.017 A 
HETATM   22  C   UNL     1      38.431 -13.590  -0.080  1.00  0.00     0.040 A 
HETATM   23  C   UNL     1      39.096 -14.147  -1.168  1.00  0.00     0.102 A 
HETATM   24  C   UNL     1      40.450 -14.481  -1.063  1.00  0.00     0.103 A 
HETATM   25  O   UNL     1      38.360 -14.339  -2.308  1.00  0.00    -0.346 OA
HETATM   26  C   UNL     1      41.154 -14.215   0.113  1.00  0.00     0.053 A 
HETATM   27  O   UNL     1      41.159 -15.063  -2.084  1.00  0.00    -0.346 OA
HETATM   28  C   UNL     1      40.289 -15.575  -3.101  1.00  0.00     0.202 C 
HETATM   29  C   UNL     1      39.208 -14.563  -3.441  1.00  0.00     0.202 C 
ENDBRANCH   1  20
TORSDOF 3
ENDMDL
MODEL 6
REMARK VINA RESULT:      -9.1      2.504      4.804
REMARK  3 active torsions:
REMARK  status: ('A' for Active; 'I' for Inactive)
REMARK    1  A    between atoms: C_2  and  C_3 
REMARK    2  A    between atoms: C_8  and  C_9 
REMARK       I    between atoms: C_9  and  N_10 
REMARK    3  A    between atoms: N_10  and  C_11 
ROOT
HETATM    1  C   UNL     1      40.675 -14.264   0.513  1.00  0.00     0.104 A 
HETATM    2  N   UNL     1      40.664 -13.580  -0.647  1.00  0.00    -0.174 NA
HETATM    3  N   UNL     1      41.011 -14.475  -1.576  1.00  0.00    -0.288 N 
HETATM    4  H   UNL     1      41.037 -14.176  -2.547  1.00  0.00     0.188 HD
HETATM    5  C   UNL     1      41.295 -15.697  -1.066  1.00  0.00     0.128 A 
HETATM    6  C   UNL     1      41.126 -15.608   0.305  1.00  0.00     0.080 A 
ENDROOT
BRANCH   6   7
HETATM    7  C   UNL     1      41.377 -16.732   1.204  1.00  0.00     0.260 C 
HETATM    8  N   UNL     1      42.708 -17.080   1.339  1.00  0.00    -0.323 N 
HETATM    9  H   UNL     1      43.377 -16.547   0.799  1.00  0.00     0.169 HD
HETATM   10  O   UNL     1      40.432 -17.315   1.724  1.00  0.00    -0.267 OA
BRANCH   8  11
HETATM   11  C   UNL     1      43.247 -18.131   2.113  1.00  0.00     0.035 A 
HETATM   12  C   UNL     1      43.440 -19.432   1.638  1.00  0.00     0.037 A 
HETATM   13  C   UNL     1      43.988 -20.382   2.487  1.00  0.00    -0.050 A 
HETATM   14  C   UNL     1      44.355 -20.063   3.797  1.00  0.00    -0.052 A 
HETATM   15  C   UNL     1      44.328 -21.806   2.168  1.00  0.00     0.039 C 
HETATM   16  C   UNL     1      44.972 -21.242   4.479  1.00  0.00     0.039 C 
HETATM   17  C   UNL     1      44.178 -18.783   4.286  1.00  0.00     0.010 A 
HETATM   18  C   UNL     1      44.501 -22.393   3.576  1.00  0.00     0.009 C 
HETATM   19  C   UNL     1      43.617 -17.819   3.440  1.00  0.00     0.030 A 
ENDBRANCH   8  11
ENDBRANCH   6   7
BRANCH   1  20
HETATM   20  C   UNL     1      40.240 -13.584   1.737  1.00  0.00    -0.002 A 
HETATM   21  C   UNL     1      39.070 -12.807   1.721  1.00  0.00     0.017 A 
HETATM   22  C   UNL     1      38.612 -12.175   2.879  1.00  0.00     0.040 A 
HETATM   23  C   UNL     1      39.321 -12.319   4.068  1.00  0.00     0.102 A 
HETATM   24  C   UNL     1      40.500 -13.073   4.093  1.00  0.00     0.103 A 
HETATM   25  O   UNL     1      38.803 -11.696   5.173  1.00  0.00    -0.346 OA
HETATM   26  C   UNL     1      40.946 -13.723   2.940  1.00  0.00     0.053 A 
HETATM   27  O   UNL     1      41.264 -13.229   5.221  1.00  0.00    -0.346 OA
HETATM   28  C   UNL     1      40.903 -12.284   6.235  1.00  0.00     0.202 C 
HETATM   29  C   UNL     1      39.392 -12.202   6.377  1.00  0.00     0.202 C 
ENDBRANCH   1  20
TORSDOF 3
ENDMDL
MODEL 7
REMARK VINA RESULT:      -8.8      2.392      7.859
REMARK  3 active torsions:
REMARK  status: ('A' for Active; 'I' for Inactive)
REMARK    1  A    between atoms: C_2  and  C_3 
REMARK    2  A    between atoms: C_8  and  C_9 
REMARK       I    between atoms: C_9  and  N_10 
REMARK    3  A    between atoms: N_10  and  C_11 
ROOT
HETATM    1  C   UNL     1      41.459 -16.208   5.029  1.00  0.00     0.104 A 
HETATM    2  N   UNL     1      40.596 -16.214   6.062  1.00  0.00    -0.174 NA
HETATM    3  N   UNL     1      39.797 -15.164   5.848  1.00  0.00    -0.288 N 
HETATM    4  H   UNL     1      39.038 -14.994   6.502  1.00  0.00     0.188 HD
HETATM    5  C   UNL     1      40.132 -14.449   4.748  1.00  0.00     0.128 A 
HETATM    6  C   UNL     1      41.238 -15.066   4.190  1.00  0.00     0.080 A 
ENDROOT
BRANCH   6   7
HETATM    7  C   UNL     1      41.909 -14.554   2.998  1.00  0.00     0.260 C 
HETATM    8  N   UNL     1      41.061 -14.178   1.973  1.00  0.00    -0.323 N 
HETATM    9  H   UNL     1      40.070 -14.306   2.129  1.00  0.00     0.169 HD
HETATM   10  O   UNL     1      43.135 -14.536   2.952  1.00  0.00    -0.267 OA
BRANCH   8  11
HETATM   11  C   UNL     1      41.420 -13.675   0.703  1.00  0.00     0.035 A 
HETATM   12  C   UNL     1      42.014 -12.426   0.497  1.00  0.00     0.037 A 
HETATM   13  C   UNL     1      42.334 -12.041  -0.798  1.00  0.00    -0.050 A 
HETATM   14  C   UNL     1      42.080 -12.874  -1.889  1.00  0.00    -0.052 A 
HETATM   15  C   UNL     1      43.019 -10.782  -1.234  1.00  0.00     0.039 C 
HETATM   16  C   UNL     1      42.568 -12.253  -3.159  1.00  0.00     0.039 C 
HETATM   17  C   UNL     1      41.499 -14.114  -1.708  1.00  0.00     0.010 A 
HETATM   18  C   UNL     1      42.712 -10.782  -2.738  1.00  0.00     0.009 C 
HETATM   19  C   UNL     1      41.164 -14.509  -0.407  1.00  0.00     0.030 A 
ENDBRANCH   8  11
ENDBRANCH   6   7
BRANCH   1  20
HETATM   20  C   UNL     1      42.425 -17.304   4.911  1.00  0.00    -0.002 A 
HETATM   21  C   UNL     1      43.316 -17.560   5.967  1.00  0.00     0.017 A 
HETATM   22  C   UNL     1      44.225 -18.618   5.897  1.00  0.00     0.040 A 
HETATM   23  C   UNL     1      44.248 -19.433   4.770  1.00  0.00     0.102 A 
HETATM   24  C   UNL     1      43.381 -19.176   3.702  1.00  0.00     0.103 A 
HETATM   25  O   UNL     1      45.145 -20.470   4.777  1.00  0.00    -0.346 OA
HETATM   26  C   UNL     1      42.456 -18.132   3.781  1.00  0.00     0.053 A 
HETATM   27  O   UNL     1      43.373 -19.918   2.549  1.00  0.00    -0.346 OA
HETATM   28  C   UNL     1      44.545 -20.736   2.442  1.00  0.00     0.202 C 
HETATM   29  C   UNL     1      44.834 -21.432   3.762  1.00  0.00     0.202 C 
ENDBRANCH   1  20
TORSDOF 3
ENDMDL
MODEL 8
REMARK VINA RESULT:      -8.8      2.835      3.695
REMARK  3 active torsions:
REMARK  status: ('A' for Active; 'I' for Inactive)
REMARK    1  A    between atoms: C_2  and  C_3 
REMARK    2  A    between atoms: C_8  and  C_9 
REMARK       I    between atoms: C_9  and  N_10 
REMARK    3  A    between atoms: N_10  and  C_11 
ROOT
HETATM    1  C   UNL     1      41.788 -13.249   5.076  1.00  0.00     0.104 A 
HETATM    2  N   UNL     1      41.899 -12.532   6.210  1.00  0.00    -0.174 NA
HETATM    3  N   UNL     1      43.027 -12.966   6.781  1.00  0.00    -0.288 N 
HETATM    4  H   UNL     1      43.326 -12.531   7.649  1.00  0.00     0.188 HD
HETATM    5  C   UNL     1      43.628 -13.966   6.093  1.00  0.00     0.128 A 
HETATM    6  C   UNL     1      42.841 -14.218   4.983  1.00  0.00     0.080 A 
ENDROOT
BRANCH   6   7
HETATM    7  C   UNL     1      43.156 -15.265   4.014  1.00  0.00     0.260 C 
HETATM    8  N   UNL     1      42.896 -16.552   4.447  1.00  0.00    -0.323 N 
HETATM    9  H   UNL     1      42.534 -16.654   5.386  1.00  0.00     0.169 HD
HETATM   10  O   UNL     1      43.663 -14.964   2.939  1.00  0.00    -0.267 OA
BRANCH   8  11
HETATM   11  C   UNL     1      43.122 -17.757   3.745  1.00  0.00     0.035 A 
HETATM   12  C   UNL     1      43.888 -18.817   4.238  1.00  0.00     0.037 A 
HETATM   13  C   UNL     1      44.032 -19.959   3.463  1.00  0.00    -0.050 A 
HETATM   14  C   UNL     1      43.424 -20.069   2.210  1.00  0.00    -0.052 A 
HETATM   15  C   UNL     1      44.756 -21.221   3.819  1.00  0.00     0.039 C 
HETATM   16  C   UNL     1      43.685 -21.413   1.609  1.00  0.00     0.039 C 
HETATM   17  C   UNL     1      42.658 -19.037   1.706  1.00  0.00     0.010 A 
HETATM   18  C   UNL     1      44.884 -21.889   2.443  1.00  0.00     0.009 C 
HETATM   19  C   UNL     1      42.514 -17.877   2.476  1.00  0.00     0.030 A 
ENDBRANCH   8  11
ENDBRANCH   6   7
BRANCH   1  20
HETATM   20  C   UNL     1      40.689 -12.946   4.154  1.00  0.00    -0.002 A 
HETATM   21  C   UNL     1      40.099 -11.671   4.174  1.00  0.00     0.017 A 
HETATM   22  C   UNL     1      39.073 -11.342   3.285  1.00  0.00     0.040 A 
HETATM   23  C   UNL     1      38.630 -12.286   2.364  1.00  0.00     0.102 A 
HETATM   24  C   UNL     1      39.195 -13.566   2.348  1.00  0.00     0.103 A 
HETATM   25  O   UNL     1      37.640 -11.890   1.504  1.00  0.00    -0.346 OA
HETATM   26  C   UNL     1      40.236 -13.889   3.222  1.00  0.00     0.053 A 
HETATM   27  O   UNL     1      38.785 -14.554   1.490  1.00  0.00    -0.346 OA
HETATM   28  C   UNL     1      37.531 -14.230   0.877  1.00  0.00     0.202 C 
HETATM   29  C   UNL     1      37.527 -12.789   0.394  1.00  0.00     0.202 C 
ENDBRANCH   1  20
TORSDOF 3
ENDMDL
MODEL 9
REMARK VINA RESULT:      -8.8      2.201      7.375
REMARK  3 active torsions:
REMARK  status: ('A' for Active; 'I' for Inactive)
REMARK    1  A    between atoms: C_2  and  C_3 
REMARK    2  A    between atoms: C_8  and  C_9 
REMARK       I    between atoms: C_9  and  N_10 
REMARK    3  A    between atoms: N_10  and  C_11 
ROOT
HETATM    1  C   UNL     1      43.206 -16.391   4.758  1.00  0.00     0.104 A 
HETATM    2  N   UNL     1      43.472 -16.388   6.078  1.00  0.00    -0.174 NA
HETATM    3  N   UNL     1      43.198 -15.143   6.480  1.00  0.00    -0.288 N 
HETATM    4  H   UNL     1      43.301 -14.921   7.466  1.00  0.00     0.188 HD
HETATM    5  C   UNL     1      42.812 -14.325   5.472  1.00  0.00     0.128 A 
HETATM    6  C   UNL     1      42.833 -15.081   4.312  1.00  0.00     0.080 A 
ENDROOT
BRANCH   6   7
HETATM    7  C   UNL     1      42.506 -14.523   3.002  1.00  0.00     0.260 C 
HETATM    8  N   UNL     1      41.409 -15.096   2.386  1.00  0.00    -0.323 N 
HETATM    9  H   UNL     1      40.950 -15.851   2.880  1.00  0.00     0.169 HD
HETATM   10  O   UNL     1      43.221 -13.653   2.517  1.00  0.00    -0.267 OA
BRANCH   8  11
HETATM   11  C   UNL     1      40.876 -14.784   1.116  1.00  0.00     0.035 A 
HETATM   12  C   UNL     1      41.308 -15.369  -0.078  1.00  0.00     0.037 A 
HETATM   13  C   UNL     1      40.702 -14.991  -1.267  1.00  0.00    -0.050 A 
HETATM   14  C   UNL     1      39.671 -14.049  -1.293  1.00  0.00    -0.052 A 
HETATM   15  C   UNL     1      40.971 -15.527  -2.641  1.00  0.00     0.039 C 
HETATM   16  C   UNL     1      39.154 -13.863  -2.683  1.00  0.00     0.039 C 
HETATM   17  C   UNL     1      39.224 -13.463  -0.125  1.00  0.00     0.010 A 
HETATM   18  C   UNL     1      40.302 -14.455  -3.514  1.00  0.00     0.009 C 
HETATM   19  C   UNL     1      39.835 -13.830   1.081  1.00  0.00     0.030 A 
ENDBRANCH   8  11
ENDBRANCH   6   7
BRANCH   1  20
HETATM   20  C   UNL     1      43.315 -17.653   4.020  1.00  0.00    -0.002 A 
HETATM   21  C   UNL     1      42.661 -17.793   2.784  1.00  0.00     0.017 A 
HETATM   22  C   UNL     1      42.774 -18.971   2.042  1.00  0.00     0.040 A 
HETATM   23  C   UNL     1      43.547 -20.020   2.529  1.00  0.00     0.102 A 
HETATM   24  C   UNL     1      44.187 -19.901   3.768  1.00  0.00     0.103 A 
HETATM   25  O   UNL     1      43.638 -21.136   1.739  1.00  0.00    -0.346 OA
HETATM   26  C   UNL     1      44.093 -18.716   4.500  1.00  0.00     0.053 A 
HETATM   27  O   UNL     1      44.937 -20.907   4.322  1.00  0.00    -0.346 OA
HETATM   28  C   UNL     1      44.709 -22.158   3.660  1.00  0.00     0.202 C 
HETATM   29  C   UNL     1      44.723 -21.976   2.152  1.00  0.00     0.202 C 
ENDBRANCH   1  20
TORSDOF 3
ENDMDL
MODEL 10
REMARK VINA RESULT:      -8.8      1.391      2.178
REMARK  3 active torsions:
REMARK  status: ('A' for Active; 'I' for Inactive)
REMARK    1  A    between atoms: C_2  and  C_3 
REMARK    2  A    between atoms: C_8  and  C_9 
REMARK       I    between atoms: C_9  and  N_10 
REMARK    3  A    between atoms: N_10  and  C_11 
ROOT
HETATM    1  C   UNL     1      41.140 -12.695   2.018  1.00  0.00     0.104 A 
HETATM    2  N   UNL     1      41.054 -11.391   2.340  1.00  0.00    -0.174 NA
HETATM    3  N   UNL     1      41.444 -11.325   3.616  1.00  0.00    -0.288 N 
HETATM    4  H   UNL     1      41.485 -10.413   4.061  1.00  0.00     0.188 HD
HETATM    5  C   UNL     1      41.734 -12.535   4.152  1.00  0.00     0.128 A 
HETATM    6  C   UNL     1      41.518 -13.475   3.160  1.00  0.00     0.080 A 
ENDROOT
BRANCH   6   7
HETATM    7  C   UNL     1      41.695 -14.908   3.380  1.00  0.00     0.260 C 
HETATM    8  N   UNL     1      42.847 -15.441   2.832  1.00  0.00    -0.323 N 
HETATM    9  H   UNL     1      43.445 -14.806   2.319  1.00  0.00     0.169 HD
HETATM   10  O   UNL     1      40.826 -15.544   3.967  1.00  0.00    -0.267 OA
BRANCH   8  11
HETATM   11  C   UNL     1      43.270 -16.788   2.861  1.00  0.00     0.035 A 
HETATM   12  C   UNL     1      43.636 -17.466   4.028  1.00  0.00     0.037 A 
HETATM   13  C   UNL     1      44.025 -18.795   3.937  1.00  0.00    -0.050 A 
HETATM   14  C   UNL     1      44.050 -19.464   2.712  1.00  0.00    -0.052 A 
HETATM   15  C   UNL     1      44.400 -19.716   5.058  1.00  0.00     0.039 C 
HETATM   16  C   UNL     1      44.447 -20.895   2.894  1.00  0.00     0.039 C 
HETATM   17  C   UNL     1      43.687 -18.816   1.548  1.00  0.00     0.010 A 
HETATM   18  C   UNL     1      45.089 -20.853   4.289  1.00  0.00     0.009 C 
HETATM   19  C   UNL     1      43.302 -17.472   1.626  1.00  0.00     0.030 A 
ENDBRANCH   8  11
ENDBRANCH   6   7
BRANCH   1  20
HETATM   20  C   UNL     1      40.867 -13.100   0.636  1.00  0.00    -0.002 A 
HETATM   21  C   UNL     1      41.929 -13.207  -0.278  1.00  0.00     0.017 A 
HETATM   22  C   UNL     1      41.705 -13.623  -1.593  1.00  0.00     0.040 A 
HETATM   23  C   UNL     1      40.415 -13.941  -2.004  1.00  0.00     0.102 A 
HETATM   24  C   UNL     1      39.345 -13.819  -1.110  1.00  0.00     0.103 A 
HETATM   25  O   UNL     1      40.268 -14.369  -3.298  1.00  0.00    -0.346 OA
HETATM   26  C   UNL     1      39.572 -13.424   0.211  1.00  0.00     0.053 A 
HETATM   27  O   UNL     1      38.045 -14.083  -1.457  1.00  0.00    -0.346 OA
HETATM   28  C   UNL     1      37.888 -14.165  -2.879  1.00  0.00     0.202 C 
HETATM   29  C   UNL     1      38.998 -15.002  -3.493  1.00  0.00     0.202 C 
ENDBRANCH   1  20
TORSDOF 3
ENDMDL
