MODEL 1
REMARK VINA RESULT:      -8.3      0.000      0.000
REMARK  5 active torsions:
REMARK  status: ('A' for Active; 'I' for Inactive)
REMARK    1  A    between atoms: C_3  and  O_4 
REMARK    2  A    between atoms: O_4  and  C_5 
REMARK    3  A    between atoms: C_5  and  C_6 
REMARK       I    between atoms: C_6  and  N_7 
REMARK    4  A    between atoms: N_7  and  N_8 
REMARK    5  A    between atoms: C_9  and  C_10 
ROOT
HETATM    1  C   UNL     1      44.700 -13.694   7.347  1.00  0.00     0.261 C 
HETATM    2  N   UNL     1      43.596 -14.454   6.960  1.00  0.00    -0.246 N 
HETATM    3  O   UNL     1      45.755 -13.609   6.724  1.00  0.00    -0.269 OA
HETATM    4  H   UNL     1      42.751 -14.458   7.519  1.00  0.00     0.192 HD
ENDROOT
BRANCH   2   5
HETATM    5  N   UNL     1      43.641 -15.195   5.814  1.00  0.00    -0.184 NA
HETATM    6  C   UNL     1      42.701 -16.072   5.677  1.00  0.00     0.152 C 
BRANCH   6   7
HETATM    7  C   UNL     1      42.661 -16.912   4.498  1.00  0.00     0.011 A 
HETATM    8  C   UNL     1      43.416 -18.104   4.256  1.00  0.00     0.004 A 
HETATM    9  C   UNL     1      43.052 -18.579   2.994  1.00  0.00     0.043 A 
HETATM   10  C   UNL     1      44.374 -18.831   4.993  1.00  0.00     0.014 A 
HETATM   11  C   UNL     1      43.598 -19.740   2.434  1.00  0.00     0.030 A 
HETATM   12  N   UNL     1      42.115 -17.708   2.487  1.00  0.00    -0.364 N 
HETATM   13  C   UNL     1      44.544 -20.442   3.186  1.00  0.00     0.002 A 
HETATM   14  C   UNL     1      44.929 -19.996   4.448  1.00  0.00     0.001 A 
HETATM   15  H   UNL     1      41.671 -17.802   1.584  1.00  0.00     0.165 HD
HETATM   16  C   UNL     1      41.871 -16.705   3.383  1.00  0.00     0.102 A 
ENDBRANCH   6   7
ENDBRANCH   2   5
BRANCH   1  17
HETATM   17  C   UNL     1      44.428 -12.950   8.658  1.00  0.00     0.280 C 
BRANCH  17  18
HETATM   18  O   UNL     1      44.199 -11.555   8.467  1.00  0.00    -0.341 OA
BRANCH  18  19
HETATM   19  C   UNL     1      43.701 -10.986   9.612  1.00  0.00     0.081 A 
HETATM   20  C   UNL     1      44.525 -10.827  10.738  1.00  0.00    -0.027 A 
HETATM   21  C   UNL     1      45.962 -11.264  10.738  1.00  0.00     0.051 C 
HETATM   22  C   UNL     1      43.971 -10.276  11.902  1.00  0.00     0.028 A 
HETATM   23  C   UNL     1      42.642  -9.856  11.917  1.00  0.00     0.012 A 
HETATM   24  C   UNL     1      41.845  -9.972  10.778  1.00  0.00     0.028 A 
HETATM   25 BR   UNL     1      41.912  -9.117  13.497  1.00  0.00    -0.051 Br
HETATM   26  C   UNL     1      42.374 -10.525   9.605  1.00  0.00    -0.027 A 
HETATM   27  C   UNL     1      41.515 -10.652   8.378  1.00  0.00     0.051 C 
ENDBRANCH  18  19
ENDBRANCH  17  18
ENDBRANCH   1  17
TORSDOF 5
ENDMDL
MODEL 2
REMARK VINA RESULT:      -8.3      1.199      1.821
REMARK  5 active torsions:
REMARK  status: ('A' for Active; 'I' for Inactive)
REMARK    1  A    between atoms: C_3  and  O_4 
REMARK    2  A    between atoms: O_4  and  C_5 
REMARK    3  A    between atoms: C_5  and  C_6 
REMARK       I    between atoms: C_6  and  N_7 
REMARK    4  A    between atoms: N_7  and  N_8 
REMARK    5  A    between atoms: C_9  and  C_10 
ROOT
HETATM    1  C   UNL     1      44.762 -13.835   7.518  1.00  0.00     0.261 C 
HETATM    2  N   UNL     1      43.915 -14.938   7.395  1.00  0.00    -0.246 N 
HETATM    3  O   UNL     1      45.701 -13.578   6.770  1.00  0.00    -0.269 OA
HETATM    4  H   UNL     1      43.146 -15.073   8.042  1.00  0.00     0.192 HD
ENDROOT
BRANCH   2   5
HETATM    5  N   UNL     1      44.109 -15.843   6.392  1.00  0.00    -0.184 NA
HETATM    6  C   UNL     1      43.868 -17.077   6.697  1.00  0.00     0.152 C 
BRANCH   6   7
HETATM    7  C   UNL     1      44.046 -18.116   5.705  1.00  0.00     0.011 A 
HETATM    8  C   UNL     1      43.830 -18.013   4.293  1.00  0.00     0.004 A 
HETATM    9  C   UNL     1      44.129 -19.257   3.734  1.00  0.00     0.043 A 
HETATM   10  C   UNL     1      43.411 -16.977   3.432  1.00  0.00     0.014 A 
HETATM   11  C   UNL     1      44.030 -19.516   2.361  1.00  0.00     0.030 A 
HETATM   12  N   UNL     1      44.510 -20.085   4.765  1.00  0.00    -0.364 N 
HETATM   13  C   UNL     1      43.614 -18.472   1.531  1.00  0.00     0.002 A 
HETATM   14  C   UNL     1      43.308 -17.219   2.056  1.00  0.00     0.001 A 
HETATM   15  H   UNL     1      44.785 -21.052   4.655  1.00  0.00     0.165 HD
HETATM   16  C   UNL     1      44.466 -19.410   5.952  1.00  0.00     0.102 A 
ENDBRANCH   6   7
ENDBRANCH   2   5
BRANCH   1  17
HETATM   17  C   UNL     1      44.361 -12.959   8.708  1.00  0.00     0.280 C 
BRANCH  17  18
HETATM   18  O   UNL     1      44.220 -11.583   8.362  1.00  0.00    -0.341 OA
BRANCH  18  19
HETATM   19  C   UNL     1      43.608 -10.889   9.375  1.00  0.00     0.081 A 
HETATM   20  C   UNL     1      44.312 -10.596  10.555  1.00  0.00    -0.027 A 
HETATM   21  C   UNL     1      45.738 -11.019  10.755  1.00  0.00     0.051 C 
HETATM   22  C   UNL     1      43.642  -9.918  11.584  1.00  0.00     0.028 A 
HETATM   23  C   UNL     1      42.321  -9.509  11.413  1.00  0.00     0.012 A 
HETATM   24  C   UNL     1      41.646  -9.761  10.218  1.00  0.00     0.028 A 
HETATM   25 BR   UNL     1      41.434  -8.598  12.813  1.00  0.00    -0.051 Br
HETATM   26  C   UNL     1      42.291 -10.442   9.178  1.00  0.00    -0.027 A 
HETATM   27  C   UNL     1      41.563 -10.716   7.891  1.00  0.00     0.051 C 
ENDBRANCH  18  19
ENDBRANCH  17  18
ENDBRANCH   1  17
TORSDOF 5
ENDMDL
MODEL 3
REMARK VINA RESULT:      -8.3      1.183      2.486
REMARK  5 active torsions:
REMARK  status: ('A' for Active; 'I' for Inactive)
REMARK    1  A    between atoms: C_3  and  O_4 
REMARK    2  A    between atoms: O_4  and  C_5 
REMARK    3  A    between atoms: C_5  and  C_6 
REMARK       I    between atoms: C_6  and  N_7 
REMARK    4  A    between atoms: N_7  and  N_8 
REMARK    5  A    between atoms: C_9  and  C_10 
ROOT
HETATM    1  C   UNL     1      44.788 -13.750   7.635  1.00  0.00     0.261 C 
HETATM    2  N   UNL     1      44.008 -14.898   7.491  1.00  0.00    -0.246 N 
HETATM    3  O   UNL     1      45.743 -13.449   6.925  1.00  0.00    -0.269 OA
HETATM    4  H   UNL     1      43.220 -15.068   8.106  1.00  0.00     0.192 HD
ENDROOT
BRANCH   2   5
HETATM    5  N   UNL     1      44.295 -15.803   6.510  1.00  0.00    -0.184 NA
HETATM    6  C   UNL     1      43.483 -16.806   6.418  1.00  0.00     0.152 C 
BRANCH   6   7
HETATM    7  C   UNL     1      43.702 -17.824   5.412  1.00  0.00     0.011 A 
HETATM    8  C   UNL     1      43.645 -17.664   3.990  1.00  0.00     0.004 A 
HETATM    9  C   UNL     1      43.923 -18.908   3.420  1.00  0.00     0.043 A 
HETATM   10  C   UNL     1      43.386 -16.577   3.129  1.00  0.00     0.014 A 
HETATM   11  C   UNL     1      43.956 -19.118   2.036  1.00  0.00     0.030 A 
HETATM   12  N   UNL     1      44.139 -19.790   4.454  1.00  0.00    -0.364 N 
HETATM   13  C   UNL     1      43.698 -18.023   1.207  1.00  0.00     0.002 A 
HETATM   14  C   UNL     1      43.416 -16.770   1.743  1.00  0.00     0.001 A 
HETATM   15  H   UNL     1      44.363 -20.769   4.338  1.00  0.00     0.165 HD
HETATM   16  C   UNL     1      44.010 -19.150   5.654  1.00  0.00     0.102 A 
ENDBRANCH   6   7
ENDBRANCH   2   5
BRANCH   1  17
HETATM   17  C   UNL     1      44.288 -12.883   8.795  1.00  0.00     0.280 C 
BRANCH  17  18
HETATM   18  O   UNL     1      44.231 -11.497   8.468  1.00  0.00    -0.341 OA
BRANCH  18  19
HETATM   19  C   UNL     1      43.586 -10.793   9.453  1.00  0.00     0.081 A 
HETATM   20  C   UNL     1      42.280 -10.321   9.244  1.00  0.00    -0.027 A 
HETATM   21  C   UNL     1      41.545 -10.564   7.958  1.00  0.00     0.051 C 
HETATM   22  C   UNL     1      41.667  -9.574  10.259  1.00  0.00     0.028 A 
HETATM   23  C   UNL     1      42.330  -9.346  11.464  1.00  0.00     0.012 A 
HETATM   24  C   UNL     1      43.608  -9.861  11.681  1.00  0.00     0.028 A 
HETATM   25 BR   UNL     1      41.487  -8.333  12.820  1.00  0.00    -0.051 Br
HETATM   26  C   UNL     1      44.244 -10.606  10.681  1.00  0.00    -0.027 A 
HETATM   27  C   UNL     1      45.623 -11.159  10.914  1.00  0.00     0.051 C 
ENDBRANCH  18  19
ENDBRANCH  17  18
ENDBRANCH   1  17
TORSDOF 5
ENDMDL
MODEL 4
REMARK VINA RESULT:      -8.1      7.395      9.309
REMARK  5 active torsions:
REMARK  status: ('A' for Active; 'I' for Inactive)
REMARK    1  A    between atoms: C_3  and  O_4 
REMARK    2  A    between atoms: O_4  and  C_5 
REMARK    3  A    between atoms: C_5  and  C_6 
REMARK       I    between atoms: C_6  and  N_7 
REMARK    4  A    between atoms: N_7  and  N_8 
REMARK    5  A    between atoms: C_9  and  C_10 
ROOT
HETATM    1  C   UNL     1      40.814 -15.869   1.570  1.00  0.00     0.261 C 
HETATM    2  N   UNL     1      42.135 -15.873   2.019  1.00  0.00    -0.246 N 
HETATM    3  O   UNL     1      39.920 -16.596   1.993  1.00  0.00    -0.269 OA
HETATM    4  H   UNL     1      42.814 -15.227   1.632  1.00  0.00     0.192 HD
ENDROOT
BRANCH   2   5
HETATM    5  N   UNL     1      42.525 -16.745   2.994  1.00  0.00    -0.184 NA
HETATM    6  C   UNL     1      43.448 -17.587   2.658  1.00  0.00     0.152 C 
BRANCH   6   7
HETATM    7  C   UNL     1      43.929 -18.556   3.619  1.00  0.00     0.011 A 
HETATM    8  C   UNL     1      44.150 -19.955   3.404  1.00  0.00     0.004 A 
HETATM    9  C   UNL     1      44.616 -20.493   4.605  1.00  0.00     0.043 A 
HETATM   10  C   UNL     1      44.002 -20.819   2.298  1.00  0.00     0.014 A 
HETATM   11  C   UNL     1      44.941 -21.846   4.756  1.00  0.00     0.030 A 
HETATM   12  N   UNL     1      44.675 -19.462   5.516  1.00  0.00    -0.364 N 
HETATM   13  C   UNL     1      44.786 -22.679   3.645  1.00  0.00     0.002 A 
HETATM   14  C   UNL     1      44.323 -22.175   2.432  1.00  0.00     0.001 A 
HETATM   15  H   UNL     1      44.979 -19.558   6.475  1.00  0.00     0.165 HD
HETATM   16  C   UNL     1      44.266 -18.295   4.934  1.00  0.00     0.102 A 
ENDBRANCH   6   7
ENDBRANCH   2   5
BRANCH   1  17
HETATM   17  C   UNL     1      40.604 -14.817   0.477  1.00  0.00     0.280 C 
BRANCH  17  18
HETATM   18  O   UNL     1      41.767 -14.606  -0.321  1.00  0.00    -0.341 OA
BRANCH  18  19
HETATM   19  C   UNL     1      41.503 -13.722  -1.336  1.00  0.00     0.081 A 
HETATM   20  C   UNL     1      41.694 -12.344  -1.140  1.00  0.00    -0.027 A 
HETATM   21  C   UNL     1      42.188 -11.790   0.165  1.00  0.00     0.051 C 
HETATM   22  C   UNL     1      41.379 -11.468  -2.187  1.00  0.00     0.028 A 
HETATM   23  C   UNL     1      40.928 -11.965  -3.409  1.00  0.00     0.012 A 
HETATM   24  C   UNL     1      40.789 -13.338  -3.612  1.00  0.00     0.028 A 
HETATM   25 BR   UNL     1      40.506 -10.766  -4.809  1.00  0.00    -0.051 Br
HETATM   26  C   UNL     1      41.092 -14.234  -2.579  1.00  0.00    -0.027 A 
HETATM   27  C   UNL     1      40.940 -15.714  -2.796  1.00  0.00     0.051 C 
ENDBRANCH  18  19
ENDBRANCH  17  18
ENDBRANCH   1  17
TORSDOF 5
ENDMDL
MODEL 5
REMARK VINA RESULT:      -8.1      6.730      8.667
REMARK  5 active torsions:
REMARK  status: ('A' for Active; 'I' for Inactive)
REMARK    1  A    between atoms: C_3  and  O_4 
REMARK    2  A    between atoms: O_4  and  C_5 
REMARK    3  A    between atoms: C_5  and  C_6 
REMARK       I    between atoms: C_6  and  N_7 
REMARK    4  A    between atoms: N_7  and  N_8 
REMARK    5  A    between atoms: C_9  and  C_10 
ROOT
HETATM    1  C   UNL     1      40.529 -14.817   3.272  1.00  0.00     0.261 C 
HETATM    2  N   UNL     1      40.380 -16.184   3.034  1.00  0.00    -0.246 N 
HETATM    3  O   UNL     1      41.367 -14.315   4.015  1.00  0.00    -0.269 OA
HETATM    4  H   UNL     1      39.674 -16.522   2.389  1.00  0.00     0.192 HD
ENDROOT
BRANCH   2   5
HETATM    5  N   UNL     1      41.195 -17.081   3.662  1.00  0.00    -0.184 NA
HETATM    6  C   UNL     1      42.279 -17.393   3.028  1.00  0.00     0.152 C 
BRANCH   6   7
HETATM    7  C   UNL     1      43.209 -18.339   3.607  1.00  0.00     0.011 A 
HETATM    8  C   UNL     1      43.563 -19.630   3.097  1.00  0.00     0.004 A 
HETATM    9  C   UNL     1      44.493 -20.186   3.978  1.00  0.00     0.043 A 
HETATM   10  C   UNL     1      43.184 -20.381   1.964  1.00  0.00     0.014 A 
HETATM   11  C   UNL     1      45.061 -21.451   3.785  1.00  0.00     0.030 A 
HETATM   12  N   UNL     1      44.695 -19.270   4.986  1.00  0.00    -0.364 N 
HETATM   13  C   UNL     1      44.669 -22.172   2.654  1.00  0.00     0.002 A 
HETATM   14  C   UNL     1      43.743 -21.648   1.755  1.00  0.00     0.001 A 
HETATM   15  H   UNL     1      45.321 -19.404   5.768  1.00  0.00     0.165 HD
HETATM   16  C   UNL     1      43.931 -18.157   4.772  1.00  0.00     0.102 A 
ENDBRANCH   6   7
ENDBRANCH   2   5
BRANCH   1  17
HETATM   17  C   UNL     1      39.513 -14.001   2.467  1.00  0.00     0.280 C 
BRANCH  17  18
HETATM   18  O   UNL     1      38.968 -14.724   1.366  1.00  0.00    -0.341 OA
BRANCH  18  19
HETATM   19  C   UNL     1      39.194 -14.056   0.189  1.00  0.00     0.081 A 
HETATM   20  C   UNL     1      40.286 -14.405  -0.623  1.00  0.00    -0.027 A 
HETATM   21  C   UNL     1      41.235 -15.506  -0.246  1.00  0.00     0.051 C 
HETATM   22  C   UNL     1      40.507 -13.676  -1.799  1.00  0.00     0.028 A 
HETATM   23  C   UNL     1      39.631 -12.657  -2.170  1.00  0.00     0.012 A 
HETATM   24  C   UNL     1      38.521 -12.351  -1.383  1.00  0.00     0.028 A 
HETATM   25 BR   UNL     1      39.947 -11.683  -3.760  1.00  0.00    -0.051 Br
HETATM   26  C   UNL     1      38.282 -13.061  -0.200  1.00  0.00    -0.027 A 
HETATM   27  C   UNL     1      37.087 -12.729   0.650  1.00  0.00     0.051 C 
ENDBRANCH  18  19
ENDBRANCH  17  18
ENDBRANCH   1  17
TORSDOF 5
ENDMDL
MODEL 6
REMARK VINA RESULT:      -8.0      6.308      9.530
REMARK  5 active torsions:
REMARK  status: ('A' for Active; 'I' for Inactive)
REMARK    1  A    between atoms: C_3  and  O_4 
REMARK    2  A    between atoms: O_4  and  C_5 
REMARK    3  A    between atoms: C_5  and  C_6 
REMARK       I    between atoms: C_6  and  N_7 
REMARK    4  A    between atoms: N_7  and  N_8 
REMARK    5  A    between atoms: C_9  and  C_10 
ROOT
HETATM    1  C   UNL     1      40.827 -15.765   2.685  1.00  0.00     0.261 C 
HETATM    2  N   UNL     1      41.127 -16.061   1.355  1.00  0.00    -0.246 N 
HETATM    3  O   UNL     1      40.184 -14.792   3.066  1.00  0.00    -0.269 OA
HETATM    4  H   UNL     1      41.648 -16.897   1.116  1.00  0.00     0.192 HD
ENDROOT
BRANCH   2   5
HETATM    5  N   UNL     1      40.710 -15.227   0.357  1.00  0.00    -0.184 NA
HETATM    6  C   UNL     1      41.239 -15.436  -0.805  1.00  0.00     0.152 C 
BRANCH   6   7
HETATM    7  C   UNL     1      40.866 -14.605  -1.930  1.00  0.00     0.011 A 
HETATM    8  C   UNL     1      41.445 -13.352  -2.311  1.00  0.00     0.004 A 
HETATM    9  C   UNL     1      40.774 -12.913  -3.455  1.00  0.00     0.043 A 
HETATM   10  C   UNL     1      42.482 -12.546  -1.795  1.00  0.00     0.014 A 
HETATM   11  C   UNL     1      41.087 -11.714  -4.106  1.00  0.00     0.030 A 
HETATM   12  N   UNL     1      39.823 -13.862  -3.757  1.00  0.00    -0.364 N 
HETATM   13  C   UNL     1      42.119 -10.936  -3.574  1.00  0.00     0.002 A 
HETATM   14  C   UNL     1      42.808 -11.343  -2.434  1.00  0.00     0.001 A 
HETATM   15  H   UNL     1      39.186 -13.809  -4.539  1.00  0.00     0.165 HD
HETATM   16  C   UNL     1      39.871 -14.882  -2.849  1.00  0.00     0.102 A 
ENDBRANCH   6   7
ENDBRANCH   2   5
BRANCH   1  17
HETATM   17  C   UNL     1      41.392 -16.830   3.629  1.00  0.00     0.280 C 
BRANCH  17  18
HETATM   18  O   UNL     1      42.804 -16.730   3.797  1.00  0.00    -0.341 OA
BRANCH  18  19
HETATM   19  C   UNL     1      43.348 -17.961   4.067  1.00  0.00     0.081 A 
HETATM   20  C   UNL     1      43.846 -18.757   3.022  1.00  0.00    -0.027 A 
HETATM   21  C   UNL     1      43.807 -18.305   1.591  1.00  0.00     0.051 C 
HETATM   22  C   UNL     1      44.360 -20.024   3.332  1.00  0.00     0.028 A 
HETATM   23  C   UNL     1      44.413 -20.458   4.656  1.00  0.00     0.012 A 
HETATM   24  C   UNL     1      43.962 -19.639   5.691  1.00  0.00     0.028 A 
HETATM   25 BR   UNL     1      45.108 -22.171   5.053  1.00  0.00    -0.051 Br
HETATM   26  C   UNL     1      43.439 -18.372   5.408  1.00  0.00    -0.027 A 
HETATM   27  C   UNL     1      42.951 -17.491   6.524  1.00  0.00     0.051 C 
ENDBRANCH  18  19
ENDBRANCH  17  18
ENDBRANCH   1  17
TORSDOF 5
ENDMDL
MODEL 7
REMARK VINA RESULT:      -7.9      6.300      9.378
REMARK  5 active torsions:
REMARK  status: ('A' for Active; 'I' for Inactive)
REMARK    1  A    between atoms: C_3  and  O_4 
REMARK    2  A    between atoms: O_4  and  C_5 
REMARK    3  A    between atoms: C_5  and  C_6 
REMARK       I    between atoms: C_6  and  N_7 
REMARK    4  A    between atoms: N_7  and  N_8 
REMARK    5  A    between atoms: C_9  and  C_10 
ROOT
HETATM    1  C   UNL     1      41.469 -15.569   2.540  1.00  0.00     0.261 C 
HETATM    2  N   UNL     1      40.943 -16.126   1.374  1.00  0.00    -0.246 N 
HETATM    3  O   UNL     1      41.661 -14.371   2.729  1.00  0.00    -0.269 OA
HETATM    4  H   UNL     1      40.796 -17.126   1.301  1.00  0.00     0.192 HD
ENDROOT
BRANCH   2   5
HETATM    5  N   UNL     1      40.612 -15.324   0.320  1.00  0.00    -0.184 NA
HETATM    6  C   UNL     1      41.308 -15.497  -0.757  1.00  0.00     0.152 C 
BRANCH   6   7
HETATM    7  C   UNL     1      41.038 -14.694  -1.930  1.00  0.00     0.011 A 
HETATM    8  C   UNL     1      41.591 -13.413  -2.250  1.00  0.00     0.004 A 
HETATM    9  C   UNL     1      41.049 -13.019  -3.476  1.00  0.00     0.043 A 
HETATM   10  C   UNL     1      42.507 -12.547  -1.616  1.00  0.00     0.014 A 
HETATM   11  C   UNL     1      41.377 -11.808  -4.097  1.00  0.00     0.030 A 
HETATM   12  N   UNL     1      40.198 -14.021  -3.884  1.00  0.00    -0.364 N 
HETATM   13  C   UNL     1      42.288 -10.971  -3.447  1.00  0.00     0.002 A 
HETATM   14  C   UNL     1      42.846 -11.332  -2.224  1.00  0.00     0.001 A 
HETATM   15  H   UNL     1      39.664 -14.008  -4.742  1.00  0.00     0.165 HD
HETATM   16  C   UNL     1      40.185 -15.032  -2.965  1.00  0.00     0.102 A 
ENDBRANCH   6   7
ENDBRANCH   2   5
BRANCH   1  17
HETATM   17  C   UNL     1      41.768 -16.649   3.584  1.00  0.00     0.280 C 
BRANCH  17  18
HETATM   18  O   UNL     1      43.130 -16.653   4.004  1.00  0.00    -0.341 OA
BRANCH  18  19
HETATM   19  C   UNL     1      43.551 -17.932   4.271  1.00  0.00     0.081 A 
HETATM   20  C   UNL     1      43.505 -18.431   5.583  1.00  0.00    -0.027 A 
HETATM   21  C   UNL     1      43.001 -17.604   6.730  1.00  0.00     0.051 C 
HETATM   22  C   UNL     1      43.978 -19.729   5.823  1.00  0.00     0.028 A 
HETATM   23  C   UNL     1      44.441 -20.515   4.769  1.00  0.00     0.012 A 
HETATM   24  C   UNL     1      44.436 -20.028   3.462  1.00  0.00     0.028 A 
HETATM   25 BR   UNL     1      45.078 -22.262   5.114  1.00  0.00    -0.051 Br
HETATM   26  C   UNL     1      43.974 -18.733   3.197  1.00  0.00    -0.027 A 
HETATM   27  C   UNL     1      43.971 -18.207   1.788  1.00  0.00     0.051 C 
ENDBRANCH  18  19
ENDBRANCH  17  18
ENDBRANCH   1  17
TORSDOF 5
ENDMDL
MODEL 8
REMARK VINA RESULT:      -7.8      4.091      9.704
REMARK  5 active torsions:
REMARK  status: ('A' for Active; 'I' for Inactive)
REMARK    1  A    between atoms: C_3  and  O_4 
REMARK    2  A    between atoms: O_4  and  C_5 
REMARK    3  A    between atoms: C_5  and  C_6 
REMARK       I    between atoms: C_6  and  N_7 
REMARK    4  A    between atoms: N_7  and  N_8 
REMARK    5  A    between atoms: C_9  and  C_10 
ROOT
HETATM    1  C   UNL     1      41.298 -14.975   5.183  1.00  0.00     0.261 C 
HETATM    2  N   UNL     1      41.570 -13.609   5.089  1.00  0.00    -0.246 N 
HETATM    3  O   UNL     1      40.819 -15.536   6.164  1.00  0.00    -0.269 OA
HETATM    4  H   UNL     1      41.949 -13.215   4.236  1.00  0.00     0.192 HD
ENDROOT
BRANCH   2   5
HETATM    5  N   UNL     1      41.317 -12.786   6.149  1.00  0.00    -0.184 NA
HETATM    6  C   UNL     1      42.331 -12.118   6.594  1.00  0.00     0.152 C 
BRANCH   6   7
HETATM    7  C   UNL     1      42.169 -11.219   7.717  1.00  0.00     0.011 A 
HETATM    8  C   UNL     1      43.013 -11.109   8.869  1.00  0.00     0.004 A 
HETATM    9  C   UNL     1      42.474 -10.113   9.687  1.00  0.00     0.043 A 
HETATM   10  C   UNL     1      44.189 -11.760   9.296  1.00  0.00     0.014 A 
HETATM   11  C   UNL     1      43.051  -9.737  10.906  1.00  0.00     0.030 A 
HETATM   12  N   UNL     1      41.346  -9.638   9.058  1.00  0.00    -0.364 N 
HETATM   13  C   UNL     1      44.217 -10.398  11.303  1.00  0.00     0.002 A 
HETATM   14  C   UNL     1      44.780 -11.396  10.512  1.00  0.00     0.001 A 
HETATM   15  H   UNL     1      40.749  -8.907   9.421  1.00  0.00     0.165 HD
HETATM   16  C   UNL     1      41.155 -10.293   7.874  1.00  0.00     0.102 A 
ENDBRANCH   6   7
ENDBRANCH   2   5
BRANCH   1  17
HETATM   17  C   UNL     1      41.660 -15.701   3.884  1.00  0.00     0.280 C 
BRANCH  17  18
HETATM   18  O   UNL     1      43.066 -15.864   3.712  1.00  0.00    -0.341 OA
BRANCH  18  19
HETATM   19  C   UNL     1      43.365 -17.156   3.363  1.00  0.00     0.081 A 
HETATM   20  C   UNL     1      43.253 -17.570   2.025  1.00  0.00    -0.027 A 
HETATM   21  C   UNL     1      42.812 -16.633   0.939  1.00  0.00     0.051 C 
HETATM   22  C   UNL     1      43.530 -18.908   1.712  1.00  0.00     0.028 A 
HETATM   23  C   UNL     1      43.950 -19.791   2.706  1.00  0.00     0.012 A 
HETATM   24  C   UNL     1      44.107 -19.358   4.023  1.00  0.00     0.028 A 
HETATM   25 BR   UNL     1      44.317 -21.592   2.264  1.00  0.00    -0.051 Br
HETATM   26  C   UNL     1      43.830 -18.028   4.362  1.00  0.00    -0.027 A 
HETATM   27  C   UNL     1      43.996 -17.562   5.782  1.00  0.00     0.051 C 
ENDBRANCH  18  19
ENDBRANCH  17  18
ENDBRANCH   1  17
TORSDOF 5
ENDMDL
MODEL 9
REMARK VINA RESULT:      -7.6      4.207      9.968
REMARK  5 active torsions:
REMARK  status: ('A' for Active; 'I' for Inactive)
REMARK    1  A    between atoms: C_3  and  O_4 
REMARK    2  A    between atoms: O_4  and  C_5 
REMARK    3  A    between atoms: C_5  and  C_6 
REMARK       I    between atoms: C_6  and  N_7 
REMARK    4  A    between atoms: N_7  and  N_8 
REMARK    5  A    between atoms: C_9  and  C_10 
ROOT
HETATM    1  C   UNL     1      40.153 -12.654   6.236  1.00  0.00     0.261 C 
HETATM    2  N   UNL     1      41.184 -11.973   6.884  1.00  0.00    -0.246 N 
HETATM    3  O   UNL     1      38.954 -12.454   6.409  1.00  0.00    -0.269 OA
HETATM    4  H   UNL     1      42.153 -12.182   6.673  1.00  0.00     0.192 HD
ENDROOT
BRANCH   2   5
HETATM    5  N   UNL     1      40.895 -11.006   7.804  1.00  0.00    -0.184 NA
HETATM    6  C   UNL     1      41.894 -10.594   8.516  1.00  0.00     0.152 C 
BRANCH   6   7
HETATM    7  C   UNL     1      41.692  -9.574   9.522  1.00  0.00     0.011 A 
HETATM    8  C   UNL     1      42.278  -9.515  10.828  1.00  0.00     0.004 A 
HETATM    9  C   UNL     1      41.803  -8.357  11.447  1.00  0.00     0.043 A 
HETATM   10  C   UNL     1      43.174 -10.336  11.545  1.00  0.00     0.014 A 
HETATM   11  C   UNL     1      42.177  -7.980  12.742  1.00  0.00     0.030 A 
HETATM   12  N   UNL     1      40.958  -7.737  10.554  1.00  0.00    -0.364 N 
HETATM   13  C   UNL     1      43.066  -8.811  13.429  1.00  0.00     0.002 A 
HETATM   14  C   UNL     1      43.559  -9.973  12.841  1.00  0.00     0.001 A 
HETATM   15  H   UNL     1      40.467  -6.872  10.732  1.00  0.00     0.165 HD
HETATM   16  C   UNL     1      40.887  -8.457   9.395  1.00  0.00     0.102 A 
ENDBRANCH   6   7
ENDBRANCH   2   5
BRANCH   1  17
HETATM   17  C   UNL     1      40.706 -13.690   5.253  1.00  0.00     0.280 C 
BRANCH  17  18
HETATM   18  O   UNL     1      41.795 -14.438   5.789  1.00  0.00    -0.341 OA
BRANCH  18  19
HETATM   19  C   UNL     1      42.127 -15.475   4.954  1.00  0.00     0.081 A 
HETATM   20  C   UNL     1      43.031 -15.270   3.899  1.00  0.00    -0.027 A 
HETATM   21  C   UNL     1      43.663 -13.933   3.643  1.00  0.00     0.051 C 
HETATM   22  C   UNL     1      43.317 -16.344   3.044  1.00  0.00     0.028 A 
HETATM   23  C   UNL     1      42.747 -17.595   3.271  1.00  0.00     0.012 A 
HETATM   24  C   UNL     1      41.889 -17.802   4.351  1.00  0.00     0.028 A 
HETATM   25 BR   UNL     1      43.144 -19.031   2.105  1.00  0.00    -0.051 Br
HETATM   26  C   UNL     1      41.583 -16.744   5.216  1.00  0.00    -0.027 A 
HETATM   27  C   UNL     1      40.656 -16.966   6.380  1.00  0.00     0.051 C 
ENDBRANCH  18  19
ENDBRANCH  17  18
ENDBRANCH   1  17
TORSDOF 5
ENDMDL
MODEL 10
REMARK VINA RESULT:      -7.6      3.840      9.644
REMARK  5 active torsions:
REMARK  status: ('A' for Active; 'I' for Inactive)
REMARK    1  A    between atoms: C_3  and  O_4 
REMARK    2  A    between atoms: O_4  and  C_5 
REMARK    3  A    between atoms: C_5  and  C_6 
REMARK       I    between atoms: C_6  and  N_7 
REMARK    4  A    between atoms: N_7  and  N_8 
REMARK    5  A    between atoms: C_9  and  C_10 
ROOT
HETATM    1  C   UNL     1      43.623 -14.114   5.547  1.00  0.00     0.261 C 
HETATM    2  N   UNL     1      44.770 -14.320   6.313  1.00  0.00    -0.246 N 
HETATM    3  O   UNL     1      42.863 -13.155   5.653  1.00  0.00    -0.269 OA
HETATM    4  H   UNL     1      45.360 -15.129   6.153  1.00  0.00     0.192 HD
ENDROOT
BRANCH   2   5
HETATM    5  N   UNL     1      45.116 -13.424   7.283  1.00  0.00    -0.184 NA
HETATM    6  C   UNL     1      44.184 -13.124   8.129  1.00  0.00     0.152 C 
BRANCH   6   7
HETATM    7  C   UNL     1      44.448 -12.181   9.194  1.00  0.00     0.011 A 
HETATM    8  C   UNL     1      43.530 -11.247   9.773  1.00  0.00     0.004 A 
HETATM    9  C   UNL     1      44.218 -10.547  10.766  1.00  0.00     0.043 A 
HETATM   10  C   UNL     1      42.173 -10.930   9.551  1.00  0.00     0.014 A 
HETATM   11  C   UNL     1      43.620  -9.549  11.545  1.00  0.00     0.030 A 
HETATM   12  N   UNL     1      45.505 -11.034  10.789  1.00  0.00    -0.364 N 
HETATM   13  C   UNL     1      42.275  -9.256  11.304  1.00  0.00     0.002 A 
HETATM   14  C   UNL     1      41.559  -9.935  10.322  1.00  0.00     0.001 A 
HETATM   15  H   UNL     1      46.232 -10.711  11.413  1.00  0.00     0.165 HD
HETATM   16  C   UNL     1      45.653 -12.017   9.851  1.00  0.00     0.102 A 
ENDBRANCH   6   7
ENDBRANCH   2   5
BRANCH   1  17
HETATM   17  C   UNL     1      43.430 -15.240   4.526  1.00  0.00     0.280 C 
BRANCH  17  18
HETATM   18  O   UNL     1      42.738 -16.364   5.065  1.00  0.00    -0.341 OA
BRANCH  18  19
HETATM   19  C   UNL     1      43.119 -17.517   4.426  1.00  0.00     0.081 A 
HETATM   20  C   UNL     1      44.123 -18.331   4.976  1.00  0.00    -0.027 A 
HETATM   21  C   UNL     1      44.810 -17.982   6.264  1.00  0.00     0.051 C 
HETATM   22  C   UNL     1      44.512 -19.482   4.276  1.00  0.00     0.028 A 
HETATM   23  C   UNL     1      43.878 -19.827   3.083  1.00  0.00     0.012 A 
HETATM   24  C   UNL     1      42.847 -19.040   2.571  1.00  0.00     0.028 A 
HETATM   25 BR   UNL     1      44.418 -21.382   2.153  1.00  0.00    -0.051 Br
HETATM   26  C   UNL     1      42.445 -17.882   3.248  1.00  0.00    -0.027 A 
HETATM   27  C   UNL     1      41.336 -17.032   2.694  1.00  0.00     0.051 C 
ENDBRANCH  18  19
ENDBRANCH  17  18
ENDBRANCH   1  17
TORSDOF 5
ENDMDL
