MODEL 1
REMARK VINA RESULT:      -8.2      0.000      0.000
REMARK  4 active torsions:
REMARK  status: ('A' for Active; 'I' for Inactive)
REMARK    1  A    between atoms: C_2  and  C_3 
REMARK    2  A    between atoms: C_7  and  C_8 
REMARK    3  A    between atoms: C_8  and  N_9 
REMARK       I    between atoms: N_9  and  C_10 
REMARK       I    between atoms: C_10  and  N_11 
REMARK    4  A    between atoms: N_11  and  C_12 
ROOT
HETATM    1  N   UNL     1      42.631 -16.094   3.657  1.00  0.00    -0.333 N 
HETATM    2  C   UNL     1      42.590 -17.482   3.716  1.00  0.00     0.322 C 
HETATM    3  N   UNL     1      43.785 -18.095   3.426  1.00  0.00    -0.307 N 
HETATM    4  O   UNL     1      41.565 -18.075   4.050  1.00  0.00    -0.247 OA
HETATM    5  C   UNL     1      43.571 -15.323   2.850  1.00  0.00     0.155 C 
HETATM    6  H   UNL     1      44.606 -17.515   3.544  1.00  0.00     0.170 HD
ENDROOT
BRANCH   1   7
HETATM    7  C   UNL     1      41.576 -15.347   4.328  1.00  0.00     0.185 C 
BRANCH   7   8
HETATM    8  C   UNL     1      40.598 -14.818   3.350  1.00  0.00     0.047 A 
HETATM    9  N   UNL     1      39.692 -15.629   2.727  1.00  0.00    -0.280 N 
HETATM   10  N   UNL     1      38.849 -14.967   1.917  1.00  0.00    -0.178 NA
HETATM   11  H   UNL     1      39.602 -16.639   2.822  1.00  0.00     0.189 HD
HETATM   12  C   UNL     1      39.218 -13.683   2.024  1.00  0.00     0.064 A 
HETATM   13  C   UNL     1      40.318 -13.544   2.911  1.00  0.00     0.058 A 
BRANCH  12  14
HETATM   14  C   UNL     1      38.463 -12.578   1.302  1.00  0.00    -0.005 C 
HETATM   15  C   UNL     1      39.365 -11.976   0.205  1.00  0.00     0.021 C 
HETATM   16  C   UNL     1      38.041 -11.441   2.258  1.00  0.00     0.021 C 
HETATM   17  C   UNL     1      37.184 -13.133   0.644  1.00  0.00     0.021 C 
ENDBRANCH  12  14
ENDBRANCH   7   8
ENDBRANCH   1   7
BRANCH   3  18
HETATM   18  C   UNL     1      44.044 -19.485   3.350  1.00  0.00     0.064 A 
HETATM   19  C   UNL     1      44.538 -20.142   4.492  1.00  0.00     0.099 A 
HETATM   20 CL   UNL     1      44.808 -19.270   5.965  1.00  0.00    -0.079 Cl
HETATM   21  C   UNL     1      44.801 -21.514   4.457  1.00  0.00     0.143 A 
HETATM   22  F   UNL     1      45.257 -22.150   5.547  1.00  0.00    -0.204 F 
HETATM   23  C   UNL     1      44.597 -22.248   3.297  1.00  0.00     0.086 A 
HETATM   24  C   UNL     1      44.127 -21.595   2.168  1.00  0.00     0.121 A 
HETATM   25  F   UNL     1      43.939 -22.292   1.040  1.00  0.00    -0.206 F 
HETATM   26  C   UNL     1      43.850 -20.228   2.180  1.00  0.00     0.073 A 
ENDBRANCH   3  18
TORSDOF 4
ENDMDL
MODEL 2
REMARK VINA RESULT:      -8.1      2.583      2.940
REMARK  4 active torsions:
REMARK  status: ('A' for Active; 'I' for Inactive)
REMARK    1  A    between atoms: C_2  and  C_3 
REMARK    2  A    between atoms: C_7  and  C_8 
REMARK    3  A    between atoms: C_8  and  N_9 
REMARK       I    between atoms: N_9  and  C_10 
REMARK       I    between atoms: C_10  and  N_11 
REMARK    4  A    between atoms: N_11  and  C_12 
ROOT
HETATM    1  N   UNL     1      41.981 -15.806   2.398  1.00  0.00    -0.333 N 
HETATM    2  C   UNL     1      42.916 -16.830   2.306  1.00  0.00     0.322 C 
HETATM    3  N   UNL     1      42.464 -18.048   2.754  1.00  0.00    -0.307 N 
HETATM    4  O   UNL     1      44.028 -16.637   1.816  1.00  0.00    -0.247 OA
HETATM    5  C   UNL     1      40.874 -15.772   3.347  1.00  0.00     0.155 C 
HETATM    6  H   UNL     1      41.457 -18.155   2.767  1.00  0.00     0.170 HD
ENDROOT
BRANCH   1   7
HETATM    7  C   UNL     1      42.195 -14.609   1.596  1.00  0.00     0.185 C 
BRANCH   7   8
HETATM    8  C   UNL     1      41.579 -14.753   0.257  1.00  0.00     0.047 A 
HETATM    9  N   UNL     1      41.803 -15.852  -0.525  1.00  0.00    -0.280 N 
HETATM   10  N   UNL     1      41.118 -15.836  -1.679  1.00  0.00    -0.178 NA
HETATM   11  H   UNL     1      42.410 -16.643  -0.315  1.00  0.00     0.189 HD
HETATM   12  C   UNL     1      40.421 -14.691  -1.642  1.00  0.00     0.064 A 
HETATM   13  C   UNL     1      40.685 -13.977  -0.444  1.00  0.00     0.058 A 
BRANCH  12  14
HETATM   14  C   UNL     1      39.452 -14.315  -2.752  1.00  0.00    -0.005 C 
HETATM   15  C   UNL     1      39.945 -13.029  -3.446  1.00  0.00     0.021 C 
HETATM   16  C   UNL     1      38.026 -14.061  -2.218  1.00  0.00     0.021 C 
HETATM   17  C   UNL     1      39.363 -15.443  -3.801  1.00  0.00     0.021 C 
ENDBRANCH  12  14
ENDBRANCH   7   8
ENDBRANCH   1   7
BRANCH   3  18
HETATM   18  C   UNL     1      43.192 -19.259   2.841  1.00  0.00     0.064 A 
HETATM   19  C   UNL     1      43.956 -19.505   3.997  1.00  0.00     0.099 A 
HETATM   20 CL   UNL     1      43.991 -18.356   5.294  1.00  0.00    -0.079 Cl
HETATM   21  C   UNL     1      44.685 -20.691   4.121  1.00  0.00     0.143 A 
HETATM   22  F   UNL     1      45.403 -20.939   5.227  1.00  0.00    -0.204 F 
HETATM   23  C   UNL     1      44.683 -21.637   3.106  1.00  0.00     0.086 A 
HETATM   24  C   UNL     1      43.943 -21.384   1.960  1.00  0.00     0.121 A 
HETATM   25  F   UNL     1      43.945 -22.285   0.969  1.00  0.00    -0.206 F 
HETATM   26  C   UNL     1      43.203 -20.212   1.816  1.00  0.00     0.073 A 
ENDBRANCH   3  18
TORSDOF 4
ENDMDL
MODEL 3
REMARK VINA RESULT:      -7.8      1.125      2.192
REMARK  4 active torsions:
REMARK  status: ('A' for Active; 'I' for Inactive)
REMARK    1  A    between atoms: C_2  and  C_3 
REMARK    2  A    between atoms: C_7  and  C_8 
REMARK    3  A    between atoms: C_8  and  N_9 
REMARK       I    between atoms: N_9  and  C_10 
REMARK       I    between atoms: C_10  and  N_11 
REMARK    4  A    between atoms: N_11  and  C_12 
ROOT
HETATM    1  N   UNL     1      42.380 -15.865   4.369  1.00  0.00    -0.333 N 
HETATM    2  C   UNL     1      42.407 -17.252   4.282  1.00  0.00     0.322 C 
HETATM    3  N   UNL     1      43.671 -17.788   4.217  1.00  0.00    -0.307 N 
HETATM    4  O   UNL     1      41.370 -17.912   4.312  1.00  0.00    -0.247 OA
HETATM    5  C   UNL     1      43.431 -14.980   3.879  1.00  0.00     0.155 C 
HETATM    6  H   UNL     1      44.409 -17.196   4.577  1.00  0.00     0.170 HD
ENDROOT
BRANCH   1   7
HETATM    7  C   UNL     1      41.159 -15.232   4.848  1.00  0.00     0.185 C 
BRANCH   7   8
HETATM    8  C   UNL     1      40.353 -14.716   3.718  1.00  0.00     0.047 A 
HETATM    9  N   UNL     1      39.662 -15.550   2.885  1.00  0.00    -0.280 N 
HETATM   10  N   UNL     1      38.943 -14.902   1.954  1.00  0.00    -0.178 NA
HETATM   11  H   UNL     1      39.643 -16.568   2.911  1.00  0.00     0.189 HD
HETATM   12  C   UNL     1      39.170 -13.603   2.196  1.00  0.00     0.064 A 
HETATM   13  C   UNL     1      40.055 -13.440   3.294  1.00  0.00     0.058 A 
BRANCH  12  14
HETATM   14  C   UNL     1      38.481 -12.513   1.390  1.00  0.00    -0.005 C 
HETATM   15  C   UNL     1      38.068 -11.365   2.332  1.00  0.00     0.021 C 
HETATM   16  C   UNL     1      37.215 -13.032   0.674  1.00  0.00     0.021 C 
HETATM   17  C   UNL     1      39.430 -11.953   0.311  1.00  0.00     0.021 C 
ENDBRANCH  12  14
ENDBRANCH   7   8
ENDBRANCH   1   7
BRANCH   3  18
HETATM   18  C   UNL     1      44.021 -19.152   4.068  1.00  0.00     0.064 A 
HETATM   19  C   UNL     1      44.003 -19.715   2.778  1.00  0.00     0.099 A 
HETATM   20 CL   UNL     1      43.577 -18.754   1.401  1.00  0.00    -0.079 Cl
HETATM   21  C   UNL     1      44.347 -21.057   2.590  1.00  0.00     0.143 A 
HETATM   22  F   UNL     1      44.348 -21.596   1.362  1.00  0.00    -0.204 F 
HETATM   23  C   UNL     1      44.696 -21.859   3.667  1.00  0.00     0.086 A 
HETATM   24  C   UNL     1      44.696 -21.307   4.939  1.00  0.00     0.121 A 
HETATM   25  F   UNL     1      45.018 -22.077   5.986  1.00  0.00    -0.206 F 
HETATM   26  C   UNL     1      44.363 -19.970   5.151  1.00  0.00     0.073 A 
ENDBRANCH   3  18
TORSDOF 4
ENDMDL
MODEL 4
REMARK VINA RESULT:      -7.4      1.930      2.725
REMARK  4 active torsions:
REMARK  status: ('A' for Active; 'I' for Inactive)
REMARK    1  A    between atoms: C_2  and  C_3 
REMARK    2  A    between atoms: C_7  and  C_8 
REMARK    3  A    between atoms: C_8  and  N_9 
REMARK       I    between atoms: N_9  and  C_10 
REMARK       I    between atoms: C_10  and  N_11 
REMARK    4  A    between atoms: N_11  and  C_12 
ROOT
HETATM    1  N   UNL     1      42.426 -16.123   2.553  1.00  0.00    -0.333 N 
HETATM    2  C   UNL     1      42.472 -17.504   2.403  1.00  0.00     0.322 C 
HETATM    3  N   UNL     1      43.518 -18.108   3.058  1.00  0.00    -0.307 N 
HETATM    4  O   UNL     1      41.606 -18.106   1.769  1.00  0.00    -0.247 OA
HETATM    5  C   UNL     1      43.580 -15.278   2.840  1.00  0.00     0.155 C 
HETATM    6  H   UNL     1      43.911 -17.576   3.824  1.00  0.00     0.170 HD
ENDROOT
BRANCH   1   7
HETATM    7  C   UNL     1      41.170 -15.444   2.263  1.00  0.00     0.185 C 
BRANCH   7   8
HETATM    8  C   UNL     1      40.704 -14.672   3.437  1.00  0.00     0.047 A 
HETATM    9  N   UNL     1      40.205 -15.285   4.552  1.00  0.00    -0.280 N 
HETATM   10  N   UNL     1      39.886 -14.429   5.536  1.00  0.00    -0.178 NA
HETATM   11  H   UNL     1      40.067 -16.284   4.694  1.00  0.00     0.189 HD
HETATM   12  C   UNL     1      40.194 -13.220   5.045  1.00  0.00     0.064 A 
HETATM   13  C   UNL     1      40.707 -13.326   3.725  1.00  0.00     0.058 A 
BRANCH  12  14
HETATM   14  C   UNL     1      40.039 -11.960   5.883  1.00  0.00    -0.005 C 
HETATM   15  C   UNL     1      39.291 -12.302   7.187  1.00  0.00     0.021 C 
HETATM   16  C   UNL     1      39.244 -10.864   5.141  1.00  0.00     0.021 C 
HETATM   17  C   UNL     1      41.419 -11.373   6.241  1.00  0.00     0.021 C 
ENDBRANCH  12  14
ENDBRANCH   7   8
ENDBRANCH   1   7
BRANCH   3  18
HETATM   18  C   UNL     1      43.863 -19.482   3.050  1.00  0.00     0.064 A 
HETATM   19  C   UNL     1      44.439 -20.039   4.207  1.00  0.00     0.099 A 
HETATM   20 CL   UNL     1      44.707 -19.068   5.616  1.00  0.00    -0.079 Cl
HETATM   21  C   UNL     1      44.788 -21.392   4.238  1.00  0.00     0.143 A 
HETATM   22  F   UNL     1      45.323 -21.934   5.343  1.00  0.00    -0.204 F 
HETATM   23  C   UNL     1      44.588 -22.204   3.131  1.00  0.00     0.086 A 
HETATM   24  C   UNL     1      44.037 -21.649   1.987  1.00  0.00     0.121 A 
HETATM   25  F   UNL     1      43.852 -22.421   0.909  1.00  0.00    -0.206 F 
HETATM   26  C   UNL     1      43.675 -20.303   1.933  1.00  0.00     0.073 A 
ENDBRANCH   3  18
TORSDOF 4
ENDMDL
MODEL 5
REMARK VINA RESULT:      -7.4      2.845      3.739
REMARK  4 active torsions:
REMARK  status: ('A' for Active; 'I' for Inactive)
REMARK    1  A    between atoms: C_2  and  C_3 
REMARK    2  A    between atoms: C_7  and  C_8 
REMARK    3  A    between atoms: C_8  and  N_9 
REMARK       I    between atoms: N_9  and  C_10 
REMARK       I    between atoms: C_10  and  N_11 
REMARK    4  A    between atoms: N_11  and  C_12 
ROOT
HETATM    1  N   UNL     1      41.549 -15.123   2.684  1.00  0.00    -0.333 N 
HETATM    2  C   UNL     1      42.574 -15.962   3.105  1.00  0.00     0.322 C 
HETATM    3  N   UNL     1      42.143 -17.158   3.628  1.00  0.00    -0.307 N 
HETATM    4  O   UNL     1      43.755 -15.648   2.962  1.00  0.00    -0.247 OA
HETATM    5  C   UNL     1      40.188 -15.144   3.206  1.00  0.00     0.155 C 
HETATM    6  H   UNL     1      41.215 -17.443   3.344  1.00  0.00     0.170 HD
ENDROOT
BRANCH   1   7
HETATM    7  C   UNL     1      41.882 -14.045   1.761  1.00  0.00     0.185 C 
BRANCH   7   8
HETATM    8  C   UNL     1      41.385 -14.344   0.399  1.00  0.00     0.047 A 
HETATM    9  N   UNL     1      41.749 -15.479  -0.269  1.00  0.00    -0.280 N 
HETATM   10  N   UNL     1      41.156 -15.610  -1.467  1.00  0.00    -0.178 NA
HETATM   11  H   UNL     1      42.393 -16.201   0.050  1.00  0.00     0.189 HD
HETATM   12  C   UNL     1      40.377 -14.524  -1.577  1.00  0.00     0.064 A 
HETATM   13  C   UNL     1      40.494 -13.698  -0.428  1.00  0.00     0.058 A 
BRANCH  12  14
HETATM   14  C   UNL     1      39.473 -14.315  -2.782  1.00  0.00    -0.005 C 
HETATM   15  C   UNL     1      39.554 -15.551  -3.702  1.00  0.00     0.021 C 
HETATM   16  C   UNL     1      39.878 -13.072  -3.604  1.00  0.00     0.021 C 
HETATM   17  C   UNL     1      38.009 -14.123  -2.337  1.00  0.00     0.021 C 
ENDBRANCH  12  14
ENDBRANCH   7   8
ENDBRANCH   1   7
BRANCH   3  18
HETATM   18  C   UNL     1      42.937 -18.189   4.188  1.00  0.00     0.064 A 
HETATM   19  C   UNL     1      43.647 -19.039   3.320  1.00  0.00     0.099 A 
HETATM   20 CL   UNL     1      43.564 -18.819   1.603  1.00  0.00    -0.079 Cl
HETATM   21  C   UNL     1      44.445 -20.065   3.835  1.00  0.00     0.143 A 
HETATM   22  F   UNL     1      45.137 -20.869   3.014  1.00  0.00    -0.204 F 
HETATM   23  C   UNL     1      44.540 -20.273   5.203  1.00  0.00     0.086 A 
HETATM   24  C   UNL     1      43.825 -19.445   6.056  1.00  0.00     0.121 A 
HETATM   25  F   UNL     1      43.900 -19.647   7.378  1.00  0.00    -0.206 F 
HETATM   26  C   UNL     1      43.028 -18.411   5.566  1.00  0.00     0.073 A 
ENDBRANCH   3  18
TORSDOF 4
ENDMDL
MODEL 6
REMARK VINA RESULT:      -7.1      3.114      4.178
REMARK  4 active torsions:
REMARK  status: ('A' for Active; 'I' for Inactive)
REMARK    1  A    between atoms: C_2  and  C_3 
REMARK    2  A    between atoms: C_7  and  C_8 
REMARK    3  A    between atoms: C_8  and  N_9 
REMARK       I    between atoms: N_9  and  C_10 
REMARK       I    between atoms: C_10  and  N_11 
REMARK    4  A    between atoms: N_11  and  C_12 
ROOT
HETATM    1  N   UNL     1      41.221 -16.152   1.169  1.00  0.00    -0.333 N 
HETATM    2  C   UNL     1      42.368 -16.670   1.758  1.00  0.00     0.322 C 
HETATM    3  N   UNL     1      42.134 -17.403   2.897  1.00  0.00    -0.307 N 
HETATM    4  O   UNL     1      43.476 -16.507   1.249  1.00  0.00    -0.247 OA
HETATM    5  C   UNL     1      39.979 -15.863   1.876  1.00  0.00     0.155 C 
HETATM    6  H   UNL     1      41.196 -17.772   2.987  1.00  0.00     0.170 HD
ENDROOT
BRANCH   1   7
HETATM    7  C   UNL     1      41.298 -15.727  -0.223  1.00  0.00     0.185 C 
BRANCH   7   8
HETATM    8  C   UNL     1      41.610 -14.282  -0.317  1.00  0.00     0.047 A 
HETATM    9  N   UNL     1      42.070 -13.572   0.756  1.00  0.00    -0.280 N 
HETATM   10  N   UNL     1      42.353 -12.291   0.469  1.00  0.00    -0.178 NA
HETATM   11  H   UNL     1      42.214 -13.915   1.704  1.00  0.00     0.189 HD
HETATM   12  C   UNL     1      42.072 -12.168  -0.836  1.00  0.00     0.064 A 
HETATM   13  C   UNL     1      41.597 -13.395  -1.370  1.00  0.00     0.058 A 
BRANCH  12  14
HETATM   14  C   UNL     1      42.318 -10.865  -1.581  1.00  0.00    -0.005 C 
HETATM   15  C   UNL     1      43.601 -10.202  -1.042  1.00  0.00     0.021 C 
HETATM   16  C   UNL     1      41.150  -9.870  -1.412  1.00  0.00     0.021 C 
HETATM   17  C   UNL     1      42.492 -11.128  -3.092  1.00  0.00     0.021 C 
ENDBRANCH  12  14
ENDBRANCH   7   8
ENDBRANCH   1   7
BRANCH   3  18
HETATM   18  C   UNL     1      43.094 -18.006   3.746  1.00  0.00     0.064 A 
HETATM   19  C   UNL     1      43.600 -19.273   3.398  1.00  0.00     0.099 A 
HETATM   20 CL   UNL     1      43.069 -20.070   1.954  1.00  0.00    -0.079 Cl
HETATM   21  C   UNL     1      44.552 -19.898   4.208  1.00  0.00     0.143 A 
HETATM   22  F   UNL     1      45.050 -21.098   3.874  1.00  0.00    -0.204 F 
HETATM   23  C   UNL     1      45.004 -19.293   5.372  1.00  0.00     0.086 A 
HETATM   24  C   UNL     1      44.491 -18.052   5.721  1.00  0.00     0.121 A 
HETATM   25  F   UNL     1      44.911 -17.466   6.850  1.00  0.00    -0.206 F 
HETATM   26  C   UNL     1      43.546 -17.406   4.926  1.00  0.00     0.073 A 
ENDBRANCH   3  18
TORSDOF 4
ENDMDL
MODEL 7
REMARK VINA RESULT:      -7.0      2.931      3.735
REMARK  4 active torsions:
REMARK  status: ('A' for Active; 'I' for Inactive)
REMARK    1  A    between atoms: C_2  and  C_3 
REMARK    2  A    between atoms: C_7  and  C_8 
REMARK    3  A    between atoms: C_8  and  N_9 
REMARK       I    between atoms: N_9  and  C_10 
REMARK       I    between atoms: C_10  and  N_11 
REMARK    4  A    between atoms: N_11  and  C_12 
ROOT
HETATM    1  N   UNL     1      41.227 -16.176   0.942  1.00  0.00    -0.333 N 
HETATM    2  C   UNL     1      42.317 -16.992   1.219  1.00  0.00     0.322 C 
HETATM    3  N   UNL     1      42.151 -17.801   2.317  1.00  0.00    -0.307 N 
HETATM    4  O   UNL     1      43.311 -16.998   0.493  1.00  0.00    -0.247 OA
HETATM    5  C   UNL     1      40.249 -15.730   1.928  1.00  0.00     0.155 C 
HETATM    6  H   UNL     1      41.190 -17.976   2.582  1.00  0.00     0.170 HD
ENDROOT
BRANCH   1   7
HETATM    7  C   UNL     1      41.124 -15.600  -0.393  1.00  0.00     0.185 C 
BRANCH   7   8
HETATM    8  C   UNL     1      41.502 -14.169  -0.381  1.00  0.00     0.047 A 
HETATM    9  N   UNL     1      42.045 -13.575   0.724  1.00  0.00    -0.280 N 
HETATM   10  N   UNL     1      42.378 -12.289   0.531  1.00  0.00    -0.178 NA
HETATM   11  H   UNL     1      42.215 -14.004   1.631  1.00  0.00     0.189 HD
HETATM   12  C   UNL     1      42.044 -12.041  -0.743  1.00  0.00     0.064 A 
HETATM   13  C   UNL     1      41.485 -13.195  -1.354  1.00  0.00     0.058 A 
BRANCH  12  14
HETATM   14  C   UNL     1      42.320 -10.691  -1.388  1.00  0.00    -0.005 C 
HETATM   15  C   UNL     1      41.248  -9.680  -0.934  1.00  0.00     0.021 C 
HETATM   16  C   UNL     1      42.292 -10.767  -2.930  1.00  0.00     0.021 C 
HETATM   17  C   UNL     1      43.709 -10.164  -0.973  1.00  0.00     0.021 C 
ENDBRANCH  12  14
ENDBRANCH   7   8
ENDBRANCH   1   7
BRANCH   3  18
HETATM   18  C   UNL     1      43.095 -18.695   2.880  1.00  0.00     0.064 A 
HETATM   19  C   UNL     1      43.742 -18.326   4.075  1.00  0.00     0.099 A 
HETATM   20 CL   UNL     1      43.379 -16.818   4.847  1.00  0.00    -0.079 Cl
HETATM   21  C   UNL     1      44.676 -19.183   4.663  1.00  0.00     0.143 A 
HETATM   22  F   UNL     1      45.285 -18.845   5.810  1.00  0.00    -0.204 F 
HETATM   23  C   UNL     1      44.994 -20.400   4.077  1.00  0.00     0.086 A 
HETATM   24  C   UNL     1      44.367 -20.753   2.891  1.00  0.00     0.121 A 
HETATM   25  F   UNL     1      44.677 -21.919   2.310  1.00  0.00    -0.206 F 
HETATM   26  C   UNL     1      43.428 -19.918   2.288  1.00  0.00     0.073 A 
ENDBRANCH   3  18
TORSDOF 4
ENDMDL
MODEL 8
REMARK VINA RESULT:      -6.9      2.102      2.962
REMARK  4 active torsions:
REMARK  status: ('A' for Active; 'I' for Inactive)
REMARK    1  A    between atoms: C_2  and  C_3 
REMARK    2  A    between atoms: C_7  and  C_8 
REMARK    3  A    between atoms: C_8  and  N_9 
REMARK       I    between atoms: N_9  and  C_10 
REMARK       I    between atoms: C_10  and  N_11 
REMARK    4  A    between atoms: N_11  and  C_12 
ROOT
HETATM    1  N   UNL     1      42.104 -15.128   3.413  1.00  0.00    -0.333 N 
HETATM    2  C   UNL     1      42.174 -16.507   3.571  1.00  0.00     0.322 C 
HETATM    3  N   UNL     1      43.408 -16.967   3.965  1.00  0.00    -0.307 N 
HETATM    4  O   UNL     1      41.183 -17.218   3.411  1.00  0.00    -0.247 OA
HETATM    5  C   UNL     1      43.240 -14.266   3.106  1.00  0.00     0.155 C 
HETATM    6  H   UNL     1      43.999 -16.281   4.418  1.00  0.00     0.170 HD
ENDROOT
BRANCH   1   7
HETATM    7  C   UNL     1      40.787 -14.505   3.406  1.00  0.00     0.185 C 
BRANCH   7   8
HETATM    8  C   UNL     1      40.251 -14.416   2.029  1.00  0.00     0.047 A 
HETATM    9  N   UNL     1      38.933 -14.154   1.783  1.00  0.00    -0.280 N 
HETATM   10  N   UNL     1      38.642 -14.053   0.476  1.00  0.00    -0.178 NA
HETATM   11  H   UNL     1      38.192 -14.029   2.470  1.00  0.00     0.189 HD
HETATM   12  C   UNL     1      39.812 -14.251  -0.147  1.00  0.00     0.064 A 
HETATM   13  C   UNL     1      40.851 -14.488   0.792  1.00  0.00     0.058 A 
BRANCH  12  14
HETATM   14  C   UNL     1      39.932 -14.156  -1.660  1.00  0.00    -0.005 C 
HETATM   15  C   UNL     1      40.633 -12.834  -2.035  1.00  0.00     0.021 C 
HETATM   16  C   UNL     1      38.554 -14.188  -2.356  1.00  0.00     0.021 C 
HETATM   17  C   UNL     1      40.762 -15.332  -2.214  1.00  0.00     0.021 C 
ENDBRANCH  12  14
ENDBRANCH   7   8
ENDBRANCH   1   7
BRANCH   3  18
HETATM   18  C   UNL     1      43.805 -18.313   4.153  1.00  0.00     0.064 A 
HETATM   19  C   UNL     1      44.147 -19.080   3.023  1.00  0.00     0.099 A 
HETATM   20 CL   UNL     1      44.097 -18.385   1.437  1.00  0.00    -0.079 Cl
HETATM   21  C   UNL     1      44.548 -20.410   3.170  1.00  0.00     0.143 A 
HETATM   22  F   UNL     1      44.890 -21.142   2.099  1.00  0.00    -0.204 F 
HETATM   23  C   UNL     1      44.604 -21.003   4.423  1.00  0.00     0.086 A 
HETATM   24  C   UNL     1      44.250 -20.251   5.533  1.00  0.00     0.121 A 
HETATM   25  F   UNL     1      44.287 -20.818   6.746  1.00  0.00    -0.206 F 
HETATM   26  C   UNL     1      43.852 -18.920   5.413  1.00  0.00     0.073 A 
ENDBRANCH   3  18
TORSDOF 4
ENDMDL
MODEL 9
REMARK VINA RESULT:      -6.9      4.686      7.929
REMARK  4 active torsions:
REMARK  status: ('A' for Active; 'I' for Inactive)
REMARK    1  A    between atoms: C_2  and  C_3 
REMARK    2  A    between atoms: C_7  and  C_8 
REMARK    3  A    between atoms: C_8  and  N_9 
REMARK       I    between atoms: N_9  and  C_10 
REMARK       I    between atoms: C_10  and  N_11 
REMARK    4  A    between atoms: N_11  and  C_12 
ROOT
HETATM    1  N   UNL     1      41.589 -14.720   2.820  1.00  0.00    -0.333 N 
HETATM    2  C   UNL     1      40.979 -14.761   1.572  1.00  0.00     0.322 C 
HETATM    3  N   UNL     1      41.846 -14.618   0.516  1.00  0.00    -0.307 N 
HETATM    4  O   UNL     1      39.769 -14.958   1.461  1.00  0.00    -0.247 OA
HETATM    5  C   UNL     1      42.849 -14.045   3.108  1.00  0.00     0.155 C 
HETATM    6  H   UNL     1      42.811 -14.844   0.717  1.00  0.00     0.170 HD
ENDROOT
BRANCH   1   7
HETATM    7  C   UNL     1      40.858 -15.259   3.959  1.00  0.00     0.185 C 
BRANCH   7   8
HETATM    8  C   UNL     1      41.633 -16.331   4.625  1.00  0.00     0.047 A 
HETATM    9  N   UNL     1      41.875 -17.531   4.017  1.00  0.00    -0.280 N 
HETATM   10  N   UNL     1      42.642 -18.356   4.747  1.00  0.00    -0.178 NA
HETATM   11  H   UNL     1      41.544 -17.834   3.102  1.00  0.00     0.189 HD
HETATM   12  C   UNL     1      42.912 -17.666   5.864  1.00  0.00     0.064 A 
HETATM   13  C   UNL     1      42.293 -16.389   5.831  1.00  0.00     0.058 A 
BRANCH  12  14
HETATM   14  C   UNL     1      43.820 -18.230   6.945  1.00  0.00    -0.005 C 
HETATM   15  C   UNL     1      43.574 -19.747   7.079  1.00  0.00     0.021 C 
HETATM   16  C   UNL     1      43.564 -17.574   8.320  1.00  0.00     0.021 C 
HETATM   17  C   UNL     1      45.302 -17.997   6.587  1.00  0.00     0.021 C 
ENDBRANCH  12  14
ENDBRANCH   7   8
ENDBRANCH   1   7
BRANCH   3  18
HETATM   18  C   UNL     1      41.523 -14.563  -0.862  1.00  0.00     0.064 A 
HETATM   19  C   UNL     1      41.778 -13.370  -1.566  1.00  0.00     0.099 A 
HETATM   20 CL   UNL     1      42.486 -12.007  -0.766  1.00  0.00    -0.079 Cl
HETATM   21  C   UNL     1      41.477 -13.279  -2.928  1.00  0.00     0.143 A 
HETATM   22  F   UNL     1      41.732 -12.151  -3.609  1.00  0.00    -0.204 F 
HETATM   23  C   UNL     1      40.911 -14.349  -3.605  1.00  0.00     0.086 A 
HETATM   24  C   UNL     1      40.644 -15.516  -2.905  1.00  0.00     0.121 A 
HETATM   25  F   UNL     1      40.085 -16.550  -3.547  1.00  0.00    -0.206 F 
HETATM   26  C   UNL     1      40.941 -15.634  -1.548  1.00  0.00     0.073 A 
ENDBRANCH   3  18
TORSDOF 4
ENDMDL
MODEL 10
REMARK VINA RESULT:      -6.9      2.586      3.683
REMARK  4 active torsions:
REMARK  status: ('A' for Active; 'I' for Inactive)
REMARK    1  A    between atoms: C_2  and  C_3 
REMARK    2  A    between atoms: C_7  and  C_8 
REMARK    3  A    between atoms: C_8  and  N_9 
REMARK       I    between atoms: N_9  and  C_10 
REMARK       I    between atoms: C_10  and  N_11 
REMARK    4  A    between atoms: N_11  and  C_12 
ROOT
HETATM    1  N   UNL     1      41.102 -14.312   4.330  1.00  0.00    -0.333 N 
HETATM    2  C   UNL     1      42.145 -15.190   4.059  1.00  0.00     0.322 C 
HETATM    3  N   UNL     1      41.806 -16.518   4.166  1.00  0.00    -0.307 N 
HETATM    4  O   UNL     1      43.251 -14.778   3.711  1.00  0.00    -0.247 OA
HETATM    5  C   UNL     1      39.955 -14.618   5.177  1.00  0.00     0.155 C 
HETATM    6  H   UNL     1      40.818 -16.718   4.081  1.00  0.00     0.170 HD
ENDROOT
BRANCH   1   7
HETATM    7  C   UNL     1      41.222 -12.939   3.858  1.00  0.00     0.185 C 
BRANCH   7   8
HETATM    8  C   UNL     1      41.297 -12.893   2.380  1.00  0.00     0.047 A 
HETATM    9  N   UNL     1      42.354 -12.322   1.729  1.00  0.00    -0.280 N 
HETATM   10  N   UNL     1      42.278 -12.424   0.392  1.00  0.00    -0.178 NA
HETATM   11  H   UNL     1      43.156 -11.855   2.149  1.00  0.00     0.189 HD
HETATM   12  C   UNL     1      41.136 -13.088   0.169  1.00  0.00     0.064 A 
HETATM   13  C   UNL     1      40.484 -13.399   1.391  1.00  0.00     0.058 A 
BRANCH  12  14
HETATM   14  C   UNL     1      40.702 -13.471  -1.238  1.00  0.00    -0.005 C 
HETATM   15  C   UNL     1      40.960 -14.975  -1.460  1.00  0.00     0.021 C 
HETATM   16  C   UNL     1      41.472 -12.682  -2.319  1.00  0.00     0.021 C 
HETATM   17  C   UNL     1      39.198 -13.190  -1.438  1.00  0.00     0.021 C 
ENDBRANCH  12  14
ENDBRANCH   7   8
ENDBRANCH   1   7
BRANCH   3  18
HETATM   18  C   UNL     1      42.657 -17.639   4.008  1.00  0.00     0.064 A 
HETATM   19  C   UNL     1      42.671 -18.305   2.768  1.00  0.00     0.099 A 
HETATM   20 CL   UNL     1      41.679 -17.754   1.459  1.00  0.00    -0.079 Cl
HETATM   21  C   UNL     1      43.500 -19.413   2.573  1.00  0.00     0.143 A 
HETATM   22  F   UNL     1      43.531 -20.043   1.389  1.00  0.00    -0.204 F 
HETATM   23  C   UNL     1      44.311 -19.884   3.596  1.00  0.00     0.086 A 
HETATM   24  C   UNL     1      44.282 -19.237   4.822  1.00  0.00     0.121 A 
HETATM   25  F   UNL     1      45.050 -19.692   5.820  1.00  0.00    -0.206 F 
HETATM   26  C   UNL     1      43.468 -18.126   5.040  1.00  0.00     0.073 A 
ENDBRANCH   3  18
TORSDOF 4
ENDMDL
