MODEL 1
REMARK VINA RESULT:     -10.2      0.000      0.000
REMARK  5 active torsions:
REMARK  status: ('A' for Active; 'I' for Inactive)
REMARK    1  A    between atoms: C_11  and  C_12 
REMARK    2  A    between atoms: C_12  and  S_13 
REMARK    3  A    between atoms: S_13  and  C_14 
REMARK    4  A    between atoms: C_16  and  N_17 
REMARK    5  A    between atoms: N_17  and  C_18 
ROOT
HETATM    1  C   UNL     1      43.525 -16.872   3.899  1.00  0.00     0.121 C 
ENDROOT
BRANCH   1   2
HETATM    2  C   UNL     1      43.622 -17.632   5.200  1.00  0.00    -0.029 A 
HETATM    3  C   UNL     1      43.890 -19.117   5.185  1.00  0.00     0.016 A 
HETATM    4  C   UNL     1      44.037 -19.991   4.027  1.00  0.00    -0.012 A 
HETATM    5  C   UNL     1      44.015 -19.719   6.454  1.00  0.00     0.091 A 
HETATM    6  C   UNL     1      44.319 -21.378   4.253  1.00  0.00    -0.025 A 
HETATM    7  C   UNL     1      43.934 -19.647   2.644  1.00  0.00     0.013 A 
HETATM    8  C   UNL     1      44.485 -22.286   3.192  1.00  0.00     0.012 A 
HETATM    9  C   UNL     1      44.437 -21.891   5.544  1.00  0.00     0.015 A 
HETATM   10  C   UNL     1      44.381 -21.885   1.869  1.00  0.00     0.001 A 
HETATM   11  C   UNL     1      44.102 -20.562   1.594  1.00  0.00     0.001 A 
HETATM   12  C   UNL     1      44.282 -21.071   6.644  1.00  0.00     0.039 A 
HETATM   13  O   UNL     1      43.876 -19.016   7.669  1.00  0.00    -0.275 OA
HETATM   14  C   UNL     1      43.594 -17.676   7.694  1.00  0.00     0.288 A 
HETATM   15  O   UNL     1      43.449 -17.047   8.735  1.00  0.00    -0.260 OA
HETATM   16  C   UNL     1      43.487 -17.020   6.391  1.00  0.00     0.091 A 
ENDBRANCH   1   2
BRANCH   1  17
HETATM   17  S   UNL     1      42.643 -15.282   3.890  1.00  0.00    -0.096 SA
BRANCH  17  18
HETATM   18  C   UNL     1      42.118 -15.258   2.219  1.00  0.00     0.160 A 
HETATM   19  S   UNL     1      41.717 -13.827   1.377  1.00  0.00    -0.022 SA
HETATM   20  C   UNL     1      41.420 -14.808  -0.020  1.00  0.00     0.195 A 
HETATM   21  N   UNL     1      41.608 -16.091   0.216  1.00  0.00    -0.123 NA
HETATM   22  N   UNL     1      42.009 -16.355   1.505  1.00  0.00    -0.133 NA
BRANCH  20  23
HETATM   23  N   UNL     1      41.043 -14.218  -1.177  1.00  0.00    -0.331 N 
HETATM   24  H   UNL     1      41.594 -13.432  -1.511  1.00  0.00     0.168 HD
BRANCH  23  25
HETATM   25  C   UNL     1      40.000 -14.567  -2.060  1.00  0.00     0.073 A 
HETATM   26  C   UNL     1      40.283 -15.473  -3.098  1.00  0.00     0.143 A 
HETATM   27  F   UNL     1      41.526 -15.971  -3.206  1.00  0.00    -0.204 F 
HETATM   28  C   UNL     1      39.319 -15.878  -4.019  1.00  0.00     0.044 A 
HETATM   29  C   UNL     1      38.026 -15.374  -3.919  1.00  0.00     0.003 A 
HETATM   30  C   UNL     1      37.715 -14.473  -2.903  1.00  0.00     0.002 A 
HETATM   31  C   UNL     1      38.694 -14.071  -1.983  1.00  0.00     0.033 A 
ENDBRANCH  23  25
ENDBRANCH  20  23
ENDBRANCH  17  18
ENDBRANCH   1  17
TORSDOF 5
ENDMDL
MODEL 2
REMARK VINA RESULT:      -9.8      1.870      2.402
REMARK  5 active torsions:
REMARK  status: ('A' for Active; 'I' for Inactive)
REMARK    1  A    between atoms: C_11  and  C_12 
REMARK    2  A    between atoms: C_12  and  S_13 
REMARK    3  A    between atoms: S_13  and  C_14 
REMARK    4  A    between atoms: C_16  and  N_17 
REMARK    5  A    between atoms: N_17  and  C_18 
ROOT
HETATM    1  C   UNL     1      42.253 -15.160   3.638  1.00  0.00     0.121 C 
ENDROOT
BRANCH   1   2
HETATM    2  C   UNL     1      43.079 -15.618   4.816  1.00  0.00    -0.029 A 
HETATM    3  C   UNL     1      43.677 -17.004   4.821  1.00  0.00     0.016 A 
HETATM    4  C   UNL     1      43.533 -18.048   3.813  1.00  0.00    -0.012 A 
HETATM    5  C   UNL     1      44.475 -17.310   5.943  1.00  0.00     0.091 A 
HETATM    6  C   UNL     1      44.221 -19.288   4.017  1.00  0.00    -0.025 A 
HETATM    7  C   UNL     1      42.771 -18.008   2.606  1.00  0.00     0.013 A 
HETATM    8  C   UNL     1      44.143 -20.343   3.089  1.00  0.00     0.012 A 
HETATM    9  C   UNL     1      45.000 -19.506   5.152  1.00  0.00     0.015 A 
HETATM   10  C   UNL     1      43.391 -20.237   1.929  1.00  0.00     0.001 A 
HETATM   11  C   UNL     1      42.701 -19.067   1.688  1.00  0.00     0.001 A 
HETATM   12  C   UNL     1      45.126 -18.526   6.117  1.00  0.00     0.039 A 
HETATM   13  O   UNL     1      44.693 -16.418   7.013  1.00  0.00    -0.275 OA
HETATM   14  C   UNL     1      44.122 -15.173   7.037  1.00  0.00     0.288 A 
HETATM   15  O   UNL     1      44.280 -14.387   7.963  1.00  0.00    -0.260 OA
HETATM   16  C   UNL     1      43.312 -14.817   5.872  1.00  0.00     0.091 A 
ENDBRANCH   1   2
BRANCH   1  17
HETATM   17  S   UNL     1      41.975 -13.377   3.416  1.00  0.00    -0.096 SA
BRANCH  17  18
HETATM   18  C   UNL     1      42.065 -13.290   1.669  1.00  0.00     0.160 A 
HETATM   19  S   UNL     1      41.654 -14.589   0.639  1.00  0.00    -0.022 SA
HETATM   20  C   UNL     1      42.009 -13.553  -0.704  1.00  0.00     0.195 A 
HETATM   21  N   UNL     1      42.415 -12.358  -0.325  1.00  0.00    -0.123 NA
HETATM   22  N   UNL     1      42.450 -12.202   1.042  1.00  0.00    -0.133 NA
BRANCH  20  23
HETATM   23  N   UNL     1      41.849 -14.021  -1.963  1.00  0.00    -0.331 N 
HETATM   24  H   UNL     1      42.668 -14.061  -2.562  1.00  0.00     0.168 HD
BRANCH  23  25
HETATM   25  C   UNL     1      40.692 -14.535  -2.586  1.00  0.00     0.073 A 
HETATM   26  C   UNL     1      39.554 -13.712  -2.656  1.00  0.00     0.143 A 
HETATM   27  F   UNL     1      39.612 -12.475  -2.135  1.00  0.00    -0.204 F 
HETATM   28  C   UNL     1      38.366 -14.131  -3.251  1.00  0.00     0.044 A 
HETATM   29  C   UNL     1      38.289 -15.408  -3.799  1.00  0.00     0.003 A 
HETATM   30  C   UNL     1      39.400 -16.248  -3.742  1.00  0.00     0.002 A 
HETATM   31  C   UNL     1      40.590 -15.816  -3.139  1.00  0.00     0.033 A 
ENDBRANCH  23  25
ENDBRANCH  20  23
ENDBRANCH  17  18
ENDBRANCH   1  17
TORSDOF 5
ENDMDL
MODEL 3
REMARK VINA RESULT:      -9.3      3.105      4.903
REMARK  5 active torsions:
REMARK  status: ('A' for Active; 'I' for Inactive)
REMARK    1  A    between atoms: C_11  and  C_12 
REMARK    2  A    between atoms: C_12  and  S_13 
REMARK    3  A    between atoms: S_13  and  C_14 
REMARK    4  A    between atoms: C_16  and  N_17 
REMARK    5  A    between atoms: N_17  and  C_18 
ROOT
HETATM    1  C   UNL     1      42.832 -17.712   1.452  1.00  0.00     0.121 C 
ENDROOT
BRANCH   1   2
HETATM    2  C   UNL     1      43.436 -18.855   2.233  1.00  0.00    -0.029 A 
HETATM    3  C   UNL     1      43.825 -18.655   3.678  1.00  0.00     0.016 A 
HETATM    4  C   UNL     1      43.738 -17.433   4.470  1.00  0.00    -0.012 A 
HETATM    5  C   UNL     1      44.328 -19.800   4.329  1.00  0.00     0.091 A 
HETATM    6  C   UNL     1      44.143 -17.484   5.844  1.00  0.00    -0.025 A 
HETATM    7  C   UNL     1      43.293 -16.142   4.053  1.00  0.00     0.013 A 
HETATM    8  C   UNL     1      44.082 -16.355   6.680  1.00  0.00     0.012 A 
HETATM    9  C   UNL     1      44.620 -18.664   6.415  1.00  0.00     0.015 A 
HETATM   10  C   UNL     1      43.629 -15.130   6.214  1.00  0.00     0.001 A 
HETATM   11  C   UNL     1      43.236 -15.022   4.896  1.00  0.00     0.001 A 
HETATM   12  C   UNL     1      44.719 -19.818   5.664  1.00  0.00     0.039 A 
HETATM   13  O   UNL     1      44.495 -21.048   3.696  1.00  0.00    -0.275 OA
HETATM   14  C   UNL     1      44.182 -21.231   2.375  1.00  0.00     0.288 A 
HETATM   15  O   UNL     1      44.336 -22.299   1.797  1.00  0.00    -0.260 OA
HETATM   16  C   UNL     1      43.631 -20.067   1.681  1.00  0.00     0.091 A 
ENDBRANCH   1   2
BRANCH   1  17
HETATM   17  S   UNL     1      41.022 -17.548   1.419  1.00  0.00    -0.096 SA
BRANCH  17  18
HETATM   18  C   UNL     1      40.898 -15.841   1.047  1.00  0.00     0.160 A 
HETATM   19  S   UNL     1      41.210 -15.188  -0.500  1.00  0.00    -0.022 SA
HETATM   20  C   UNL     1      40.801 -13.632   0.144  1.00  0.00     0.195 A 
HETATM   21  N   UNL     1      40.489 -13.682   1.424  1.00  0.00    -0.123 NA
HETATM   22  N   UNL     1      40.545 -14.953   1.949  1.00  0.00    -0.133 NA
BRANCH  20  23
HETATM   23  N   UNL     1      40.828 -12.550  -0.666  1.00  0.00    -0.331 N 
HETATM   24  H   UNL     1      40.159 -12.511  -1.429  1.00  0.00     0.168 HD
BRANCH  23  25
HETATM   25  C   UNL     1      41.633 -11.394  -0.587  1.00  0.00     0.073 A 
HETATM   26  C   UNL     1      42.846 -11.377  -1.299  1.00  0.00     0.143 A 
HETATM   27  F   UNL     1      43.188 -12.455  -2.025  1.00  0.00    -0.204 F 
HETATM   28  C   UNL     1      43.707 -10.282  -1.282  1.00  0.00     0.044 A 
HETATM   29  C   UNL     1      43.366  -9.157  -0.538  1.00  0.00     0.003 A 
HETATM   30  C   UNL     1      42.171  -9.144   0.180  1.00  0.00     0.002 A 
HETATM   31  C   UNL     1      41.314 -10.253   0.157  1.00  0.00     0.033 A 
ENDBRANCH  23  25
ENDBRANCH  20  23
ENDBRANCH  17  18
ENDBRANCH   1  17
TORSDOF 5
ENDMDL
MODEL 4
REMARK VINA RESULT:      -9.3      2.869      3.696
REMARK  5 active torsions:
REMARK  status: ('A' for Active; 'I' for Inactive)
REMARK    1  A    between atoms: C_11  and  C_12 
REMARK    2  A    between atoms: C_12  and  S_13 
REMARK    3  A    between atoms: S_13  and  C_14 
REMARK    4  A    between atoms: C_16  and  N_17 
REMARK    5  A    between atoms: N_17  and  C_18 
ROOT
HETATM    1  C   UNL     1      42.917 -17.001   1.521  1.00  0.00     0.121 C 
ENDROOT
BRANCH   1   2
HETATM    2  C   UNL     1      43.219 -16.840   2.992  1.00  0.00    -0.029 A 
HETATM    3  C   UNL     1      43.718 -18.019   3.790  1.00  0.00     0.016 A 
HETATM    4  C   UNL     1      43.924 -19.389   3.335  1.00  0.00    -0.012 A 
HETATM    5  C   UNL     1      44.021 -17.746   5.140  1.00  0.00     0.091 A 
HETATM    6  C   UNL     1      44.436 -20.347   4.270  1.00  0.00    -0.025 A 
HETATM    7  C   UNL     1      43.675 -19.934   2.038  1.00  0.00     0.013 A 
HETATM    8  C   UNL     1      44.672 -21.686   3.910  1.00  0.00     0.012 A 
HETATM    9  C   UNL     1      44.720 -19.991   5.588  1.00  0.00     0.015 A 
HETATM   10  C   UNL     1      44.418 -22.149   2.629  1.00  0.00     0.001 A 
HETATM   11  C   UNL     1      43.915 -21.272   1.690  1.00  0.00     0.001 A 
HETATM   12  C   UNL     1      44.512 -18.698   6.028  1.00  0.00     0.039 A 
HETATM   13  O   UNL     1      43.854 -16.481   5.738  1.00  0.00    -0.275 OA
HETATM   14  C   UNL     1      43.365 -15.413   5.032  1.00  0.00     0.288 A 
HETATM   15  O   UNL     1      43.193 -14.309   5.532  1.00  0.00    -0.260 OA
HETATM   16  C   UNL     1      43.069 -15.660   3.621  1.00  0.00     0.091 A 
ENDBRANCH   1   2
BRANCH   1  17
HETATM   17  S   UNL     1      41.178 -17.145   1.006  1.00  0.00    -0.096 SA
BRANCH  17  18
HETATM   18  C   UNL     1      41.029 -15.657   0.094  1.00  0.00     0.160 A 
HETATM   19  S   UNL     1      40.724 -14.137   0.812  1.00  0.00    -0.022 SA
HETATM   20  C   UNL     1      40.805 -13.443  -0.773  1.00  0.00     0.195 A 
HETATM   21  N   UNL     1      41.025 -14.346  -1.708  1.00  0.00    -0.123 NA
HETATM   22  N   UNL     1      41.153 -15.623  -1.213  1.00  0.00    -0.133 NA
BRANCH  20  23
HETATM   23  N   UNL     1      40.649 -12.108  -0.922  1.00  0.00    -0.331 N 
HETATM   24  H   UNL     1      39.716 -11.724  -0.809  1.00  0.00     0.168 HD
BRANCH  23  25
HETATM   25  C   UNL     1      41.623 -11.116  -1.163  1.00  0.00     0.073 A 
HETATM   26  C   UNL     1      41.813 -10.679  -2.486  1.00  0.00     0.143 A 
HETATM   27  F   UNL     1      41.064 -11.218  -3.463  1.00  0.00    -0.204 F 
HETATM   28  C   UNL     1      42.750  -9.704  -2.824  1.00  0.00     0.044 A 
HETATM   29  C   UNL     1      43.531  -9.134  -1.824  1.00  0.00     0.003 A 
HETATM   30  C   UNL     1      43.368  -9.548  -0.503  1.00  0.00     0.002 A 
HETATM   31  C   UNL     1      42.423 -10.531  -0.176  1.00  0.00     0.033 A 
ENDBRANCH  23  25
ENDBRANCH  20  23
ENDBRANCH  17  18
ENDBRANCH   1  17
TORSDOF 5
ENDMDL
MODEL 5
REMARK VINA RESULT:      -9.2      1.819      2.374
REMARK  5 active torsions:
REMARK  status: ('A' for Active; 'I' for Inactive)
REMARK    1  A    between atoms: C_11  and  C_12 
REMARK    2  A    between atoms: C_12  and  S_13 
REMARK    3  A    between atoms: S_13  and  C_14 
REMARK    4  A    between atoms: C_16  and  N_17 
REMARK    5  A    between atoms: N_17  and  C_18 
ROOT
HETATM    1  C   UNL     1      43.335 -17.066   3.852  1.00  0.00     0.121 C 
ENDROOT
BRANCH   1   2
HETATM    2  C   UNL     1      43.485 -17.803   5.162  1.00  0.00    -0.029 A 
HETATM    3  C   UNL     1      43.829 -19.272   5.162  1.00  0.00     0.016 A 
HETATM    4  C   UNL     1      44.008 -20.153   4.014  1.00  0.00    -0.012 A 
HETATM    5  C   UNL     1      43.999 -19.849   6.438  1.00  0.00     0.091 A 
HETATM    6  C   UNL     1      44.362 -21.521   4.255  1.00  0.00    -0.025 A 
HETATM    7  C   UNL     1      43.871 -19.834   2.628  1.00  0.00     0.013 A 
HETATM    8  C   UNL     1      44.562 -22.434   3.205  1.00  0.00     0.012 A 
HETATM    9  C   UNL     1      44.521 -22.010   5.552  1.00  0.00     0.015 A 
HETATM   10  C   UNL     1      44.423 -22.057   1.878  1.00  0.00     0.001 A 
HETATM   11  C   UNL     1      44.074 -20.754   1.589  1.00  0.00     0.001 A 
HETATM   12  C   UNL     1      44.337 -21.183   6.642  1.00  0.00     0.039 A 
HETATM   13  O   UNL     1      43.838 -19.138   7.645  1.00  0.00    -0.275 OA
HETATM   14  C   UNL     1      43.488 -17.814   7.656  1.00  0.00     0.288 A 
HETATM   15  O   UNL     1      43.323 -17.179   8.690  1.00  0.00    -0.260 OA
HETATM   16  C   UNL     1      43.332 -17.182   6.346  1.00  0.00     0.091 A 
ENDBRANCH   1   2
BRANCH   1  17
HETATM   17  S   UNL     1      42.275 -15.590   3.806  1.00  0.00    -0.096 SA
BRANCH  17  18
HETATM   18  C   UNL     1      41.977 -15.508   2.082  1.00  0.00     0.160 A 
HETATM   19  S   UNL     1      41.961 -14.047   1.197  1.00  0.00    -0.022 SA
HETATM   20  C   UNL     1      41.662 -14.987  -0.227  1.00  0.00     0.195 A 
HETATM   21  N   UNL     1      41.574 -16.277   0.029  1.00  0.00    -0.123 NA
HETATM   22  N   UNL     1      41.754 -16.582   1.360  1.00  0.00    -0.133 NA
BRANCH  20  23
HETATM   23  N   UNL     1      41.550 -14.365  -1.422  1.00  0.00    -0.331 N 
HETATM   24  H   UNL     1      41.335 -14.933  -2.236  1.00  0.00     0.168 HD
BRANCH  23  25
HETATM   25  C   UNL     1      41.632 -12.989  -1.725  1.00  0.00     0.073 A 
HETATM   26  C   UNL     1      40.449 -12.229  -1.687  1.00  0.00     0.143 A 
HETATM   27  F   UNL     1      39.296 -12.836  -1.363  1.00  0.00    -0.204 F 
HETATM   28  C   UNL     1      40.429 -10.864  -1.970  1.00  0.00     0.044 A 
HETATM   29  C   UNL     1      41.616 -10.219  -2.304  1.00  0.00     0.003 A 
HETATM   30  C   UNL     1      42.804 -10.946  -2.353  1.00  0.00     0.002 A 
HETATM   31  C   UNL     1      42.811 -12.319  -2.067  1.00  0.00     0.033 A 
ENDBRANCH  23  25
ENDBRANCH  20  23
ENDBRANCH  17  18
ENDBRANCH   1  17
TORSDOF 5
ENDMDL
MODEL 6
REMARK VINA RESULT:      -9.2      1.944      2.673
REMARK  5 active torsions:
REMARK  status: ('A' for Active; 'I' for Inactive)
REMARK    1  A    between atoms: C_11  and  C_12 
REMARK    2  A    between atoms: C_12  and  S_13 
REMARK    3  A    between atoms: S_13  and  C_14 
REMARK    4  A    between atoms: C_16  and  N_17 
REMARK    5  A    between atoms: N_17  and  C_18 
ROOT
HETATM    1  C   UNL     1      43.449 -14.615   5.245  1.00  0.00     0.121 C 
ENDROOT
BRANCH   1   2
HETATM    2  C   UNL     1      43.530 -15.931   5.980  1.00  0.00    -0.029 A 
HETATM    3  C   UNL     1      43.644 -17.220   5.203  1.00  0.00     0.016 A 
HETATM    4  C   UNL     1      43.644 -17.399   3.755  1.00  0.00    -0.012 A 
HETATM    5  C   UNL     1      43.768 -18.386   5.987  1.00  0.00     0.091 A 
HETATM    6  C   UNL     1      43.792 -18.726   3.235  1.00  0.00    -0.025 A 
HETATM    7  C   UNL     1      43.509 -16.399   2.744  1.00  0.00     0.013 A 
HETATM    8  C   UNL     1      43.812 -18.985   1.852  1.00  0.00     0.012 A 
HETATM    9  C   UNL     1      43.921 -19.826   4.082  1.00  0.00     0.015 A 
HETATM   10  C   UNL     1      43.686 -17.966   0.920  1.00  0.00     0.001 A 
HETATM   11  C   UNL     1      43.531 -16.670   1.367  1.00  0.00     0.001 A 
HETATM   12  C   UNL     1      43.905 -19.663   5.453  1.00  0.00     0.039 A 
HETATM   13  O   UNL     1      43.761 -18.384   7.396  1.00  0.00    -0.275 OA
HETATM   14  C   UNL     1      43.619 -17.223   8.111  1.00  0.00     0.288 A 
HETATM   15  O   UNL     1      43.591 -17.196   9.335  1.00  0.00    -0.260 OA
HETATM   16  C   UNL     1      43.517 -15.995   7.324  1.00  0.00     0.091 A 
ENDBRANCH   1   2
BRANCH   1  17
HETATM   17  S   UNL     1      41.916 -13.645   5.375  1.00  0.00    -0.096 SA
BRANCH  17  18
HETATM   18  C   UNL     1      41.385 -13.728   3.708  1.00  0.00     0.160 A 
HETATM   19  S   UNL     1      40.212 -14.835   3.146  1.00  0.00    -0.022 SA
HETATM   20  C   UNL     1      40.381 -14.121   1.577  1.00  0.00     0.195 A 
HETATM   21  N   UNL     1      41.277 -13.154   1.557  1.00  0.00    -0.123 NA
HETATM   22  N   UNL     1      41.859 -12.925   2.783  1.00  0.00    -0.133 NA
BRANCH  20  23
HETATM   23  N   UNL     1      39.624 -14.580   0.555  1.00  0.00    -0.331 N 
HETATM   24  H   UNL     1      38.707 -14.956   0.774  1.00  0.00     0.168 HD
BRANCH  23  25
HETATM   25  C   UNL     1      39.892 -14.567  -0.831  1.00  0.00     0.073 A 
HETATM   26  C   UNL     1      39.076 -13.774  -1.658  1.00  0.00     0.143 A 
HETATM   27  F   UNL     1      38.083 -13.061  -1.101  1.00  0.00    -0.204 F 
HETATM   28  C   UNL     1      39.261 -13.697  -3.037  1.00  0.00     0.044 A 
HETATM   29  C   UNL     1      40.286 -14.427  -3.629  1.00  0.00     0.003 A 
HETATM   30  C   UNL     1      41.110 -15.224  -2.837  1.00  0.00     0.002 A 
HETATM   31  C   UNL     1      40.913 -15.295  -1.450  1.00  0.00     0.033 A 
ENDBRANCH  23  25
ENDBRANCH  20  23
ENDBRANCH  17  18
ENDBRANCH   1  17
TORSDOF 5
ENDMDL
MODEL 7
REMARK VINA RESULT:      -9.0      4.738      9.978
REMARK  5 active torsions:
REMARK  status: ('A' for Active; 'I' for Inactive)
REMARK    1  A    between atoms: C_11  and  C_12 
REMARK    2  A    between atoms: C_12  and  S_13 
REMARK    3  A    between atoms: S_13  and  C_14 
REMARK    4  A    between atoms: C_16  and  N_17 
REMARK    5  A    between atoms: N_17  and  C_18 
ROOT
HETATM    1  C   UNL     1      42.039 -13.689   0.287  1.00  0.00     0.121 C 
ENDROOT
BRANCH   1   2
HETATM    2  C   UNL     1      41.666 -13.804  -1.172  1.00  0.00    -0.029 A 
HETATM    3  C   UNL     1      41.879 -12.631  -2.097  1.00  0.00     0.016 A 
HETATM    4  C   UNL     1      42.383 -11.304  -1.763  1.00  0.00    -0.012 A 
HETATM    5  C   UNL     1      41.548 -12.863  -3.448  1.00  0.00     0.091 A 
HETATM    6  C   UNL     1      42.529 -10.347  -2.819  1.00  0.00    -0.025 A 
HETATM    7  C   UNL     1      42.765 -10.803  -0.480  1.00  0.00     0.013 A 
HETATM    8  C   UNL     1      43.017  -9.049  -2.585  1.00  0.00     0.012 A 
HETATM    9  C   UNL     1      42.188 -10.662  -4.134  1.00  0.00     0.015 A 
HETATM   10  C   UNL     1      43.380  -8.627  -1.314  1.00  0.00     0.001 A 
HETATM   11  C   UNL     1      43.251  -9.506  -0.259  1.00  0.00     0.001 A 
HETATM   12  C   UNL     1      41.694 -11.912  -4.452  1.00  0.00     0.039 A 
HETATM   13  O   UNL     1      41.027 -14.083  -3.926  1.00  0.00    -0.275 OA
HETATM   14  C   UNL     1      40.793 -15.141  -3.088  1.00  0.00     0.288 A 
HETATM   15  O   UNL     1      40.324 -16.204  -3.475  1.00  0.00    -0.260 OA
HETATM   16  C   UNL     1      41.154 -14.938  -1.685  1.00  0.00     0.091 A 
ENDBRANCH   1   2
BRANCH   1  17
HETATM   17  S   UNL     1      40.738 -13.927   1.534  1.00  0.00    -0.096 SA
BRANCH  17  18
HETATM   18  C   UNL     1      41.363 -15.358   2.327  1.00  0.00     0.160 A 
HETATM   19  S   UNL     1      43.008 -15.816   2.287  1.00  0.00    -0.022 SA
HETATM   20  C   UNL     1      42.592 -17.164   3.292  1.00  0.00     0.195 A 
HETATM   21  N   UNL     1      41.304 -17.207   3.571  1.00  0.00    -0.123 NA
HETATM   22  N   UNL     1      40.592 -16.169   3.016  1.00  0.00    -0.133 NA
BRANCH  20  23
HETATM   23  N   UNL     1      43.561 -18.018   3.692  1.00  0.00    -0.331 N 
HETATM   24  H   UNL     1      44.202 -17.704   4.414  1.00  0.00     0.168 HD
BRANCH  23  25
HETATM   25  C   UNL     1      43.801 -19.349   3.290  1.00  0.00     0.073 A 
HETATM   26  C   UNL     1      44.535 -20.182   4.155  1.00  0.00     0.143 A 
HETATM   27  F   UNL     1      44.973 -19.682   5.323  1.00  0.00    -0.204 F 
HETATM   28  C   UNL     1      44.823 -21.510   3.847  1.00  0.00     0.044 A 
HETATM   29  C   UNL     1      44.375 -22.044   2.643  1.00  0.00     0.003 A 
HETATM   30  C   UNL     1      43.647 -21.243   1.764  1.00  0.00     0.002 A 
HETATM   31  C   UNL     1      43.365 -19.908   2.085  1.00  0.00     0.033 A 
ENDBRANCH  23  25
ENDBRANCH  20  23
ENDBRANCH  17  18
ENDBRANCH   1  17
TORSDOF 5
ENDMDL
MODEL 8
REMARK VINA RESULT:      -9.0      5.719      8.767
REMARK  5 active torsions:
REMARK  status: ('A' for Active; 'I' for Inactive)
REMARK    1  A    between atoms: C_11  and  C_12 
REMARK    2  A    between atoms: C_12  and  S_13 
REMARK    3  A    between atoms: S_13  and  C_14 
REMARK    4  A    between atoms: C_16  and  N_17 
REMARK    5  A    between atoms: N_17  and  C_18 
ROOT
HETATM    1  C   UNL     1      41.741 -14.628   4.171  1.00  0.00     0.121 C 
ENDROOT
BRANCH   1   2
HETATM    2  C   UNL     1      41.939 -15.479   2.939  1.00  0.00    -0.029 A 
HETATM    3  C   UNL     1      42.739 -16.755   3.028  1.00  0.00     0.016 A 
HETATM    4  C   UNL     1      43.429 -17.304   4.190  1.00  0.00    -0.012 A 
HETATM    5  C   UNL     1      42.817 -17.501   1.833  1.00  0.00     0.091 A 
HETATM    6  C   UNL     1      44.109 -18.557   4.048  1.00  0.00    -0.025 A 
HETATM    7  C   UNL     1      43.528 -16.745   5.501  1.00  0.00     0.013 A 
HETATM    8  C   UNL     1      44.790 -19.160   5.120  1.00  0.00     0.012 A 
HETATM    9  C   UNL     1      44.128 -19.236   2.830  1.00  0.00     0.015 A 
HETATM   10  C   UNL     1      44.841 -18.568   6.373  1.00  0.00     0.001 A 
HETATM   11  C   UNL     1      44.210 -17.356   6.564  1.00  0.00     0.001 A 
HETATM   12  C   UNL     1      43.490 -18.713   1.723  1.00  0.00     0.039 A 
HETATM   13  O   UNL     1      42.225 -17.095   0.620  1.00  0.00    -0.275 OA
HETATM   14  C   UNL     1      41.530 -15.918   0.518  1.00  0.00     0.288 A 
HETATM   15  O   UNL     1      41.024 -15.534  -0.528  1.00  0.00    -0.260 OA
HETATM   16  C   UNL     1      41.409 -15.138   1.749  1.00  0.00     0.091 A 
ENDBRANCH   1   2
BRANCH   1  17
HETATM   17  S   UNL     1      40.042 -14.262   4.705  1.00  0.00    -0.096 SA
BRANCH  17  18
HETATM   18  C   UNL     1      40.376 -12.989   5.861  1.00  0.00     0.160 A 
HETATM   19  S   UNL     1      41.915 -12.273   6.057  1.00  0.00    -0.022 SA
HETATM   20  C   UNL     1      41.212 -11.241   7.258  1.00  0.00     0.195 A 
HETATM   21  N   UNL     1      39.932 -11.491   7.450  1.00  0.00    -0.123 NA
HETATM   22  N   UNL     1      39.446 -12.498   6.648  1.00  0.00    -0.133 NA
BRANCH  20  23
HETATM   23  N   UNL     1      41.982 -10.312   7.867  1.00  0.00    -0.331 N 
HETATM   24  H   UNL     1      42.241  -9.487   7.335  1.00  0.00     0.168 HD
BRANCH  23  25
HETATM   25  C   UNL     1      42.457 -10.276   9.195  1.00  0.00     0.073 A 
HETATM   26  C   UNL     1      43.630 -10.988   9.501  1.00  0.00     0.143 A 
HETATM   27  F   UNL     1      44.252 -11.669   8.523  1.00  0.00    -0.204 F 
HETATM   28  C   UNL     1      44.176 -11.013  10.783  1.00  0.00     0.044 A 
HETATM   29  C   UNL     1      43.547 -10.312  11.806  1.00  0.00     0.003 A 
HETATM   30  C   UNL     1      42.381  -9.598  11.535  1.00  0.00     0.002 A 
HETATM   31  C   UNL     1      41.840  -9.582  10.242  1.00  0.00     0.033 A 
ENDBRANCH  23  25
ENDBRANCH  20  23
ENDBRANCH  17  18
ENDBRANCH   1  17
TORSDOF 5
ENDMDL
MODEL 9
REMARK VINA RESULT:      -8.9      4.527      6.735
REMARK  5 active torsions:
REMARK  status: ('A' for Active; 'I' for Inactive)
REMARK    1  A    between atoms: C_11  and  C_12 
REMARK    2  A    between atoms: C_12  and  S_13 
REMARK    3  A    between atoms: S_13  and  C_14 
REMARK    4  A    between atoms: C_16  and  N_17 
REMARK    5  A    between atoms: N_17  and  C_18 
ROOT
HETATM    1  C   UNL     1      43.010 -16.564   4.172  1.00  0.00     0.121 C 
ENDROOT
BRANCH   1   2
HETATM    2  C   UNL     1      43.301 -17.385   5.405  1.00  0.00    -0.029 A 
HETATM    3  C   UNL     1      43.696 -18.835   5.265  1.00  0.00     0.016 A 
HETATM    4  C   UNL     1      43.804 -19.623   4.043  1.00  0.00    -0.012 A 
HETATM    5  C   UNL     1      43.998 -19.495   6.475  1.00  0.00     0.091 A 
HETATM    6  C   UNL     1      44.226 -20.988   4.150  1.00  0.00    -0.025 A 
HETATM    7  C   UNL     1      43.534 -19.211   2.702  1.00  0.00     0.013 A 
HETATM    8  C   UNL     1      44.366 -21.815   3.020  1.00  0.00     0.012 A 
HETATM    9  C   UNL     1      44.517 -21.562   5.387  1.00  0.00     0.015 A 
HETATM   10  C   UNL     1      44.097 -21.349   1.742  1.00  0.00     0.001 A 
HETATM   11  C   UNL     1      43.677 -20.045   1.583  1.00  0.00     0.001 A 
HETATM   12  C   UNL     1      44.400 -20.824   6.549  1.00  0.00     0.039 A 
HETATM   13  O   UNL     1      43.919 -18.880   7.741  1.00  0.00    -0.275 OA
HETATM   14  C   UNL     1      43.524 -17.575   7.882  1.00  0.00     0.288 A 
HETATM   15  O   UNL     1      43.428 -17.024   8.971  1.00  0.00    -0.260 OA
HETATM   16  C   UNL     1      43.231 -16.858   6.641  1.00  0.00     0.091 A 
ENDBRANCH   1   2
BRANCH   1  17
HETATM   17  S   UNL     1      41.283 -16.119   3.816  1.00  0.00    -0.096 SA
BRANCH  17  18
HETATM   18  C   UNL     1      41.315 -14.439   4.312  1.00  0.00     0.160 A 
HETATM   19  S   UNL     1      40.447 -13.835   5.654  1.00  0.00    -0.022 SA
HETATM   20  C   UNL     1      41.134 -12.281   5.318  1.00  0.00     0.195 A 
HETATM   21  N   UNL     1      41.920 -12.294   4.260  1.00  0.00    -0.123 NA
HETATM   22  N   UNL     1      42.027 -13.536   3.677  1.00  0.00    -0.133 NA
BRANCH  20  23
HETATM   23  N   UNL     1      40.831 -11.234   6.120  1.00  0.00    -0.331 N 
HETATM   24  H   UNL     1      40.203 -10.524   5.756  1.00  0.00     0.168 HD
BRANCH  23  25
HETATM   25  C   UNL     1      41.219 -10.989   7.454  1.00  0.00     0.073 A 
HETATM   26  C   UNL     1      40.230 -10.586   8.369  1.00  0.00     0.143 A 
HETATM   27  F   UNL     1      38.963 -10.454   7.942  1.00  0.00    -0.204 F 
HETATM   28  C   UNL     1      40.514 -10.320   9.707  1.00  0.00     0.044 A 
HETATM   29  C   UNL     1      41.821 -10.455  10.167  1.00  0.00     0.003 A 
HETATM   30  C   UNL     1      42.823 -10.851   9.283  1.00  0.00     0.002 A 
HETATM   31  C   UNL     1      42.525 -11.114   7.939  1.00  0.00     0.033 A 
ENDBRANCH  23  25
ENDBRANCH  20  23
ENDBRANCH  17  18
ENDBRANCH   1  17
TORSDOF 5
ENDMDL
MODEL 10
REMARK VINA RESULT:      -8.9      6.345      9.218
REMARK  5 active torsions:
REMARK  status: ('A' for Active; 'I' for Inactive)
REMARK    1  A    between atoms: C_11  and  C_12 
REMARK    2  A    between atoms: C_12  and  S_13 
REMARK    3  A    between atoms: S_13  and  C_14 
REMARK    4  A    between atoms: C_16  and  N_17 
REMARK    5  A    between atoms: N_17  and  C_18 
ROOT
HETATM    1  C   UNL     1      41.055 -11.159   7.379  1.00  0.00     0.121 C 
ENDROOT
BRANCH   1   2
HETATM    2  C   UNL     1      40.744 -10.520   8.711  1.00  0.00    -0.029 A 
HETATM    3  C   UNL     1      41.815 -10.434   9.771  1.00  0.00     0.016 A 
HETATM    4  C   UNL     1      43.179 -10.947   9.713  1.00  0.00    -0.012 A 
HETATM    5  C   UNL     1      41.435  -9.770  10.956  1.00  0.00     0.091 A 
HETATM    6  C   UNL     1      44.037 -10.724  10.839  1.00  0.00    -0.025 A 
HETATM    7  C   UNL     1      43.804 -11.671   8.652  1.00  0.00     0.013 A 
HETATM    8  C   UNL     1      45.368 -11.177  10.861  1.00  0.00     0.012 A 
HETATM    9  C   UNL     1      43.584 -10.047  11.971  1.00  0.00     0.015 A 
HETATM   10  C   UNL     1      45.919 -11.867   9.792  1.00  0.00     0.001 A 
HETATM   11  C   UNL     1      45.134 -12.117   8.686  1.00  0.00     0.001 A 
HETATM   12  C   UNL     1      42.289  -9.574  12.037  1.00  0.00     0.039 A 
HETATM   13  O   UNL     1      40.148  -9.240  11.176  1.00  0.00    -0.275 OA
HETATM   14  C   UNL     1      39.157  -9.346  10.236  1.00  0.00     0.288 A 
HETATM   15  O   UNL     1      38.026  -8.912  10.410  1.00  0.00    -0.260 OA
HETATM   16  C   UNL     1      39.531 -10.006   8.985  1.00  0.00     0.091 A 
ENDBRANCH   1   2
BRANCH   1  17
HETATM   17  S   UNL     1      39.693 -11.922   6.446  1.00  0.00    -0.096 SA
BRANCH  17  18
HETATM   18  C   UNL     1      40.520 -13.345   5.847  1.00  0.00     0.160 A 
HETATM   19  S   UNL     1      42.208 -13.415   5.590  1.00  0.00    -0.022 SA
HETATM   20  C   UNL     1      42.000 -15.065   5.103  1.00  0.00     0.195 A 
HETATM   21  N   UNL     1      40.739 -15.446   5.138  1.00  0.00    -0.123 NA
HETATM   22  N   UNL     1      39.882 -14.458   5.565  1.00  0.00    -0.133 NA
BRANCH  20  23
HETATM   23  N   UNL     1      43.083 -15.793   4.747  1.00  0.00    -0.331 N 
HETATM   24  H   UNL     1      43.902 -15.749   5.345  1.00  0.00     0.168 HD
BRANCH  23  25
HETATM   25  C   UNL     1      43.245 -16.684   3.665  1.00  0.00     0.073 A 
HETATM   26  C   UNL     1      42.939 -18.041   3.871  1.00  0.00     0.143 A 
HETATM   27  F   UNL     1      42.503 -18.434   5.079  1.00  0.00    -0.204 F 
HETATM   28  C   UNL     1      43.067 -18.996   2.864  1.00  0.00     0.044 A 
HETATM   29  C   UNL     1      43.514 -18.606   1.606  1.00  0.00     0.003 A 
HETATM   30  C   UNL     1      43.828 -17.269   1.372  1.00  0.00     0.002 A 
HETATM   31  C   UNL     1      43.696 -16.317   2.393  1.00  0.00     0.033 A 
ENDBRANCH  23  25
ENDBRANCH  20  23
ENDBRANCH  17  18
ENDBRANCH   1  17
TORSDOF 5
ENDMDL
