MODEL 1
REMARK VINA RESULT:      -9.0      0.000      0.000
REMARK  7 active torsions:
REMARK  status: ('A' for Active; 'I' for Inactive)
REMARK    1  A    between atoms: O_2  and  C_3 
REMARK    2  A    between atoms: C_5  and  C_6 
REMARK       I    between atoms: C_6  and  N_7 
REMARK    3  A    between atoms: N_7  and  C_8 
REMARK    4  A    between atoms: C_10  and  C_11 
REMARK    5  A    between atoms: C_11  and  C_12 
REMARK    6  A    between atoms: C_12  and  C_13 
REMARK    7  A    between atoms: C_13  and  C_14 
ROOT
HETATM    1  C   UNL     1      42.300 -14.584   5.816  1.00  0.00     0.725 A 
HETATM    2  N   UNL     1      42.211 -14.585   4.509  1.00  0.00    -0.046 NA
HETATM    3  C   UNL     1      41.398 -15.662   4.249  1.00  0.00     0.165 A 
HETATM    4  N   UNL     1      40.981 -16.329   5.334  1.00  0.00    -0.144 NA
HETATM    5  N   UNL     1      41.567 -15.625   6.317  1.00  0.00    -0.106 N 
HETATM    6  H   UNL     1      41.432 -15.869   7.295  1.00  0.00     0.208 HD
ENDROOT
BRANCH   3   7
HETATM    7  C   UNL     1      40.938 -16.022   2.881  1.00  0.00     0.083 C 
BRANCH   7   8
HETATM    8  C   UNL     1      41.503 -17.345   2.366  1.00  0.00     0.012 C 
BRANCH   8   9
HETATM    9  C   UNL     1      43.031 -17.297   2.334  1.00  0.00     0.041 C 
BRANCH   9  10
HETATM   10  C   UNL     1      43.663 -18.306   3.238  1.00  0.00    -0.030 A 
HETATM   11  C   UNL     1      43.883 -19.693   2.956  1.00  0.00    -0.002 A 
HETATM   12  C   UNL     1      44.474 -20.262   4.084  1.00  0.00     0.042 A 
HETATM   13  C   UNL     1      43.630 -20.521   1.843  1.00  0.00     0.014 A 
HETATM   14  C   UNL     1      44.820 -21.616   4.159  1.00  0.00     0.030 A 
HETATM   15  N   UNL     1      44.614 -19.259   5.014  1.00  0.00    -0.365 N 
HETATM   16  C   UNL     1      44.556 -22.415   3.042  1.00  0.00     0.002 A 
HETATM   17  C   UNL     1      43.971 -21.877   1.898  1.00  0.00     0.001 A 
HETATM   18  H   UNL     1      45.014 -19.384   5.934  1.00  0.00     0.165 HD
HETATM   19  C   UNL     1      44.131 -18.079   4.518  1.00  0.00     0.096 A 
ENDBRANCH   9  10
ENDBRANCH   8   9
ENDBRANCH   7   8
ENDBRANCH   3   7
BRANCH   1  20
HETATM   20  N   UNL     1      43.003 -13.679   6.570  1.00  0.00    -0.152 N 
HETATM   21  C   UNL     1      44.238 -13.989   7.094  1.00  0.00     0.270 C 
HETATM   22  O   UNL     1      44.810 -15.066   6.943  1.00  0.00    -0.267 OA
HETATM   23  H   UNL     1      42.518 -12.821   6.789  1.00  0.00     0.187 HD
BRANCH  21  24
HETATM   24  C   UNL     1      44.865 -12.930   7.924  1.00  0.00     0.035 A 
HETATM   25  C   UNL     1      44.064 -12.247   8.847  1.00  0.00     0.053 A 
HETATM   26  C   UNL     1      44.609 -11.243   9.651  1.00  0.00     0.069 A 
HETATM   27  C   UNL     1      45.964 -10.933   9.534  1.00  0.00     0.037 A 
HETATM   28  C   UNL     1      46.772 -11.625   8.625  1.00  0.00     0.004 A 
HETATM   29  C   UNL     1      46.225 -12.624   7.818  1.00  0.00     0.017 A 
BRANCH  26  30
HETATM   30  O   UNL     1      43.716 -10.644  10.496  1.00  0.00    -0.356 OA
HETATM   31  C   UNL     1      43.616 -11.172  11.812  1.00  0.00     0.210 C 
ENDBRANCH  26  30
ENDBRANCH  21  24
ENDBRANCH   1  20
TORSDOF 7
ENDMDL
MODEL 2
REMARK VINA RESULT:      -8.9      2.317     10.160
REMARK  7 active torsions:
REMARK  status: ('A' for Active; 'I' for Inactive)
REMARK    1  A    between atoms: O_2  and  C_3 
REMARK    2  A    between atoms: C_5  and  C_6 
REMARK       I    between atoms: C_6  and  N_7 
REMARK    3  A    between atoms: N_7  and  C_8 
REMARK    4  A    between atoms: C_10  and  C_11 
REMARK    5  A    between atoms: C_11  and  C_12 
REMARK    6  A    between atoms: C_12  and  C_13 
REMARK    7  A    between atoms: C_13  and  C_14 
ROOT
HETATM    1  C   UNL     1      44.248 -14.926   6.529  1.00  0.00     0.725 A 
HETATM    2  N   UNL     1      45.073 -13.909   6.486  1.00  0.00    -0.046 NA
HETATM    3  C   UNL     1      45.069 -13.446   7.780  1.00  0.00     0.165 A 
HETATM    4  N   UNL     1      44.279 -14.126   8.621  1.00  0.00    -0.144 NA
HETATM    5  N   UNL     1      43.768 -15.063   7.803  1.00  0.00    -0.106 N 
HETATM    6  H   UNL     1      43.125 -15.771   8.147  1.00  0.00     0.208 HD
ENDROOT
BRANCH   3   7
HETATM    7  C   UNL     1      45.934 -12.329   8.246  1.00  0.00     0.083 C 
BRANCH   7   8
HETATM    8  C   UNL     1      45.782 -12.006   9.731  1.00  0.00     0.012 C 
BRANCH   8   9
HETATM    9  C   UNL     1      45.157 -10.623   9.917  1.00  0.00     0.041 C 
BRANCH   9  10
HETATM   10  C   UNL     1      43.707 -10.684  10.279  1.00  0.00    -0.030 A 
HETATM   11  C   UNL     1      43.132 -10.435  11.566  1.00  0.00    -0.002 A 
HETATM   12  C   UNL     1      41.755 -10.629  11.456  1.00  0.00     0.042 A 
HETATM   13  C   UNL     1      43.658 -10.066  12.821  1.00  0.00     0.014 A 
HETATM   14  C   UNL     1      40.878 -10.477  12.536  1.00  0.00     0.030 A 
HETATM   15  N   UNL     1      41.500 -10.975  10.150  1.00  0.00    -0.365 N 
HETATM   16  C   UNL     1      41.426 -10.112  13.769  1.00  0.00     0.002 A 
HETATM   17  C   UNL     1      42.796  -9.907  13.913  1.00  0.00     0.001 A 
HETATM   18  H   UNL     1      40.583 -11.178   9.780  1.00  0.00     0.165 HD
HETATM   19  C   UNL     1      42.665 -11.011   9.432  1.00  0.00     0.096 A 
ENDBRANCH   9  10
ENDBRANCH   8   9
ENDBRANCH   7   8
ENDBRANCH   3   7
BRANCH   1  20
HETATM   20  N   UNL     1      43.923 -15.738   5.473  1.00  0.00    -0.152 N 
HETATM   21  C   UNL     1      43.946 -17.110   5.591  1.00  0.00     0.270 C 
HETATM   22  O   UNL     1      44.249 -17.717   6.615  1.00  0.00    -0.267 OA
HETATM   23  H   UNL     1      43.761 -15.270   4.593  1.00  0.00     0.187 HD
BRANCH  21  24
HETATM   24  C   UNL     1      43.612 -17.864   4.356  1.00  0.00     0.035 A 
HETATM   25  C   UNL     1      44.219 -19.109   4.153  1.00  0.00     0.053 A 
HETATM   26  C   UNL     1      43.935 -19.857   3.007  1.00  0.00     0.069 A 
HETATM   27  C   UNL     1      43.031 -19.356   2.070  1.00  0.00     0.037 A 
HETATM   28  C   UNL     1      42.410 -18.119   2.278  1.00  0.00     0.004 A 
HETATM   29  C   UNL     1      42.698 -17.371   3.420  1.00  0.00     0.017 A 
BRANCH  26  30
HETATM   30  O   UNL     1      44.607 -21.045   2.923  1.00  0.00    -0.356 OA
HETATM   31  C   UNL     1      44.298 -21.886   1.820  1.00  0.00     0.210 C 
ENDBRANCH  26  30
ENDBRANCH  21  24
ENDBRANCH   1  20
TORSDOF 7
ENDMDL
MODEL 3
REMARK VINA RESULT:      -8.8      3.780      6.980
REMARK  7 active torsions:
REMARK  status: ('A' for Active; 'I' for Inactive)
REMARK    1  A    between atoms: O_2  and  C_3 
REMARK    2  A    between atoms: C_5  and  C_6 
REMARK       I    between atoms: C_6  and  N_7 
REMARK    3  A    between atoms: N_7  and  C_8 
REMARK    4  A    between atoms: C_10  and  C_11 
REMARK    5  A    between atoms: C_11  and  C_12 
REMARK    6  A    between atoms: C_12  and  C_13 
REMARK    7  A    between atoms: C_13  and  C_14 
ROOT
HETATM    1  C   UNL     1      40.920 -15.870   4.960  1.00  0.00     0.725 A 
HETATM    2  N   UNL     1      42.087 -15.537   5.453  1.00  0.00    -0.046 NA
HETATM    3  C   UNL     1      42.223 -16.378   6.533  1.00  0.00     0.165 A 
HETATM    4  N   UNL     1      41.195 -17.213   6.731  1.00  0.00    -0.144 NA
HETATM    5  N   UNL     1      40.379 -16.872   5.718  1.00  0.00    -0.106 N 
HETATM    6  H   UNL     1      39.493 -17.347   5.571  1.00  0.00     0.208 HD
ENDROOT
BRANCH   3   7
HETATM    7  C   UNL     1      43.448 -16.427   7.375  1.00  0.00     0.083 C 
BRANCH   7   8
HETATM    8  C   UNL     1      44.700 -16.871   6.621  1.00  0.00     0.012 C 
BRANCH   8   9
HETATM    9  C   UNL     1      44.698 -18.388   6.428  1.00  0.00     0.041 C 
BRANCH   9  10
HETATM   10  C   UNL     1      44.416 -18.793   5.016  1.00  0.00    -0.030 A 
HETATM   11  C   UNL     1      44.482 -20.116   4.473  1.00  0.00    -0.002 A 
HETATM   12  C   UNL     1      44.168 -20.030   3.117  1.00  0.00     0.042 A 
HETATM   13  C   UNL     1      44.787 -21.384   5.010  1.00  0.00     0.014 A 
HETATM   14  C   UNL     1      44.146 -21.144   2.270  1.00  0.00     0.030 A 
HETATM   15  N   UNL     1      43.913 -18.706   2.846  1.00  0.00    -0.365 N 
HETATM   16  C   UNL     1      44.453 -22.388   2.828  1.00  0.00     0.002 A 
HETATM   17  C   UNL     1      44.768 -22.510   4.179  1.00  0.00     0.001 A 
HETATM   18  H   UNL     1      43.659 -18.346   1.937  1.00  0.00     0.165 HD
HETATM   19  C   UNL     1      44.058 -17.953   3.980  1.00  0.00     0.096 A 
ENDBRANCH   9  10
ENDBRANCH   8   9
ENDBRANCH   7   8
ENDBRANCH   3   7
BRANCH   1  20
HETATM   20  N   UNL     1      40.333 -15.317   3.850  1.00  0.00    -0.152 N 
HETATM   21  C   UNL     1      40.507 -15.866   2.599  1.00  0.00     0.270 C 
HETATM   22  O   UNL     1      41.178 -16.867   2.364  1.00  0.00    -0.267 OA
HETATM   23  H   UNL     1      39.854 -14.441   3.999  1.00  0.00     0.187 HD
BRANCH  21  24
HETATM   24  C   UNL     1      39.848 -15.140   1.485  1.00  0.00     0.035 A 
HETATM   25  C   UNL     1      40.556 -14.974   0.289  1.00  0.00     0.053 A 
HETATM   26  C   UNL     1      39.978 -14.298  -0.789  1.00  0.00     0.069 A 
HETATM   27  C   UNL     1      38.681 -13.798  -0.667  1.00  0.00     0.037 A 
HETATM   28  C   UNL     1      37.964 -13.977   0.521  1.00  0.00     0.004 A 
HETATM   29  C   UNL     1      38.544 -14.647   1.599  1.00  0.00     0.017 A 
BRANCH  26  30
HETATM   30  O   UNL     1      40.782 -14.191  -1.890  1.00  0.00    -0.356 OA
HETATM   31  C   UNL     1      40.179 -14.421  -3.157  1.00  0.00     0.210 C 
ENDBRANCH  26  30
ENDBRANCH  21  24
ENDBRANCH   1  20
TORSDOF 7
ENDMDL
MODEL 4
REMARK VINA RESULT:      -8.7      4.158      7.616
REMARK  7 active torsions:
REMARK  status: ('A' for Active; 'I' for Inactive)
REMARK    1  A    between atoms: O_2  and  C_3 
REMARK    2  A    between atoms: C_5  and  C_6 
REMARK       I    between atoms: C_6  and  N_7 
REMARK    3  A    between atoms: N_7  and  C_8 
REMARK    4  A    between atoms: C_10  and  C_11 
REMARK    5  A    between atoms: C_11  and  C_12 
REMARK    6  A    between atoms: C_12  and  C_13 
REMARK    7  A    between atoms: C_13  and  C_14 
ROOT
HETATM    1  C   UNL     1      41.664 -16.961   1.047  1.00  0.00     0.725 A 
HETATM    2  N   UNL     1      40.677 -16.243   1.525  1.00  0.00    -0.046 NA
HETATM    3  C   UNL     1      40.585 -15.202   0.632  1.00  0.00     0.165 A 
HETATM    4  N   UNL     1      41.470 -15.240  -0.373  1.00  0.00    -0.144 NA
HETATM    5  N   UNL     1      42.144 -16.367  -0.089  1.00  0.00    -0.106 N 
HETATM    6  H   UNL     1      42.894 -16.700  -0.688  1.00  0.00     0.208 HD
ENDROOT
BRANCH   3   7
HETATM    7  C   UNL     1      39.536 -14.151   0.715  1.00  0.00     0.083 C 
BRANCH   7   8
HETATM    8  C   UNL     1      39.050 -13.871   2.136  1.00  0.00     0.012 C 
BRANCH   8   9
HETATM    9  C   UNL     1      40.156 -13.208   2.958  1.00  0.00     0.041 C 
BRANCH   9  10
HETATM   10  C   UNL     1      40.397 -13.890   4.266  1.00  0.00    -0.030 A 
HETATM   11  C   UNL     1      41.510 -14.723   4.609  1.00  0.00    -0.002 A 
HETATM   12  C   UNL     1      41.316 -15.167   5.916  1.00  0.00     0.042 A 
HETATM   13  C   UNL     1      42.668 -15.145   3.923  1.00  0.00     0.014 A 
HETATM   14  C   UNL     1      42.217 -16.015   6.572  1.00  0.00     0.030 A 
HETATM   15  N   UNL     1      40.133 -14.621   6.356  1.00  0.00    -0.365 N 
HETATM   16  C   UNL     1      43.355 -16.419   5.868  1.00  0.00     0.002 A 
HETATM   17  C   UNL     1      43.581 -15.991   4.563  1.00  0.00     0.001 A 
HETATM   18  H   UNL     1      39.739 -14.773   7.273  1.00  0.00     0.165 HD
HETATM   19  C   UNL     1      39.572 -13.851   5.374  1.00  0.00     0.096 A 
ENDBRANCH   9  10
ENDBRANCH   8   9
ENDBRANCH   7   8
ENDBRANCH   3   7
BRANCH   1  20
HETATM   20  N   UNL     1      42.137 -18.130   1.586  1.00  0.00    -0.152 N 
HETATM   21  C   UNL     1      43.485 -18.334   1.782  1.00  0.00     0.270 C 
HETATM   22  O   UNL     1      44.361 -17.521   1.504  1.00  0.00    -0.267 OA
HETATM   23  H   UNL     1      41.448 -18.853   1.737  1.00  0.00     0.187 HD
BRANCH  21  24
HETATM   24  C   UNL     1      43.857 -19.661   2.334  1.00  0.00     0.035 A 
HETATM   25  C   UNL     1      44.146 -19.754   3.701  1.00  0.00     0.053 A 
HETATM   26  C   UNL     1      44.500 -20.981   4.268  1.00  0.00     0.069 A 
HETATM   27  C   UNL     1      44.553 -22.118   3.461  1.00  0.00     0.037 A 
HETATM   28  C   UNL     1      44.248 -22.032   2.098  1.00  0.00     0.004 A 
HETATM   29  C   UNL     1      43.900 -20.805   1.531  1.00  0.00     0.017 A 
BRANCH  26  30
HETATM   30  O   UNL     1      44.773 -20.931   5.607  1.00  0.00    -0.356 OA
HETATM   31  C   UNL     1      43.956 -20.083   6.403  1.00  0.00     0.210 C 
ENDBRANCH  26  30
ENDBRANCH  21  24
ENDBRANCH   1  20
TORSDOF 7
ENDMDL
MODEL 5
REMARK VINA RESULT:      -8.5      4.462      7.920
REMARK  7 active torsions:
REMARK  status: ('A' for Active; 'I' for Inactive)
REMARK    1  A    between atoms: O_2  and  C_3 
REMARK    2  A    between atoms: C_5  and  C_6 
REMARK       I    between atoms: C_6  and  N_7 
REMARK    3  A    between atoms: N_7  and  C_8 
REMARK    4  A    between atoms: C_10  and  C_11 
REMARK    5  A    between atoms: C_11  and  C_12 
REMARK    6  A    between atoms: C_12  and  C_13 
REMARK    7  A    between atoms: C_13  and  C_14 
ROOT
HETATM    1  C   UNL     1      40.649 -16.154   2.744  1.00  0.00     0.725 A 
HETATM    2  N   UNL     1      40.746 -14.852   2.860  1.00  0.00    -0.046 NA
HETATM    3  C   UNL     1      39.579 -14.398   2.293  1.00  0.00     0.165 A 
HETATM    4  N   UNL     1      38.766 -15.357   1.830  1.00  0.00    -0.144 NA
HETATM    5  N   UNL     1      39.466 -16.464   2.129  1.00  0.00    -0.106 N 
HETATM    6  H   UNL     1      39.106 -17.390   1.918  1.00  0.00     0.208 HD
ENDROOT
BRANCH   3   7
HETATM    7  C   UNL     1      39.195 -12.961   2.264  1.00  0.00     0.083 C 
BRANCH   7   8
HETATM    8  C   UNL     1      38.546 -12.520   0.954  1.00  0.00     0.012 C 
BRANCH   8   9
HETATM    9  C   UNL     1      39.608 -12.031  -0.031  1.00  0.00     0.041 C 
BRANCH   9  10
HETATM   10  C   UNL     1      40.265 -13.147  -0.779  1.00  0.00    -0.030 A 
HETATM   11  C   UNL     1      39.679 -13.956  -1.804  1.00  0.00    -0.002 A 
HETATM   12  C   UNL     1      40.637 -14.888  -2.204  1.00  0.00     0.042 A 
HETATM   13  C   UNL     1      38.415 -13.986  -2.429  1.00  0.00     0.014 A 
HETATM   14  C   UNL     1      40.396 -15.849  -3.192  1.00  0.00     0.030 A 
HETATM   15  N   UNL     1      41.766 -14.650  -1.455  1.00  0.00    -0.365 N 
HETATM   16  C   UNL     1      39.134 -15.858  -3.793  1.00  0.00     0.002 A 
HETATM   17  C   UNL     1      38.156 -14.939  -3.421  1.00  0.00     0.001 A 
HETATM   18  H   UNL     1      42.624 -15.177  -1.531  1.00  0.00     0.165 HD
HETATM   19  C   UNL     1      41.555 -13.606  -0.596  1.00  0.00     0.096 A 
ENDBRANCH   9  10
ENDBRANCH   8   9
ENDBRANCH   7   8
ENDBRANCH   3   7
BRANCH   1  20
HETATM   20  N   UNL     1      41.574 -17.068   3.181  1.00  0.00    -0.152 N 
HETATM   21  C   UNL     1      42.323 -17.808   2.294  1.00  0.00     0.270 C 
HETATM   22  O   UNL     1      42.240 -17.725   1.071  1.00  0.00    -0.267 OA
HETATM   23  H   UNL     1      41.598 -17.225   4.178  1.00  0.00     0.187 HD
BRANCH  21  24
HETATM   24  C   UNL     1      43.256 -18.788   2.906  1.00  0.00     0.035 A 
HETATM   25  C   UNL     1      43.571 -18.648   4.262  1.00  0.00     0.053 A 
HETATM   26  C   UNL     1      44.443 -19.545   4.884  1.00  0.00     0.069 A 
HETATM   27  C   UNL     1      44.990 -20.593   4.141  1.00  0.00     0.037 A 
HETATM   28  C   UNL     1      44.663 -20.746   2.789  1.00  0.00     0.004 A 
HETATM   29  C   UNL     1      43.797 -19.845   2.168  1.00  0.00     0.017 A 
BRANCH  26  30
HETATM   30  O   UNL     1      44.680 -19.286   6.205  1.00  0.00    -0.356 OA
HETATM   31  C   UNL     1      45.191 -18.000   6.530  1.00  0.00     0.210 C 
ENDBRANCH  26  30
ENDBRANCH  21  24
ENDBRANCH   1  20
TORSDOF 7
ENDMDL
MODEL 6
REMARK VINA RESULT:      -8.4      1.826      2.968
REMARK  7 active torsions:
REMARK  status: ('A' for Active; 'I' for Inactive)
REMARK    1  A    between atoms: O_2  and  C_3 
REMARK    2  A    between atoms: C_5  and  C_6 
REMARK       I    between atoms: C_6  and  N_7 
REMARK    3  A    between atoms: N_7  and  C_8 
REMARK    4  A    between atoms: C_10  and  C_11 
REMARK    5  A    between atoms: C_11  and  C_12 
REMARK    6  A    between atoms: C_12  and  C_13 
REMARK    7  A    between atoms: C_13  and  C_14 
ROOT
HETATM    1  C   UNL     1      43.666 -12.961   7.348  1.00  0.00     0.725 A 
HETATM    2  N   UNL     1      43.060 -13.102   6.195  1.00  0.00    -0.046 NA
HETATM    3  C   UNL     1      43.755 -14.127   5.597  1.00  0.00     0.165 A 
HETATM    4  N   UNL     1      44.764 -14.624   6.325  1.00  0.00    -0.144 NA
HETATM    5  N   UNL     1      44.687 -13.869   7.434  1.00  0.00    -0.106 N 
HETATM    6  H   UNL     1      45.322 -14.011   8.214  1.00  0.00     0.208 HD
ENDROOT
BRANCH   3   7
HETATM    7  C   UNL     1      43.376 -14.705   4.281  1.00  0.00     0.083 C 
BRANCH   7   8
HETATM    8  C   UNL     1      42.741 -16.092   4.374  1.00  0.00     0.012 C 
BRANCH   8   9
HETATM    9  C   UNL     1      43.350 -17.030   3.331  1.00  0.00     0.041 C 
BRANCH   9  10
HETATM   10  C   UNL     1      43.924 -18.272   3.933  1.00  0.00    -0.030 A 
HETATM   11  C   UNL     1      43.997 -19.567   3.326  1.00  0.00    -0.002 A 
HETATM   12  C   UNL     1      44.582 -20.432   4.250  1.00  0.00     0.042 A 
HETATM   13  C   UNL     1      43.613 -20.086   2.072  1.00  0.00     0.014 A 
HETATM   14  C   UNL     1      44.800 -21.790   3.987  1.00  0.00     0.030 A 
HETATM   15  N   UNL     1      44.862 -19.692   5.374  1.00  0.00    -0.365 N 
HETATM   16  C   UNL     1      44.408 -22.278   2.737  1.00  0.00     0.002 A 
HETATM   17  C   UNL     1      43.825 -21.441   1.790  1.00  0.00     0.001 A 
HETATM   18  H   UNL     1      45.291 -20.061   6.210  1.00  0.00     0.165 HD
HETATM   19  C   UNL     1      44.472 -18.392   5.196  1.00  0.00     0.096 A 
ENDBRANCH   9  10
ENDBRANCH   8   9
ENDBRANCH   7   8
ENDBRANCH   3   7
BRANCH   1  20
HETATM   20  N   UNL     1      43.329 -12.060   8.325  1.00  0.00    -0.152 N 
HETATM   21  C   UNL     1      44.042 -11.977   9.500  1.00  0.00     0.270 C 
HETATM   22  O   UNL     1      45.014 -12.675   9.777  1.00  0.00    -0.267 OA
HETATM   23  H   UNL     1      42.479 -11.539   8.166  1.00  0.00     0.187 HD
BRANCH  21  24
HETATM   24  C   UNL     1      43.540 -10.986  10.485  1.00  0.00     0.035 A 
HETATM   25  C   UNL     1      42.338 -10.324  10.207  1.00  0.00     0.053 A 
HETATM   26  C   UNL     1      41.824  -9.383  11.104  1.00  0.00     0.069 A 
HETATM   27  C   UNL     1      42.514  -9.116  12.286  1.00  0.00     0.037 A 
HETATM   28  C   UNL     1      43.707  -9.789  12.575  1.00  0.00     0.004 A 
HETATM   29  C   UNL     1      44.223 -10.724  11.676  1.00  0.00     0.017 A 
BRANCH  26  30
HETATM   30  O   UNL     1      40.654  -8.797  10.705  1.00  0.00    -0.356 OA
HETATM   31  C   UNL     1      40.118  -9.209   9.454  1.00  0.00     0.210 C 
ENDBRANCH  26  30
ENDBRANCH  21  24
ENDBRANCH   1  20
TORSDOF 7
ENDMDL
MODEL 7
REMARK VINA RESULT:      -8.4      2.611      4.847
REMARK  7 active torsions:
REMARK  status: ('A' for Active; 'I' for Inactive)
REMARK    1  A    between atoms: O_2  and  C_3 
REMARK    2  A    between atoms: C_5  and  C_6 
REMARK       I    between atoms: C_6  and  N_7 
REMARK    3  A    between atoms: N_7  and  C_8 
REMARK    4  A    between atoms: C_10  and  C_11 
REMARK    5  A    between atoms: C_11  and  C_12 
REMARK    6  A    between atoms: C_12  and  C_13 
REMARK    7  A    between atoms: C_13  and  C_14 
ROOT
HETATM    1  C   UNL     1      44.437 -11.766   9.204  1.00  0.00     0.725 A 
HETATM    2  N   UNL     1      43.936 -12.568   8.297  1.00  0.00    -0.046 NA
HETATM    3  C   UNL     1      45.053 -13.074   7.675  1.00  0.00     0.165 A 
HETATM    4  N   UNL     1      46.220 -12.622   8.153  1.00  0.00    -0.144 NA
HETATM    5  N   UNL     1      45.803 -11.793   9.125  1.00  0.00    -0.106 N 
HETATM    6  H   UNL     1      46.464 -11.288   9.709  1.00  0.00     0.208 HD
ENDROOT
BRANCH   3   7
HETATM    7  C   UNL     1      44.990 -14.109   6.608  1.00  0.00     0.083 C 
BRANCH   7   8
HETATM    8  C   UNL     1      44.348 -15.421   7.056  1.00  0.00     0.012 C 
BRANCH   8   9
HETATM    9  C   UNL     1      43.578 -16.061   5.900  1.00  0.00     0.041 C 
BRANCH   9  10
HETATM   10  C   UNL     1      43.956 -17.490   5.671  1.00  0.00    -0.030 A 
HETATM   11  C   UNL     1      43.983 -18.180   4.417  1.00  0.00    -0.002 A 
HETATM   12  C   UNL     1      44.368 -19.497   4.671  1.00  0.00     0.042 A 
HETATM   13  C   UNL     1      43.710 -17.807   3.085  1.00  0.00     0.014 A 
HETATM   14  C   UNL     1      44.490 -20.460   3.662  1.00  0.00     0.030 A 
HETATM   15  N   UNL     1      44.575 -19.602   6.026  1.00  0.00    -0.365 N 
HETATM   16  C   UNL     1      44.211 -20.064   2.351  1.00  0.00     0.002 A 
HETATM   17  C   UNL     1      43.828 -18.756   2.063  1.00  0.00     0.001 A 
HETATM   18  H   UNL     1      44.862 -20.448   6.497  1.00  0.00     0.165 HD
HETATM   19  C   UNL     1      44.332 -18.402   6.638  1.00  0.00     0.096 A 
ENDBRANCH   9  10
ENDBRANCH   8   9
ENDBRANCH   7   8
ENDBRANCH   3   7
BRANCH   1  20
HETATM   20  N   UNL     1      43.714 -11.026  10.104  1.00  0.00    -0.152 N 
HETATM   21  C   UNL     1      43.589 -11.418  11.418  1.00  0.00     0.270 C 
HETATM   22  O   UNL     1      44.094 -12.430  11.895  1.00  0.00    -0.267 OA
HETATM   23  H   UNL     1      43.210 -10.239   9.720  1.00  0.00     0.187 HD
BRANCH  21  24
HETATM   24  C   UNL     1      42.743 -10.543  12.270  1.00  0.00     0.035 A 
HETATM   25  C   UNL     1      41.392 -10.397  11.936  1.00  0.00     0.053 A 
HETATM   26  C   UNL     1      40.556  -9.585  12.707  1.00  0.00     0.069 A 
HETATM   27  C   UNL     1      41.078  -8.929  13.822  1.00  0.00     0.037 A 
HETATM   28  C   UNL     1      42.425  -9.086  14.168  1.00  0.00     0.004 A 
HETATM   29  C   UNL     1      43.260  -9.892  13.394  1.00  0.00     0.017 A 
BRANCH  26  30
HETATM   30  O   UNL     1      39.264  -9.515  12.264  1.00  0.00    -0.356 OA
HETATM   31  C   UNL     1      38.448  -8.485  12.806  1.00  0.00     0.210 C 
ENDBRANCH  26  30
ENDBRANCH  21  24
ENDBRANCH   1  20
TORSDOF 7
ENDMDL
MODEL 8
REMARK VINA RESULT:      -8.2      5.403      7.581
REMARK  7 active torsions:
REMARK  status: ('A' for Active; 'I' for Inactive)
REMARK    1  A    between atoms: O_2  and  C_3 
REMARK    2  A    between atoms: C_5  and  C_6 
REMARK       I    between atoms: C_6  and  N_7 
REMARK    3  A    between atoms: N_7  and  C_8 
REMARK    4  A    between atoms: C_10  and  C_11 
REMARK    5  A    between atoms: C_11  and  C_12 
REMARK    6  A    between atoms: C_12  and  C_13 
REMARK    7  A    between atoms: C_13  and  C_14 
ROOT
HETATM    1  C   UNL     1      41.627 -14.814   0.007  1.00  0.00     0.725 A 
HETATM    2  N   UNL     1      41.206 -14.932   1.242  1.00  0.00    -0.046 NA
HETATM    3  C   UNL     1      41.207 -16.292   1.444  1.00  0.00     0.165 A 
HETATM    4  N   UNL     1      41.606 -17.020   0.393  1.00  0.00    -0.144 NA
HETATM    5  N   UNL     1      41.869 -16.058  -0.508  1.00  0.00    -0.106 N 
HETATM    6  H   UNL     1      42.219 -16.284  -1.435  1.00  0.00     0.208 HD
ENDROOT
BRANCH   3   7
HETATM    7  C   UNL     1      40.873 -16.919   2.752  1.00  0.00     0.083 C 
BRANCH   7   8
HETATM    8  C   UNL     1      41.846 -16.564   3.875  1.00  0.00     0.012 C 
BRANCH   8   9
HETATM    9  C   UNL     1      43.289 -16.803   3.428  1.00  0.00     0.041 C 
BRANCH   9  10
HETATM   10  C   UNL     1      43.868 -18.064   3.985  1.00  0.00    -0.030 A 
HETATM   11  C   UNL     1      43.929 -19.340   3.337  1.00  0.00    -0.002 A 
HETATM   12  C   UNL     1      44.524 -20.234   4.227  1.00  0.00     0.042 A 
HETATM   13  C   UNL     1      43.527 -19.819   2.073  1.00  0.00     0.014 A 
HETATM   14  C   UNL     1      44.735 -21.584   3.920  1.00  0.00     0.030 A 
HETATM   15  N   UNL     1      44.821 -19.529   5.369  1.00  0.00    -0.365 N 
HETATM   16  C   UNL     1      44.326 -22.033   2.661  1.00  0.00     0.002 A 
HETATM   17  C   UNL     1      43.732 -21.166   1.748  1.00  0.00     0.001 A 
HETATM   18  H   UNL     1      45.259 -19.924   6.188  1.00  0.00     0.165 HD
HETATM   19  C   UNL     1      44.432 -18.223   5.236  1.00  0.00     0.096 A 
ENDBRANCH   9  10
ENDBRANCH   8   9
ENDBRANCH   7   8
ENDBRANCH   3   7
BRANCH   1  20
HETATM   20  N   UNL     1      41.813 -13.632  -0.665  1.00  0.00    -0.152 N 
HETATM   21  C   UNL     1      41.669 -13.556  -2.033  1.00  0.00     0.270 C 
HETATM   22  O   UNL     1      41.371 -14.502  -2.756  1.00  0.00    -0.267 OA
HETATM   23  H   UNL     1      42.150 -12.860  -0.108  1.00  0.00     0.187 HD
BRANCH  21  24
HETATM   24  C   UNL     1      41.940 -12.224  -2.631  1.00  0.00     0.035 A 
HETATM   25  C   UNL     1      42.081 -11.127  -1.774  1.00  0.00     0.053 A 
HETATM   26  C   UNL     1      42.337  -9.854  -2.289  1.00  0.00     0.069 A 
HETATM   27  C   UNL     1      42.464  -9.687  -3.669  1.00  0.00     0.037 A 
HETATM   28  C   UNL     1      42.341 -10.785  -4.527  1.00  0.00     0.004 A 
HETATM   29  C   UNL     1      42.079 -12.055  -4.012  1.00  0.00     0.017 A 
BRANCH  26  30
HETATM   30  O   UNL     1      42.434  -8.868  -1.347  1.00  0.00    -0.356 OA
HETATM   31  C   UNL     1      43.402  -9.046  -0.321  1.00  0.00     0.210 C 
ENDBRANCH  26  30
ENDBRANCH  21  24
ENDBRANCH   1  20
TORSDOF 7
ENDMDL
MODEL 9
REMARK VINA RESULT:      -8.0      1.924      2.780
REMARK  7 active torsions:
REMARK  status: ('A' for Active; 'I' for Inactive)
REMARK    1  A    between atoms: O_2  and  C_3 
REMARK    2  A    between atoms: C_5  and  C_6 
REMARK       I    between atoms: C_6  and  N_7 
REMARK    3  A    between atoms: N_7  and  C_8 
REMARK    4  A    between atoms: C_10  and  C_11 
REMARK    5  A    between atoms: C_11  and  C_12 
REMARK    6  A    between atoms: C_12  and  C_13 
REMARK    7  A    between atoms: C_13  and  C_14 
ROOT
HETATM    1  C   UNL     1      42.202 -12.858   5.442  1.00  0.00     0.725 A 
HETATM    2  N   UNL     1      42.107 -14.140   5.188  1.00  0.00    -0.046 NA
HETATM    3  C   UNL     1      42.008 -14.182   3.818  1.00  0.00     0.165 A 
HETATM    4  N   UNL     1      42.036 -12.988   3.212  1.00  0.00    -0.144 NA
HETATM    5  N   UNL     1      42.161 -12.161   4.265  1.00  0.00    -0.106 N 
HETATM    6  H   UNL     1      42.230 -11.155   4.141  1.00  0.00     0.208 HD
ENDROOT
BRANCH   3   7
HETATM    7  C   UNL     1      41.959 -15.453   3.046  1.00  0.00     0.083 C 
BRANCH   7   8
HETATM    8  C   UNL     1      43.334 -16.031   2.717  1.00  0.00     0.012 C 
BRANCH   8   9
HETATM    9  C   UNL     1      43.209 -17.488   2.269  1.00  0.00     0.041 C 
BRANCH   9  10
HETATM   10  C   UNL     1      43.778 -18.451   3.261  1.00  0.00    -0.030 A 
HETATM   11  C   UNL     1      44.008 -19.851   3.065  1.00  0.00    -0.002 A 
HETATM   12  C   UNL     1      44.524 -20.363   4.255  1.00  0.00     0.042 A 
HETATM   13  C   UNL     1      43.819 -20.734   1.981  1.00  0.00     0.014 A 
HETATM   14  C   UNL     1      44.857 -21.712   4.420  1.00  0.00     0.030 A 
HETATM   15  N   UNL     1      44.612 -19.314   5.140  1.00  0.00    -0.365 N 
HETATM   16  C   UNL     1      44.659 -22.566   3.331  1.00  0.00     0.002 A 
HETATM   17  C   UNL     1      44.149 -22.087   2.127  1.00  0.00     0.001 A 
HETATM   18  H   UNL     1      44.953 -19.392   6.087  1.00  0.00     0.165 HD
HETATM   19  C   UNL     1      44.167 -18.160   4.555  1.00  0.00     0.096 A 
ENDBRANCH   9  10
ENDBRANCH   8   9
ENDBRANCH   7   8
ENDBRANCH   3   7
BRANCH   1  20
HETATM   20  N   UNL     1      42.337 -12.296   6.686  1.00  0.00    -0.152 N 
HETATM   21  C   UNL     1      41.659 -11.148   7.031  1.00  0.00     0.270 C 
HETATM   22  O   UNL     1      40.895 -10.539   6.287  1.00  0.00    -0.267 OA
HETATM   23  H   UNL     1      43.029 -12.722   7.286  1.00  0.00     0.187 HD
BRANCH  21  24
HETATM   24  C   UNL     1      41.931 -10.630   8.395  1.00  0.00     0.035 A 
HETATM   25  C   UNL     1      43.135 -10.987   9.014  1.00  0.00     0.053 A 
HETATM   26  C   UNL     1      43.437 -10.523  10.297  1.00  0.00     0.069 A 
HETATM   27  C   UNL     1      42.532  -9.689  10.954  1.00  0.00     0.037 A 
HETATM   28  C   UNL     1      41.335  -9.316  10.331  1.00  0.00     0.004 A 
HETATM   29  C   UNL     1      41.032  -9.785   9.052  1.00  0.00     0.017 A 
BRANCH  26  30
HETATM   30  O   UNL     1      44.635 -10.960  10.792  1.00  0.00    -0.356 OA
HETATM   31  C   UNL     1      45.251 -12.054  10.124  1.00  0.00     0.210 C 
ENDBRANCH  26  30
ENDBRANCH  21  24
ENDBRANCH   1  20
TORSDOF 7
ENDMDL
MODEL 10
REMARK VINA RESULT:      -7.9      3.097      9.496
REMARK  7 active torsions:
REMARK  status: ('A' for Active; 'I' for Inactive)
REMARK    1  A    between atoms: O_2  and  C_3 
REMARK    2  A    between atoms: C_5  and  C_6 
REMARK       I    between atoms: C_6  and  N_7 
REMARK    3  A    between atoms: N_7  and  C_8 
REMARK    4  A    between atoms: C_10  and  C_11 
REMARK    5  A    between atoms: C_11  and  C_12 
REMARK    6  A    between atoms: C_12  and  C_13 
REMARK    7  A    between atoms: C_13  and  C_14 
ROOT
HETATM    1  C   UNL     1      41.568 -15.274   4.967  1.00  0.00     0.725 A 
HETATM    2  N   UNL     1      42.095 -14.079   5.078  1.00  0.00    -0.046 NA
HETATM    3  C   UNL     1      41.023 -13.293   5.426  1.00  0.00     0.165 A 
HETATM    4  N   UNL     1      39.857 -13.944   5.534  1.00  0.00    -0.144 NA
HETATM    5  N   UNL     1      40.228 -15.201   5.239  1.00  0.00    -0.106 N 
HETATM    6  H   UNL     1      39.559 -15.966   5.250  1.00  0.00     0.208 HD
ENDROOT
BRANCH   3   7
HETATM    7  C   UNL     1      41.146 -11.845   5.744  1.00  0.00     0.083 C 
BRANCH   7   8
HETATM    8  C   UNL     1      40.273 -11.392   6.913  1.00  0.00     0.012 C 
BRANCH   8   9
HETATM    9  C   UNL     1      41.046 -10.428   7.815  1.00  0.00     0.041 C 
BRANCH   9  10
HETATM   10  C   UNL     1      40.836 -10.700   9.270  1.00  0.00    -0.030 A 
HETATM   11  C   UNL     1      41.815 -10.607  10.311  1.00  0.00    -0.002 A 
HETATM   12  C   UNL     1      41.195 -10.972  11.505  1.00  0.00     0.042 A 
HETATM   13  C   UNL     1      43.179 -10.249  10.346  1.00  0.00     0.014 A 
HETATM   14  C   UNL     1      41.868 -11.001  12.733  1.00  0.00     0.030 A 
HETATM   15  N   UNL     1      39.886 -11.268  11.205  1.00  0.00    -0.365 N 
HETATM   16  C   UNL     1      43.219 -10.644  12.739  1.00  0.00     0.002 A 
HETATM   17  C   UNL     1      43.868 -10.270  11.565  1.00  0.00     0.001 A 
HETATM   18  H   UNL     1      39.198 -11.566  11.881  1.00  0.00     0.165 HD
HETATM   19  C   UNL     1      39.658 -11.108   9.865  1.00  0.00     0.096 A 
ENDBRANCH   9  10
ENDBRANCH   8   9
ENDBRANCH   7   8
ENDBRANCH   3   7
BRANCH   1  20
HETATM   20  N   UNL     1      42.246 -16.422   4.646  1.00  0.00    -0.152 N 
HETATM   21  C   UNL     1      42.058 -17.049   3.434  1.00  0.00     0.270 C 
HETATM   22  O   UNL     1      41.293 -16.657   2.557  1.00  0.00    -0.267 OA
HETATM   23  H   UNL     1      42.810 -16.819   5.383  1.00  0.00     0.187 HD
BRANCH  21  24
HETATM   24  C   UNL     1      42.826 -18.304   3.237  1.00  0.00     0.035 A 
HETATM   25  C   UNL     1      43.450 -18.883   4.349  1.00  0.00     0.053 A 
HETATM   26  C   UNL     1      44.183 -20.064   4.215  1.00  0.00     0.069 A 
HETATM   27  C   UNL     1      44.281 -20.671   2.962  1.00  0.00     0.037 A 
HETATM   28  C   UNL     1      43.645 -20.104   1.851  1.00  0.00     0.004 A 
HETATM   29  C   UNL     1      42.916 -18.921   1.986  1.00  0.00     0.017 A 
BRANCH  26  30
HETATM   30  O   UNL     1      44.755 -20.513   5.373  1.00  0.00    -0.356 OA
HETATM   31  C   UNL     1      44.056 -20.253   6.583  1.00  0.00     0.210 C 
ENDBRANCH  26  30
ENDBRANCH  21  24
ENDBRANCH   1  20
TORSDOF 7
ENDMDL
