MODEL 1
REMARK VINA RESULT:      -7.9      0.000      0.000
REMARK  5 active torsions:
REMARK  status: ('A' for Active; 'I' for Inactive)
REMARK    1  A    between atoms: C_7  and  C_8 
REMARK    2  A    between atoms: N_9  and  C_10 
REMARK    3  A    between atoms: C_10  and  C_11 
REMARK       I    between atoms: C_11  and  N_12 
REMARK    4  A    between atoms: N_12  and  C_13 
REMARK    5  A    between atoms: C_13  and  C_14 
ROOT
HETATM    1  C   UNL     1      40.847 -16.444   3.460  1.00  0.00     0.158 A 
HETATM    2  N   UNL     1      41.240 -16.288   4.849  1.00  0.00    -0.326 N 
HETATM    3  C   UNL     1      42.435 -16.919   5.140  1.00  0.00     0.255 A 
HETATM    4  O   UNL     1      43.004 -16.987   6.211  1.00  0.00    -0.267 OA
HETATM    5  C   UNL     1      42.879 -17.581   3.909  1.00  0.00     0.040 A 
HETATM    6  C   UNL     1      41.940 -17.319   2.910  1.00  0.00    -0.015 A 
HETATM    7  C   UNL     1      43.990 -18.376   3.707  1.00  0.00     0.017 A 
HETATM    8  C   UNL     1      44.161 -18.926   2.437  1.00  0.00     0.001 A 
HETATM    9  C   UNL     1      43.225 -18.676   1.416  1.00  0.00     0.001 A 
HETATM   10  C   UNL     1      42.103 -17.871   1.649  1.00  0.00     0.011 A 
ENDROOT
BRANCH   1  11
HETATM   11  C   UNL     1      40.906 -15.164   2.667  1.00  0.00     0.004 A 
HETATM   12  C   UNL     1      41.969 -14.282   2.450  1.00  0.00     0.017 A 
HETATM   13  C   UNL     1      43.369 -14.297   2.977  1.00  0.00     0.069 C 
HETATM   14  N   UNL     1      41.542 -13.322   1.553  1.00  0.00    -0.354 N 
HETATM   15  C   UNL     1      42.371 -12.279   0.979  1.00  0.00     0.156 C 
HETATM   16  C   UNL     1      40.208 -13.500   1.249  1.00  0.00     0.045 A 
HETATM   17  C   UNL     1      39.785 -14.642   1.927  1.00  0.00     0.001 A 
HETATM   18  C   UNL     1      39.345 -12.761   0.421  1.00  0.00     0.030 A 
HETATM   19  C   UNL     1      38.446 -15.065   1.759  1.00  0.00     0.014 A 
HETATM   20  C   UNL     1      37.581 -14.340   0.932  1.00  0.00     0.001 A 
HETATM   21  C   UNL     1      38.027 -13.202   0.273  1.00  0.00     0.002 A 
ENDBRANCH   1  11
BRANCH   2  22
HETATM   22  C   UNL     1      40.410 -15.611   5.836  1.00  0.00     0.229 C 
BRANCH  22  23
HETATM   23  C   UNL     1      40.579 -14.086   5.911  1.00  0.00     0.235 C 
HETATM   24  N   UNL     1      39.423 -13.367   6.091  1.00  0.00    -0.357 N 
HETATM   25  H   UNL     1      38.544 -13.864   6.114  1.00  0.00     0.162 HD
HETATM   26  O   UNL     1      41.691 -13.561   5.897  1.00  0.00    -0.272 OA
BRANCH  24  27
HETATM   27  C   UNL     1      39.393 -11.952   6.413  1.00  0.00     0.154 C 
BRANCH  27  28
HETATM   28  C   UNL     1      39.350 -11.032   5.192  1.00  0.00     0.139 C 
HETATM   29  O   UNL     1      38.646  -9.804   5.479  1.00  0.00    -0.384 OA
HETATM   30  C   UNL     1      37.889  -9.447   4.312  1.00  0.00     0.168 C 
HETATM   31  C   UNL     1      38.339 -10.363   3.194  1.00  0.00     0.029 C 
HETATM   32  C   UNL     1      38.699 -11.618   3.951  1.00  0.00     0.035 C 
ENDBRANCH  27  28
ENDBRANCH  24  27
ENDBRANCH  22  23
ENDBRANCH   2  22
TORSDOF 5
ENDMDL
MODEL 2
REMARK VINA RESULT:      -7.8      3.739      6.879
REMARK  5 active torsions:
REMARK  status: ('A' for Active; 'I' for Inactive)
REMARK    1  A    between atoms: C_7  and  C_8 
REMARK    2  A    between atoms: N_9  and  C_10 
REMARK    3  A    between atoms: C_10  and  C_11 
REMARK       I    between atoms: C_11  and  N_12 
REMARK    4  A    between atoms: N_12  and  C_13 
REMARK    5  A    between atoms: C_13  and  C_14 
ROOT
HETATM    1  C   UNL     1      43.908 -17.131   4.603  1.00  0.00     0.158 A 
HETATM    2  N   UNL     1      43.526 -16.144   5.597  1.00  0.00    -0.326 N 
HETATM    3  C   UNL     1      42.275 -15.606   5.361  1.00  0.00     0.255 A 
HETATM    4  O   UNL     1      41.698 -14.747   5.998  1.00  0.00    -0.267 OA
HETATM    5  C   UNL     1      41.775 -16.212   4.124  1.00  0.00     0.040 A 
HETATM    6  C   UNL     1      42.739 -17.108   3.657  1.00  0.00    -0.015 A 
HETATM    7  C   UNL     1      40.593 -15.962   3.453  1.00  0.00     0.017 A 
HETATM    8  C   UNL     1      40.376 -16.650   2.261  1.00  0.00     0.001 A 
HETATM    9  C   UNL     1      41.336 -17.556   1.771  1.00  0.00     0.001 A 
HETATM   10  C   UNL     1      42.528 -17.787   2.467  1.00  0.00     0.011 A 
ENDROOT
BRANCH   1  11
HETATM   11  C   UNL     1      43.974 -18.537   5.140  1.00  0.00     0.004 A 
HETATM   12  C   UNL     1      43.733 -19.026   6.428  1.00  0.00     0.017 A 
HETATM   13  C   UNL     1      43.386 -18.307   7.692  1.00  0.00     0.069 C 
HETATM   14  N   UNL     1      43.809 -20.405   6.375  1.00  0.00    -0.354 N 
HETATM   15  C   UNL     1      43.520 -21.306   7.474  1.00  0.00     0.156 C 
HETATM   16  C   UNL     1      44.182 -20.823   5.114  1.00  0.00     0.045 A 
HETATM   17  C   UNL     1      44.289 -19.681   4.322  1.00  0.00     0.001 A 
HETATM   18  C   UNL     1      44.415 -22.111   4.602  1.00  0.00     0.030 A 
HETATM   19  C   UNL     1      44.634 -19.839   2.959  1.00  0.00     0.014 A 
HETATM   20  C   UNL     1      44.862 -21.117   2.439  1.00  0.00     0.001 A 
HETATM   21  C   UNL     1      44.754 -22.238   3.252  1.00  0.00     0.002 A 
ENDBRANCH   1  11
BRANCH   2  22
HETATM   22  C   UNL     1      44.413 -15.717   6.670  1.00  0.00     0.229 C 
BRANCH  22  23
HETATM   23  C   UNL     1      44.725 -14.213   6.713  1.00  0.00     0.235 C 
HETATM   24  N   UNL     1      44.812 -13.658   7.966  1.00  0.00    -0.357 N 
HETATM   25  H   UNL     1      44.623 -14.243   8.767  1.00  0.00     0.162 HD
HETATM   26  O   UNL     1      44.965 -13.576   5.688  1.00  0.00    -0.272 OA
BRANCH  24  27
HETATM   27  C   UNL     1      45.319 -12.323   8.225  1.00  0.00     0.154 C 
BRANCH  27  28
HETATM   28  C   UNL     1      45.310 -11.926   9.703  1.00  0.00     0.139 C 
HETATM   29  O   UNL     1      44.634 -12.914  10.512  1.00  0.00    -0.384 OA
HETATM   30  C   UNL     1      43.896 -12.219  11.530  1.00  0.00     0.168 C 
HETATM   31  C   UNL     1      44.334 -10.770  11.484  1.00  0.00     0.029 C 
HETATM   32  C   UNL     1      44.656 -10.593  10.020  1.00  0.00     0.035 C 
ENDBRANCH  27  28
ENDBRANCH  24  27
ENDBRANCH  22  23
ENDBRANCH   2  22
TORSDOF 5
ENDMDL
MODEL 3
REMARK VINA RESULT:      -7.6      2.690      4.899
REMARK  5 active torsions:
REMARK  status: ('A' for Active; 'I' for Inactive)
REMARK    1  A    between atoms: C_7  and  C_8 
REMARK    2  A    between atoms: N_9  and  C_10 
REMARK    3  A    between atoms: C_10  and  C_11 
REMARK       I    between atoms: C_11  and  N_12 
REMARK    4  A    between atoms: N_12  and  C_13 
REMARK    5  A    between atoms: C_13  and  C_14 
ROOT
HETATM    1  C   UNL     1      42.287 -15.066   3.355  1.00  0.00     0.158 A 
HETATM    2  N   UNL     1      41.639 -16.361   3.468  1.00  0.00    -0.326 N 
HETATM    3  C   UNL     1      41.881 -16.974   4.682  1.00  0.00     0.255 A 
HETATM    4  O   UNL     1      41.499 -18.064   5.060  1.00  0.00    -0.267 OA
HETATM    5  C   UNL     1      42.770 -16.088   5.439  1.00  0.00     0.040 A 
HETATM    6  C   UNL     1      43.030 -14.960   4.658  1.00  0.00    -0.015 A 
HETATM    7  C   UNL     1      43.330 -16.284   6.687  1.00  0.00     0.017 A 
HETATM    8  C   UNL     1      44.186 -15.294   7.167  1.00  0.00     0.001 A 
HETATM    9  C   UNL     1      44.463 -14.150   6.394  1.00  0.00     0.001 A 
HETATM   10  C   UNL     1      43.887 -13.979   5.130  1.00  0.00     0.011 A 
ENDROOT
BRANCH   1  11
HETATM   11  C   UNL     1      41.324 -13.908   3.334  1.00  0.00     0.004 A 
HETATM   12  C   UNL     1      40.281 -13.582   4.207  1.00  0.00     0.017 A 
HETATM   13  C   UNL     1      39.754 -14.304   5.406  1.00  0.00     0.069 C 
HETATM   14  N   UNL     1      39.777 -12.355   3.820  1.00  0.00    -0.354 N 
HETATM   15  C   UNL     1      38.754 -11.606   4.523  1.00  0.00     0.156 C 
HETATM   16  C   UNL     1      40.399 -11.915   2.669  1.00  0.00     0.045 A 
HETATM   17  C   UNL     1      41.370 -12.861   2.344  1.00  0.00     0.001 A 
HETATM   18  C   UNL     1      40.199 -10.756   1.899  1.00  0.00     0.030 A 
HETATM   19  C   UNL     1      42.179 -12.630   1.208  1.00  0.00     0.014 A 
HETATM   20  C   UNL     1      41.992 -11.476   0.438  1.00  0.00     0.001 A 
HETATM   21  C   UNL     1      41.013 -10.553   0.781  1.00  0.00     0.002 A 
ENDBRANCH   1  11
BRANCH   2  22
HETATM   22  C   UNL     1      40.892 -16.971   2.376  1.00  0.00     0.229 C 
BRANCH  22  23
HETATM   23  C   UNL     1      41.406 -16.655   0.963  1.00  0.00     0.235 C 
HETATM   24  N   UNL     1      40.597 -15.848   0.202  1.00  0.00    -0.357 N 
HETATM   25  H   UNL     1      39.710 -15.555   0.585  1.00  0.00     0.162 HD
HETATM   26  O   UNL     1      42.513 -17.035   0.582  1.00  0.00    -0.272 OA
BRANCH  24  27
HETATM   27  C   UNL     1      41.005 -15.253  -1.058  1.00  0.00     0.154 C 
BRANCH  27  28
HETATM   28  C   UNL     1      39.950 -14.343  -1.690  1.00  0.00     0.139 C 
HETATM   29  O   UNL     1      40.553 -13.364  -2.565  1.00  0.00    -0.384 OA
HETATM   30  C   UNL     1      39.829 -12.132  -2.412  1.00  0.00     0.168 C 
HETATM   31  C   UNL     1      38.593 -12.443  -1.593  1.00  0.00     0.029 C 
HETATM   32  C   UNL     1      39.082 -13.568  -0.715  1.00  0.00     0.035 C 
ENDBRANCH  27  28
ENDBRANCH  24  27
ENDBRANCH  22  23
ENDBRANCH   2  22
TORSDOF 5
ENDMDL
MODEL 4
REMARK VINA RESULT:      -7.5      2.483      7.334
REMARK  5 active torsions:
REMARK  status: ('A' for Active; 'I' for Inactive)
REMARK    1  A    between atoms: C_7  and  C_8 
REMARK    2  A    between atoms: N_9  and  C_10 
REMARK    3  A    between atoms: C_10  and  C_11 
REMARK       I    between atoms: C_11  and  N_12 
REMARK    4  A    between atoms: N_12  and  C_13 
REMARK    5  A    between atoms: C_13  and  C_14 
ROOT
HETATM    1  C   UNL     1      40.131 -15.113   3.912  1.00  0.00     0.158 A 
HETATM    2  N   UNL     1      40.015 -15.457   2.506  1.00  0.00    -0.326 N 
HETATM    3  C   UNL     1      39.555 -14.406   1.735  1.00  0.00     0.255 A 
HETATM    4  O   UNL     1      39.333 -14.394   0.541  1.00  0.00    -0.267 OA
HETATM    5  C   UNL     1      39.299 -13.287   2.648  1.00  0.00     0.040 A 
HETATM    6  C   UNL     1      39.623 -13.698   3.942  1.00  0.00    -0.015 A 
HETATM    7  C   UNL     1      38.787 -12.037   2.361  1.00  0.00     0.017 A 
HETATM    8  C   UNL     1      38.598 -11.162   3.431  1.00  0.00     0.001 A 
HETATM    9  C   UNL     1      38.916 -11.557   4.744  1.00  0.00     0.001 A 
HETATM   10  C   UNL     1      39.429 -12.833   5.008  1.00  0.00     0.011 A 
ENDROOT
BRANCH   1  11
HETATM   11  C   UNL     1      41.554 -15.051   4.403  1.00  0.00     0.004 A 
HETATM   12  C   UNL     1      42.628 -14.265   3.972  1.00  0.00     0.017 A 
HETATM   13  C   UNL     1      42.722 -13.278   2.852  1.00  0.00     0.069 C 
HETATM   14  N   UNL     1      43.687 -14.495   4.828  1.00  0.00    -0.354 N 
HETATM   15  C   UNL     1      44.960 -13.800   4.796  1.00  0.00     0.156 C 
HETATM   16  C   UNL     1      43.366 -15.472   5.747  1.00  0.00     0.045 A 
HETATM   17  C   UNL     1      42.042 -15.836   5.509  1.00  0.00     0.001 A 
HETATM   18  C   UNL     1      44.126 -16.052   6.779  1.00  0.00     0.030 A 
HETATM   19  C   UNL     1      41.452 -16.812   6.345  1.00  0.00     0.014 A 
HETATM   20  C   UNL     1      42.198 -17.391   7.378  1.00  0.00     0.001 A 
HETATM   21  C   UNL     1      43.518 -17.015   7.590  1.00  0.00     0.002 A 
ENDBRANCH   1  11
BRANCH   2  22
HETATM   22  C   UNL     1      40.275 -16.795   1.993  1.00  0.00     0.229 C 
BRANCH  22  23
HETATM   23  C   UNL     1      41.749 -17.118   1.699  1.00  0.00     0.235 C 
HETATM   24  N   UNL     1      42.180 -18.356   2.107  1.00  0.00    -0.357 N 
HETATM   25  H   UNL     1      41.536 -18.950   2.608  1.00  0.00     0.162 HD
HETATM   26  O   UNL     1      42.461 -16.344   1.060  1.00  0.00    -0.272 OA
BRANCH  24  27
HETATM   27  C   UNL     1      43.455 -18.935   1.723  1.00  0.00     0.154 C 
BRANCH  27  28
HETATM   28  C   UNL     1      44.415 -19.166   2.891  1.00  0.00     0.139 C 
HETATM   29  O   UNL     1      44.865 -20.538   2.941  1.00  0.00    -0.384 OA
HETATM   30  C   UNL     1      44.952 -20.923   4.322  1.00  0.00     0.168 C 
HETATM   31  C   UNL     1      44.779 -19.664   5.145  1.00  0.00     0.029 C 
HETATM   32  C   UNL     1      43.861 -18.849   4.269  1.00  0.00     0.035 C 
ENDBRANCH  27  28
ENDBRANCH  24  27
ENDBRANCH  22  23
ENDBRANCH   2  22
TORSDOF 5
ENDMDL
MODEL 5
REMARK VINA RESULT:      -7.5      1.639      2.342
REMARK  5 active torsions:
REMARK  status: ('A' for Active; 'I' for Inactive)
REMARK    1  A    between atoms: C_7  and  C_8 
REMARK    2  A    between atoms: N_9  and  C_10 
REMARK    3  A    between atoms: C_10  and  C_11 
REMARK       I    between atoms: C_11  and  N_12 
REMARK    4  A    between atoms: N_12  and  C_13 
REMARK    5  A    between atoms: C_13  and  C_14 
ROOT
HETATM    1  C   UNL     1      40.759 -16.198   3.656  1.00  0.00     0.158 A 
HETATM    2  N   UNL     1      41.170 -15.953   5.028  1.00  0.00    -0.326 N 
HETATM    3  C   UNL     1      42.363 -16.572   5.346  1.00  0.00     0.255 A 
HETATM    4  O   UNL     1      42.945 -16.573   6.413  1.00  0.00    -0.267 OA
HETATM    5  C   UNL     1      42.789 -17.317   4.158  1.00  0.00     0.040 A 
HETATM    6  C   UNL     1      41.840 -17.115   3.154  1.00  0.00    -0.015 A 
HETATM    7  C   UNL     1      43.893 -18.131   3.996  1.00  0.00     0.017 A 
HETATM    8  C   UNL     1      44.045 -18.766   2.764  1.00  0.00     0.001 A 
HETATM    9  C   UNL     1      43.099 -18.578   1.739  1.00  0.00     0.001 A 
HETATM   10  C   UNL     1      41.985 -17.751   1.931  1.00  0.00     0.011 A 
ENDROOT
BRANCH   1  11
HETATM   11  C   UNL     1      40.817 -14.974   2.780  1.00  0.00     0.004 A 
HETATM   12  C   UNL     1      41.859 -14.068   2.558  1.00  0.00     0.017 A 
HETATM   13  C   UNL     1      43.227 -13.993   3.157  1.00  0.00     0.069 C 
HETATM   14  N   UNL     1      41.448 -13.190   1.573  1.00  0.00    -0.354 N 
HETATM   15  C   UNL     1      42.270 -12.157   0.972  1.00  0.00     0.156 C 
HETATM   16  C   UNL     1      40.140 -13.439   1.213  1.00  0.00     0.045 A 
HETATM   17  C   UNL     1      39.721 -14.548   1.947  1.00  0.00     0.001 A 
HETATM   18  C   UNL     1      39.299 -12.793   0.291  1.00  0.00     0.030 A 
HETATM   19  C   UNL     1      38.409 -15.034   1.739  1.00  0.00     0.014 A 
HETATM   20  C   UNL     1      37.566 -14.401   0.819  1.00  0.00     0.001 A 
HETATM   21  C   UNL     1      38.007 -13.294   0.106  1.00  0.00     0.002 A 
ENDBRANCH   1  11
BRANCH   2  22
HETATM   22  C   UNL     1      40.355 -15.207   5.977  1.00  0.00     0.229 C 
BRANCH  22  23
HETATM   23  C   UNL     1      40.357 -13.681   5.796  1.00  0.00     0.235 C 
HETATM   24  N   UNL     1      41.453 -13.023   6.298  1.00  0.00    -0.357 N 
HETATM   25  H   UNL     1      42.155 -13.558   6.788  1.00  0.00     0.162 HD
HETATM   26  O   UNL     1      39.471 -13.107   5.164  1.00  0.00    -0.272 OA
BRANCH  24  27
HETATM   27  C   UNL     1      41.752 -11.628   6.029  1.00  0.00     0.154 C 
BRANCH  27  28
HETATM   28  C   UNL     1      41.690 -10.725   7.262  1.00  0.00     0.139 C 
HETATM   29  O   UNL     1      42.845 -10.910   8.110  1.00  0.00    -0.384 OA
HETATM   30  C   UNL     1      42.407 -10.826   9.475  1.00  0.00     0.168 C 
HETATM   31  C   UNL     1      40.975 -10.334   9.452  1.00  0.00     0.029 C 
HETATM   32  C   UNL     1      40.473 -10.911   8.151  1.00  0.00     0.035 C 
ENDBRANCH  27  28
ENDBRANCH  24  27
ENDBRANCH  22  23
ENDBRANCH   2  22
TORSDOF 5
ENDMDL
MODEL 6
REMARK VINA RESULT:      -7.3      2.571      6.448
REMARK  5 active torsions:
REMARK  status: ('A' for Active; 'I' for Inactive)
REMARK    1  A    between atoms: C_7  and  C_8 
REMARK    2  A    between atoms: N_9  and  C_10 
REMARK    3  A    between atoms: C_10  and  C_11 
REMARK       I    between atoms: C_11  and  N_12 
REMARK    4  A    between atoms: N_12  and  C_13 
REMARK    5  A    between atoms: C_13  and  C_14 
ROOT
HETATM    1  C   UNL     1      42.257 -14.822   3.595  1.00  0.00     0.158 A 
HETATM    2  N   UNL     1      41.509 -16.061   3.717  1.00  0.00    -0.326 N 
HETATM    3  C   UNL     1      41.730 -16.702   4.921  1.00  0.00     0.255 A 
HETATM    4  O   UNL     1      41.270 -17.760   5.302  1.00  0.00    -0.267 OA
HETATM    5  C   UNL     1      42.707 -15.897   5.661  1.00  0.00     0.040 A 
HETATM    6  C   UNL     1      43.038 -14.788   4.880  1.00  0.00    -0.015 A 
HETATM    7  C   UNL     1      43.280 -16.147   6.892  1.00  0.00     0.017 A 
HETATM    8  C   UNL     1      44.226 -15.234   7.356  1.00  0.00     0.001 A 
HETATM    9  C   UNL     1      44.575 -14.110   6.584  1.00  0.00     0.001 A 
HETATM   10  C   UNL     1      43.984 -13.883   5.335  1.00  0.00     0.011 A 
ENDROOT
BRANCH   1  11
HETATM   11  C   UNL     1      41.391 -13.590   3.606  1.00  0.00     0.004 A 
HETATM   12  C   UNL     1      40.473 -13.136   4.559  1.00  0.00     0.017 A 
HETATM   13  C   UNL     1      40.018 -13.754   5.842  1.00  0.00     0.069 C 
HETATM   14  N   UNL     1      40.030 -11.891   4.156  1.00  0.00    -0.354 N 
HETATM   15  C   UNL     1      39.148 -11.027   4.915  1.00  0.00     0.156 C 
HETATM   16  C   UNL     1      40.561 -11.560   2.926  1.00  0.00     0.045 A 
HETATM   17  C   UNL     1      41.416 -12.599   2.559  1.00  0.00     0.001 A 
HETATM   18  C   UNL     1      40.374 -10.427   2.116  1.00  0.00     0.030 A 
HETATM   19  C   UNL     1      42.119 -12.490   1.337  1.00  0.00     0.014 A 
HETATM   20  C   UNL     1      41.944 -11.363   0.527  1.00  0.00     0.001 A 
HETATM   21  C   UNL     1      41.081 -10.346   0.914  1.00  0.00     0.002 A 
ENDBRANCH   1  11
BRANCH   2  22
HETATM   22  C   UNL     1      40.689 -16.600   2.641  1.00  0.00     0.229 C 
BRANCH  22  23
HETATM   23  C   UNL     1      41.356 -17.679   1.774  1.00  0.00     0.235 C 
HETATM   24  N   UNL     1      42.494 -18.243   2.295  1.00  0.00    -0.357 N 
HETATM   25  H   UNL     1      42.847 -17.892   3.173  1.00  0.00     0.162 HD
HETATM   26  O   UNL     1      40.845 -18.066   0.723  1.00  0.00    -0.272 OA
BRANCH  24  27
HETATM   27  C   UNL     1      43.135 -19.424   1.748  1.00  0.00     0.154 C 
BRANCH  27  28
HETATM   28  C   UNL     1      44.268 -19.980   2.612  1.00  0.00     0.139 C 
HETATM   29  O   UNL     1      44.315 -21.423   2.559  1.00  0.00    -0.384 OA
HETATM   30  C   UNL     1      44.656 -21.901   3.870  1.00  0.00     0.168 C 
HETATM   31  C   UNL     1      45.066 -20.695   4.689  1.00  0.00     0.029 C 
HETATM   32  C   UNL     1      44.212 -19.609   4.084  1.00  0.00     0.035 C 
ENDBRANCH  27  28
ENDBRANCH  24  27
ENDBRANCH  22  23
ENDBRANCH   2  22
TORSDOF 5
ENDMDL
MODEL 7
REMARK VINA RESULT:      -7.3      2.635      6.682
REMARK  5 active torsions:
REMARK  status: ('A' for Active; 'I' for Inactive)
REMARK    1  A    between atoms: C_7  and  C_8 
REMARK    2  A    between atoms: N_9  and  C_10 
REMARK    3  A    between atoms: C_10  and  C_11 
REMARK       I    between atoms: C_11  and  N_12 
REMARK    4  A    between atoms: N_12  and  C_13 
REMARK    5  A    between atoms: C_13  and  C_14 
ROOT
HETATM    1  C   UNL     1      41.684 -14.419   1.384  1.00  0.00     0.158 A 
HETATM    2  N   UNL     1      41.538 -15.825   1.713  1.00  0.00    -0.326 N 
HETATM    3  C   UNL     1      40.983 -16.026   2.962  1.00  0.00     0.255 A 
HETATM    4  O   UNL     1      40.761 -17.082   3.522  1.00  0.00    -0.267 OA
HETATM    5  C   UNL     1      40.768 -14.702   3.552  1.00  0.00     0.040 A 
HETATM    6  C   UNL     1      41.192 -13.741   2.632  1.00  0.00    -0.015 A 
HETATM    7  C   UNL     1      40.280 -14.381   4.805  1.00  0.00     0.017 A 
HETATM    8  C   UNL     1      40.215 -13.029   5.139  1.00  0.00     0.001 A 
HETATM    9  C   UNL     1      40.640 -12.044   4.227  1.00  0.00     0.001 A 
HETATM   10  C   UNL     1      41.136 -12.396   2.966  1.00  0.00     0.011 A 
ENDROOT
BRANCH   1  11
HETATM   11  C   UNL     1      40.770 -13.958   0.278  1.00  0.00     0.004 A 
HETATM   12  C   UNL     1      39.374 -13.951   0.201  1.00  0.00     0.017 A 
HETATM   13  C   UNL     1      38.344 -14.447   1.165  1.00  0.00     0.069 C 
HETATM   14  N   UNL     1      39.021 -13.316  -0.974  1.00  0.00    -0.354 N 
HETATM   15  C   UNL     1      37.666 -13.004  -1.388  1.00  0.00     0.156 C 
HETATM   16  C   UNL     1      40.144 -12.989  -1.707  1.00  0.00     0.045 A 
HETATM   17  C   UNL     1      41.249 -13.376  -0.950  1.00  0.00     0.001 A 
HETATM   18  C   UNL     1      40.277 -12.372  -2.962  1.00  0.00     0.030 A 
HETATM   19  C   UNL     1      42.540 -13.121  -1.470  1.00  0.00     0.014 A 
HETATM   20  C   UNL     1      42.683 -12.502  -2.716  1.00  0.00     0.001 A 
HETATM   21  C   UNL     1      41.565 -12.133  -3.451  1.00  0.00     0.002 A 
ENDBRANCH   1  11
BRANCH   2  22
HETATM   22  C   UNL     1      42.011 -16.895   0.845  1.00  0.00     0.229 C 
BRANCH  22  23
HETATM   23  C   UNL     1      43.232 -17.674   1.357  1.00  0.00     0.235 C 
HETATM   24  N   UNL     1      42.958 -18.835   2.036  1.00  0.00    -0.357 N 
HETATM   25  H   UNL     1      41.992 -19.082   2.199  1.00  0.00     0.162 HD
HETATM   26  O   UNL     1      44.380 -17.315   1.093  1.00  0.00    -0.272 OA
BRANCH  24  27
HETATM   27  C   UNL     1      43.962 -19.819   2.394  1.00  0.00     0.154 C 
BRANCH  27  28
HETATM   28  C   UNL     1      44.483 -19.690   3.826  1.00  0.00     0.139 C 
HETATM   29  O   UNL     1      44.722 -20.985   4.421  1.00  0.00    -0.384 OA
HETATM   30  C   UNL     1      44.334 -20.914   5.802  1.00  0.00     0.168 C 
HETATM   31  C   UNL     1      44.076 -19.455   6.116  1.00  0.00     0.029 C 
HETATM   32  C   UNL     1      43.579 -18.939   4.788  1.00  0.00     0.035 C 
ENDBRANCH  27  28
ENDBRANCH  24  27
ENDBRANCH  22  23
ENDBRANCH   2  22
TORSDOF 5
ENDMDL
MODEL 8
REMARK VINA RESULT:      -7.2      3.262      6.792
REMARK  5 active torsions:
REMARK  status: ('A' for Active; 'I' for Inactive)
REMARK    1  A    between atoms: C_7  and  C_8 
REMARK    2  A    between atoms: N_9  and  C_10 
REMARK    3  A    between atoms: C_10  and  C_11 
REMARK       I    between atoms: C_11  and  N_12 
REMARK    4  A    between atoms: N_12  and  C_13 
REMARK    5  A    between atoms: C_13  and  C_14 
ROOT
HETATM    1  C   UNL     1      41.747 -16.279   3.115  1.00  0.00     0.158 A 
HETATM    2  N   UNL     1      42.266 -15.320   2.156  1.00  0.00    -0.326 N 
HETATM    3  C   UNL     1      42.135 -14.013   2.584  1.00  0.00     0.255 A 
HETATM    4  O   UNL     1      42.450 -12.997   1.995  1.00  0.00    -0.267 OA
HETATM    5  C   UNL     1      41.457 -14.054   3.883  1.00  0.00     0.040 A 
HETATM    6  C   UNL     1      41.210 -15.390   4.203  1.00  0.00    -0.015 A 
HETATM    7  C   UNL     1      41.060 -13.002   4.686  1.00  0.00     0.017 A 
HETATM    8  C   UNL     1      40.387 -13.317   5.866  1.00  0.00     0.001 A 
HETATM    9  C   UNL     1      40.125 -14.657   6.206  1.00  0.00     0.001 A 
HETATM   10  C   UNL     1      40.533 -15.704   5.371  1.00  0.00     0.011 A 
ENDROOT
BRANCH   1  11
HETATM   11  C   UNL     1      42.814 -17.124   3.763  1.00  0.00     0.004 A 
HETATM   12  C   UNL     1      43.577 -16.894   4.912  1.00  0.00     0.017 A 
HETATM   13  C   UNL     1      43.619 -15.716   5.832  1.00  0.00     0.069 C 
HETATM   14  N   UNL     1      44.329 -18.028   5.150  1.00  0.00    -0.354 N 
HETATM   15  C   UNL     1      45.179 -18.246   6.304  1.00  0.00     0.156 C 
HETATM   16  C   UNL     1      44.146 -18.953   4.143  1.00  0.00     0.045 A 
HETATM   17  C   UNL     1      43.205 -18.418   3.265  1.00  0.00     0.001 A 
HETATM   18  C   UNL     1      44.718 -20.222   3.941  1.00  0.00     0.030 A 
HETATM   19  C   UNL     1      42.814 -19.191   2.147  1.00  0.00     0.014 A 
HETATM   20  C   UNL     1      43.372 -20.457   1.941  1.00  0.00     0.001 A 
HETATM   21  C   UNL     1      44.313 -20.963   2.828  1.00  0.00     0.002 A 
ENDBRANCH   1  11
BRANCH   2  22
HETATM   22  C   UNL     1      42.785 -15.706   0.851  1.00  0.00     0.229 C 
BRANCH  22  23
HETATM   23  C   UNL     1      41.854 -15.434  -0.341  1.00  0.00     0.235 C 
HETATM   24  N   UNL     1      42.052 -14.241  -0.991  1.00  0.00    -0.357 N 
HETATM   25  H   UNL     1      42.746 -13.604  -0.629  1.00  0.00     0.162 HD
HETATM   26  O   UNL     1      41.047 -16.277  -0.731  1.00  0.00    -0.272 OA
BRANCH  24  27
HETATM   27  C   UNL     1      41.441 -13.903  -2.263  1.00  0.00     0.154 C 
BRANCH  27  28
HETATM   28  C   UNL     1      41.471 -12.410  -2.595  1.00  0.00     0.139 C 
HETATM   29  O   UNL     1      41.393 -12.184  -4.020  1.00  0.00    -0.384 OA
HETATM   30  C   UNL     1      42.250 -11.076  -4.338  1.00  0.00     0.168 C 
HETATM   31  C   UNL     1      42.678 -10.455  -3.024  1.00  0.00     0.029 C 
HETATM   32  C   UNL     1      42.696 -11.655  -2.109  1.00  0.00     0.035 C 
ENDBRANCH  27  28
ENDBRANCH  24  27
ENDBRANCH  22  23
ENDBRANCH   2  22
TORSDOF 5
ENDMDL
MODEL 9
REMARK VINA RESULT:      -7.0      2.866      6.487
REMARK  5 active torsions:
REMARK  status: ('A' for Active; 'I' for Inactive)
REMARK    1  A    between atoms: C_7  and  C_8 
REMARK    2  A    between atoms: N_9  and  C_10 
REMARK    3  A    between atoms: C_10  and  C_11 
REMARK       I    between atoms: C_11  and  N_12 
REMARK    4  A    between atoms: N_12  and  C_13 
REMARK    5  A    between atoms: C_13  and  C_14 
ROOT
HETATM    1  C   UNL     1      41.003 -13.150  -0.086  1.00  0.00     0.158 A 
HETATM    2  N   UNL     1      40.598 -12.691   1.231  1.00  0.00    -0.326 N 
HETATM    3  C   UNL     1      41.057 -11.420   1.517  1.00  0.00     0.255 A 
HETATM    4  O   UNL     1      40.904 -10.781   2.540  1.00  0.00    -0.267 OA
HETATM    5  C   UNL     1      41.853 -10.983   0.367  1.00  0.00     0.040 A 
HETATM    6  C   UNL     1      41.841 -12.005  -0.585  1.00  0.00    -0.015 A 
HETATM    7  C   UNL     1      42.557  -9.806   0.197  1.00  0.00     0.017 A 
HETATM    8  C   UNL     1      43.276  -9.655  -0.988  1.00  0.00     0.001 A 
HETATM    9  C   UNL     1      43.279 -10.674  -1.959  1.00  0.00     0.001 A 
HETATM   10  C   UNL     1      42.562 -11.860  -1.760  1.00  0.00     0.011 A 
ENDROOT
BRANCH   1  11
HETATM   11  C   UNL     1      39.860 -13.279  -1.059  1.00  0.00     0.004 A 
HETATM   12  C   UNL     1      38.754 -12.450  -1.272  1.00  0.00     0.017 A 
HETATM   13  C   UNL     1      38.323 -11.204  -0.568  1.00  0.00     0.069 C 
HETATM   14  N   UNL     1      38.063 -12.945  -2.361  1.00  0.00    -0.354 N 
HETATM   15  C   UNL     1      36.910 -12.319  -2.980  1.00  0.00     0.156 C 
HETATM   16  C   UNL     1      38.633 -14.119  -2.808  1.00  0.00     0.045 A 
HETATM   17  C   UNL     1      39.757 -14.351  -2.017  1.00  0.00     0.001 A 
HETATM   18  C   UNL     1      38.263 -14.985  -3.852  1.00  0.00     0.030 A 
HETATM   19  C   UNL     1      40.548 -15.492  -2.292  1.00  0.00     0.014 A 
HETATM   20  C   UNL     1      40.191 -16.356  -3.332  1.00  0.00     0.001 A 
HETATM   21  C   UNL     1      39.062 -16.104  -4.101  1.00  0.00     0.002 A 
ENDBRANCH   1  11
BRANCH   2  22
HETATM   22  C   UNL     1      39.863 -13.527   2.170  1.00  0.00     0.229 C 
BRANCH  22  23
HETATM   23  C   UNL     1      40.723 -14.404   3.092  1.00  0.00     0.235 C 
HETATM   24  N   UNL     1      40.311 -15.707   3.231  1.00  0.00    -0.357 N 
HETATM   25  H   UNL     1      39.460 -15.995   2.771  1.00  0.00     0.162 HD
HETATM   26  O   UNL     1      41.762 -13.980   3.598  1.00  0.00    -0.272 OA
BRANCH  24  27
HETATM   27  C   UNL     1      41.105 -16.743   3.864  1.00  0.00     0.154 C 
BRANCH  27  28
HETATM   28  C   UNL     1      42.086 -17.443   2.923  1.00  0.00     0.139 C 
HETATM   29  O   UNL     1      43.436 -16.962   3.111  1.00  0.00    -0.384 OA
HETATM   30  C   UNL     1      44.065 -16.897   1.822  1.00  0.00     0.168 C 
HETATM   31  C   UNL     1      43.142 -17.592   0.842  1.00  0.00     0.029 C 
HETATM   32  C   UNL     1      41.787 -17.303   1.440  1.00  0.00     0.035 C 
ENDBRANCH  27  28
ENDBRANCH  24  27
ENDBRANCH  22  23
ENDBRANCH   2  22
TORSDOF 5
ENDMDL
MODEL 10
REMARK VINA RESULT:      -7.0      3.463      6.432
REMARK  5 active torsions:
REMARK  status: ('A' for Active; 'I' for Inactive)
REMARK    1  A    between atoms: C_7  and  C_8 
REMARK    2  A    between atoms: N_9  and  C_10 
REMARK    3  A    between atoms: C_10  and  C_11 
REMARK       I    between atoms: C_11  and  N_12 
REMARK    4  A    between atoms: N_12  and  C_13 
REMARK    5  A    between atoms: C_13  and  C_14 
ROOT
HETATM    1  C   UNL     1      43.307 -16.035   4.029  1.00  0.00     0.158 A 
HETATM    2  N   UNL     1      42.862 -15.600   5.341  1.00  0.00    -0.326 N 
HETATM    3  C   UNL     1      41.533 -15.224   5.356  1.00  0.00     0.255 A 
HETATM    4  O   UNL     1      40.886 -14.796   6.292  1.00  0.00    -0.267 OA
HETATM    5  C   UNL     1      41.033 -15.364   3.985  1.00  0.00     0.040 A 
HETATM    6  C   UNL     1      42.079 -15.830   3.186  1.00  0.00    -0.015 A 
HETATM    7  C   UNL     1      39.780 -15.065   3.486  1.00  0.00     0.017 A 
HETATM    8  C   UNL     1      39.575 -15.250   2.119  1.00  0.00     0.001 A 
HETATM    9  C   UNL     1      40.616 -15.717   1.295  1.00  0.00     0.001 A 
HETATM   10  C   UNL     1      41.879 -16.007   1.825  1.00  0.00     0.011 A 
ENDROOT
BRANCH   1  11
HETATM   11  C   UNL     1      43.618 -17.507   3.953  1.00  0.00     0.004 A 
HETATM   12  C   UNL     1      43.994 -18.298   2.863  1.00  0.00     0.017 A 
HETATM   13  C   UNL     1      44.155 -17.949   1.417  1.00  0.00     0.069 C 
HETATM   14  N   UNL     1      44.282 -19.562   3.340  1.00  0.00    -0.354 N 
HETATM   15  C   UNL     1      44.811 -20.658   2.552  1.00  0.00     0.156 C 
HETATM   16  C   UNL     1      44.018 -19.643   4.692  1.00  0.00     0.045 A 
HETATM   17  C   UNL     1      43.605 -18.376   5.102  1.00  0.00     0.001 A 
HETATM   18  C   UNL     1      44.126 -20.720   5.589  1.00  0.00     0.030 A 
HETATM   19  C   UNL     1      43.299 -18.180   6.469  1.00  0.00     0.014 A 
HETATM   20  C   UNL     1      43.408 -19.244   7.371  1.00  0.00     0.001 A 
HETATM   21  C   UNL     1      43.816 -20.498   6.934  1.00  0.00     0.002 A 
ENDBRANCH   1  11
BRANCH   2  22
HETATM   22  C   UNL     1      43.757 -15.494   6.486  1.00  0.00     0.229 C 
BRANCH  22  23
HETATM   23  C   UNL     1      44.487 -14.150   6.634  1.00  0.00     0.235 C 
HETATM   24  N   UNL     1      44.671 -13.711   7.922  1.00  0.00    -0.357 N 
HETATM   25  H   UNL     1      44.282 -14.256   8.678  1.00  0.00     0.162 HD
HETATM   26  O   UNL     1      44.950 -13.559   5.659  1.00  0.00    -0.272 OA
BRANCH  24  27
HETATM   27  C   UNL     1      45.528 -12.597   8.282  1.00  0.00     0.154 C 
BRANCH  27  28
HETATM   28  C   UNL     1      45.085 -11.846   9.539  1.00  0.00     0.139 C 
HETATM   29  O   UNL     1      45.223 -12.666  10.721  1.00  0.00    -0.384 OA
HETATM   30  C   UNL     1      44.108 -12.388  11.582  1.00  0.00     0.168 C 
HETATM   31  C   UNL     1      43.396 -11.179  11.010  1.00  0.00     0.029 C 
HETATM   32  C   UNL     1      43.652 -11.344   9.533  1.00  0.00     0.035 C 
ENDBRANCH  27  28
ENDBRANCH  24  27
ENDBRANCH  22  23
ENDBRANCH   2  22
TORSDOF 5
ENDMDL
