MODEL 1
REMARK VINA RESULT:      -8.2      0.000      0.000
REMARK  4 active torsions:
REMARK  status: ('A' for Active; 'I' for Inactive)
REMARK    1  A    between atoms: C_9  and  N_10 
REMARK    2  A    between atoms: N_10  and  C_12 
REMARK    3  A    between atoms: C_12  and  C_13 
REMARK    4  A    between atoms: C_14  and  C_15 
ROOT
HETATM    1  C   UNL     1      43.176 -15.369   4.779  1.00  0.00     0.016 A 
HETATM    2  C   UNL     1      43.313 -16.749   5.125  1.00  0.00     0.096 A 
HETATM    3  N   UNL     1      43.295 -16.912   6.453  1.00  0.00    -0.174 NA
HETATM    4  N   UNL     1      43.261 -15.674   6.957  1.00  0.00    -0.288 N 
HETATM    5  H   UNL     1      43.292 -15.563   7.968  1.00  0.00     0.188 HD
HETATM    6  C   UNL     1      43.153 -14.713   5.995  1.00  0.00     0.120 A 
ENDROOT
BRANCH   1   7
HETATM    7  C   UNL     1      43.050 -14.760   3.427  1.00  0.00     0.277 C 
BRANCH   7   8
HETATM    8  N   UNL     1      41.780 -13.953   3.219  1.00  0.00    -0.065 N 
HETATM    9  H   UNL     1      41.026 -14.408   3.751  1.00  0.00     0.280 HD
HETATM   10  C   UNL     1      41.923 -12.534   3.702  1.00  0.00     0.270 C 
BRANCH   8  11
HETATM   11  C   UNL     1      41.484 -13.919   1.750  1.00  0.00     0.205 C 
HETATM   12  C   UNL     1      40.704 -15.135   1.132  1.00  0.00     0.008 C 
HETATM   13  C   UNL     1      41.575 -15.961   0.176  1.00  0.00     0.020 C 
HETATM   14  C   UNL     1      39.893 -16.069   2.033  1.00  0.00     0.020 C 
HETATM   15  C   UNL     1      39.832 -14.095   0.361  1.00  0.00     0.137 C 
HETATM   16  C   UNL     1      40.318 -12.985   1.314  1.00  0.00     0.049 C 
HETATM   17  O   UNL     1      38.400 -14.210   0.474  1.00  0.00    -0.385 OA
HETATM   18  C   UNL     1      39.050 -12.709   2.128  1.00  0.00     0.035 C 
HETATM   19  C   UNL     1      37.907 -13.069   1.182  1.00  0.00     0.168 C 
ENDBRANCH   8  11
ENDBRANCH   7   8
ENDBRANCH   1   7
BRANCH   2  20
HETATM   20  C   UNL     1      43.391 -17.902   4.238  1.00  0.00    -0.002 A 
HETATM   21  C   UNL     1      44.094 -19.046   4.624  1.00  0.00     0.053 A 
HETATM   22  C   UNL     1      44.190 -20.133   3.755  1.00  0.00     0.103 A 
HETATM   23  C   UNL     1      43.597 -20.080   2.492  1.00  0.00     0.102 A 
HETATM   24  O   UNL     1      44.899 -21.215   4.205  1.00  0.00    -0.346 OA
HETATM   25  O   UNL     1      43.680 -21.097   1.578  1.00  0.00    -0.346 OA
HETATM   26  C   UNL     1      42.864 -18.957   2.116  1.00  0.00     0.040 A 
HETATM   27  C   UNL     1      44.667 -22.069   1.943  1.00  0.00     0.202 C 
HETATM   28  C   UNL     1      44.599 -22.385   3.429  1.00  0.00     0.202 C 
HETATM   29  C   UNL     1      42.758 -17.871   2.987  1.00  0.00     0.017 A 
ENDBRANCH   2  20
TORSDOF 4
ENDMDL
MODEL 2
REMARK VINA RESULT:      -8.2      1.585      2.227
REMARK  4 active torsions:
REMARK  status: ('A' for Active; 'I' for Inactive)
REMARK    1  A    between atoms: C_9  and  N_10 
REMARK    2  A    between atoms: N_10  and  C_12 
REMARK    3  A    between atoms: C_12  and  C_13 
REMARK    4  A    between atoms: C_14  and  C_15 
ROOT
HETATM    1  C   UNL     1      41.468 -15.126   4.878  1.00  0.00     0.016 A 
HETATM    2  C   UNL     1      41.582 -16.452   5.398  1.00  0.00     0.096 A 
HETATM    3  N   UNL     1      40.553 -16.740   6.203  1.00  0.00    -0.174 NA
HETATM    4  N   UNL     1      39.853 -15.605   6.294  1.00  0.00    -0.288 N 
HETATM    5  H   UNL     1      39.041 -15.586   6.908  1.00  0.00     0.188 HD
HETATM    6  C   UNL     1      40.339 -14.615   5.491  1.00  0.00     0.120 A 
ENDROOT
BRANCH   1   7
HETATM    7  C   UNL     1      42.335 -14.443   3.879  1.00  0.00     0.277 C 
BRANCH   7   8
HETATM    8  N   UNL     1      41.575 -13.750   2.761  1.00  0.00    -0.065 N 
HETATM    9  H   UNL     1      40.579 -13.989   2.860  1.00  0.00     0.280 HD
HETATM   10  C   UNL     1      41.721 -12.252   2.818  1.00  0.00     0.270 C 
BRANCH   8  11
HETATM   11  C   UNL     1      42.135 -14.223   1.453  1.00  0.00     0.205 C 
HETATM   12  C   UNL     1      41.692 -15.640   0.938  1.00  0.00     0.008 C 
HETATM   13  C   UNL     1      42.846 -16.650   0.943  1.00  0.00     0.020 C 
HETATM   14  C   UNL     1      40.424 -16.298   1.486  1.00  0.00     0.020 C 
HETATM   15  C   UNL     1      41.501 -14.991  -0.470  1.00  0.00     0.137 C 
HETATM   16  C   UNL     1      41.506 -13.592   0.178  1.00  0.00     0.049 C 
HETATM   17  O   UNL     1      40.237 -15.192  -1.132  1.00  0.00    -0.385 OA
HETATM   18  C   UNL     1      40.039 -13.182   0.021  1.00  0.00     0.035 C 
HETATM   19  C   UNL     1      39.566 -13.932  -1.222  1.00  0.00     0.168 C 
ENDBRANCH   8  11
ENDBRANCH   7   8
ENDBRANCH   1   7
BRANCH   2  20
HETATM   20  C   UNL     1      42.593 -17.458   5.099  1.00  0.00    -0.002 A 
HETATM   21  C   UNL     1      42.465 -18.277   3.973  1.00  0.00     0.053 A 
HETATM   22  C   UNL     1      43.422 -19.258   3.713  1.00  0.00     0.103 A 
HETATM   23  C   UNL     1      44.502 -19.438   4.578  1.00  0.00     0.102 A 
HETATM   24  O   UNL     1      43.224 -20.023   2.593  1.00  0.00    -0.346 OA
HETATM   25  O   UNL     1      45.459 -20.402   4.400  1.00  0.00    -0.346 OA
HETATM   26  C   UNL     1      44.655 -18.600   5.681  1.00  0.00     0.040 A 
HETATM   27  C   UNL     1      45.070 -21.369   3.417  1.00  0.00     0.202 C 
HETATM   28  C   UNL     1      44.432 -20.697   2.211  1.00  0.00     0.202 C 
HETATM   29  C   UNL     1      43.704 -17.610   5.939  1.00  0.00     0.017 A 
ENDBRANCH   2  20
TORSDOF 4
ENDMDL
MODEL 3
REMARK VINA RESULT:      -8.0      2.158      6.706
REMARK  4 active torsions:
REMARK  status: ('A' for Active; 'I' for Inactive)
REMARK    1  A    between atoms: C_9  and  N_10 
REMARK    2  A    between atoms: N_10  and  C_12 
REMARK    3  A    between atoms: C_12  and  C_13 
REMARK    4  A    between atoms: C_14  and  C_15 
ROOT
HETATM    1  C   UNL     1      40.811 -13.601   3.712  1.00  0.00     0.016 A 
HETATM    2  C   UNL     1      40.802 -12.922   2.455  1.00  0.00     0.096 A 
HETATM    3  N   UNL     1      41.505 -11.786   2.521  1.00  0.00    -0.174 NA
HETATM    4  N   UNL     1      41.866 -11.672   3.803  1.00  0.00    -0.288 N 
HETATM    5  H   UNL     1      42.375 -10.839   4.089  1.00  0.00     0.188 HD
HETATM    6  C   UNL     1      41.504 -12.752   4.554  1.00  0.00     0.120 A 
ENDROOT
BRANCH   1   7
HETATM    7  C   UNL     1      40.241 -14.934   4.051  1.00  0.00     0.277 C 
BRANCH   7   8
HETATM    8  N   UNL     1      41.193 -15.849   4.801  1.00  0.00    -0.065 N 
HETATM    9  H   UNL     1      42.106 -15.378   4.858  1.00  0.00     0.280 HD
HETATM   10  C   UNL     1      40.714 -16.146   6.198  1.00  0.00     0.270 C 
BRANCH   8  11
HETATM   11  C   UNL     1      41.280 -17.146   4.053  1.00  0.00     0.205 C 
HETATM   12  C   UNL     1      42.191 -17.191   2.773  1.00  0.00     0.008 C 
HETATM   13  C   UNL     1      41.377 -17.364   1.484  1.00  0.00     0.020 C 
HETATM   14  C   UNL     1      43.278 -16.136   2.562  1.00  0.00     0.020 C 
HETATM   15  C   UNL     1      42.737 -18.558   3.295  1.00  0.00     0.137 C 
HETATM   16  C   UNL     1      42.176 -18.242   4.697  1.00  0.00     0.049 C 
HETATM   17  O   UNL     1      44.166 -18.713   3.391  1.00  0.00    -0.385 OA
HETATM   18  C   UNL     1      43.463 -17.986   5.486  1.00  0.00     0.035 C 
HETATM   19  C   UNL     1      44.519 -18.827   4.773  1.00  0.00     0.168 C 
ENDBRANCH   8  11
ENDBRANCH   7   8
ENDBRANCH   1   7
BRANCH   2  20
HETATM   20  C   UNL     1      40.207 -13.353   1.197  1.00  0.00    -0.002 A 
HETATM   21  C   UNL     1      41.002 -13.914   0.193  1.00  0.00     0.053 A 
HETATM   22  C   UNL     1      40.429 -14.295  -1.020  1.00  0.00     0.103 A 
HETATM   23  C   UNL     1      39.063 -14.108  -1.244  1.00  0.00     0.102 A 
HETATM   24  O   UNL     1      41.275 -14.833  -1.954  1.00  0.00    -0.346 OA
HETATM   25  O   UNL     1      38.443 -14.429  -2.422  1.00  0.00    -0.346 OA
HETATM   26  C   UNL     1      38.259 -13.585  -0.234  1.00  0.00     0.040 A 
HETATM   27  C   UNL     1      39.383 -14.694  -3.470  1.00  0.00     0.202 C 
HETATM   28  C   UNL     1      40.542 -15.539  -2.965  1.00  0.00     0.202 C 
HETATM   29  C   UNL     1      38.829 -13.211   0.985  1.00  0.00     0.017 A 
ENDBRANCH   2  20
TORSDOF 4
ENDMDL
MODEL 4
REMARK VINA RESULT:      -7.9      1.816      3.175
REMARK  4 active torsions:
REMARK  status: ('A' for Active; 'I' for Inactive)
REMARK    1  A    between atoms: C_9  and  N_10 
REMARK    2  A    between atoms: N_10  and  C_12 
REMARK    3  A    between atoms: C_12  and  C_13 
REMARK    4  A    between atoms: C_14  and  C_15 
ROOT
HETATM    1  C   UNL     1      42.631 -14.939   5.818  1.00  0.00     0.016 A 
HETATM    2  C   UNL     1      43.726 -15.696   6.338  1.00  0.00     0.096 A 
HETATM    3  N   UNL     1      44.664 -14.892   6.851  1.00  0.00    -0.174 NA
HETATM    4  N   UNL     1      44.248 -13.651   6.576  1.00  0.00    -0.288 N 
HETATM    5  H   UNL     1      44.847 -12.872   6.839  1.00  0.00     0.188 HD
HETATM    6  C   UNL     1      43.017 -13.622   5.988  1.00  0.00     0.120 A 
ENDROOT
BRANCH   1   7
HETATM    7  C   UNL     1      41.347 -15.433   5.251  1.00  0.00     0.277 C 
BRANCH   7   8
HETATM    8  N   UNL     1      41.432 -15.869   3.799  1.00  0.00    -0.065 N 
HETATM    9  H   UNL     1      42.380 -15.661   3.461  1.00  0.00     0.280 HD
HETATM   10  C   UNL     1      41.173 -17.344   3.633  1.00  0.00     0.270 C 
BRANCH   8  11
HETATM   11  C   UNL     1      40.387 -15.123   3.026  1.00  0.00     0.205 C 
HETATM   12  C   UNL     1      40.759 -13.696   2.483  1.00  0.00     0.008 C 
HETATM   13  C   UNL     1      39.969 -12.582   3.181  1.00  0.00     0.020 C 
HETATM   14  C   UNL     1      42.225 -13.282   2.343  1.00  0.00     0.020 C 
HETATM   15  C   UNL     1      40.094 -14.113   1.132  1.00  0.00     0.137 C 
HETATM   16  C   UNL     1      40.162 -15.593   1.559  1.00  0.00     0.049 C 
HETATM   17  O   UNL     1      40.866 -13.940  -0.072  1.00  0.00    -0.385 OA
HETATM   18  C   UNL     1      41.249 -16.127   0.622  1.00  0.00     0.035 C 
HETATM   19  C   UNL     1      41.160 -15.233  -0.612  1.00  0.00     0.168 C 
ENDBRANCH   8  11
ENDBRANCH   7   8
ENDBRANCH   1   7
BRANCH   2  20
HETATM   20  C   UNL     1      43.869 -17.145   6.417  1.00  0.00    -0.002 A 
HETATM   21  C   UNL     1      44.277 -17.878   5.299  1.00  0.00     0.053 A 
HETATM   22  C   UNL     1      44.379 -19.267   5.375  1.00  0.00     0.103 A 
HETATM   23  C   UNL     1      44.064 -19.933   6.561  1.00  0.00     0.102 A 
HETATM   24  O   UNL     1      44.781 -19.914   4.236  1.00  0.00    -0.346 OA
HETATM   25  O   UNL     1      44.113 -21.295   6.696  1.00  0.00    -0.346 OA
HETATM   26  C   UNL     1      43.694 -19.205   7.689  1.00  0.00     0.040 A 
HETATM   27  C   UNL     1      44.231 -21.956   5.430  1.00  0.00     0.202 C 
HETATM   28  C   UNL     1      45.231 -21.244   4.532  1.00  0.00     0.202 C 
HETATM   29  C   UNL     1      43.599 -17.813   7.619  1.00  0.00     0.017 A 
ENDBRANCH   2  20
TORSDOF 4
ENDMDL
MODEL 5
REMARK VINA RESULT:      -7.9      3.175      8.064
REMARK  4 active torsions:
REMARK  status: ('A' for Active; 'I' for Inactive)
REMARK    1  A    between atoms: C_9  and  N_10 
REMARK    2  A    between atoms: N_10  and  C_12 
REMARK    3  A    between atoms: C_12  and  C_13 
REMARK    4  A    between atoms: C_14  and  C_15 
ROOT
HETATM    1  C   UNL     1      41.486 -16.084   2.952  1.00  0.00     0.016 A 
HETATM    2  C   UNL     1      40.513 -15.075   3.231  1.00  0.00     0.096 A 
HETATM    3  N   UNL     1      39.349 -15.356   2.636  1.00  0.00    -0.174 NA
HETATM    4  N   UNL     1      39.585 -16.449   1.904  1.00  0.00    -0.288 N 
HETATM    5  H   UNL     1      38.835 -16.812   1.321  1.00  0.00     0.188 HD
HETATM    6  C   UNL     1      40.843 -16.946   2.084  1.00  0.00     0.120 A 
ENDROOT
BRANCH   1   7
HETATM    7  C   UNL     1      42.868 -16.213   3.487  1.00  0.00     0.277 C 
BRANCH   7   8
HETATM    8  N   UNL     1      43.208 -17.596   4.016  1.00  0.00    -0.065 N 
HETATM    9  H   UNL     1      42.331 -18.046   4.310  1.00  0.00     0.280 HD
HETATM   10  C   UNL     1      43.867 -18.458   2.972  1.00  0.00     0.270 C 
BRANCH   8  11
HETATM   11  C   UNL     1      44.164 -17.437   5.160  1.00  0.00     0.205 C 
HETATM   12  C   UNL     1      43.585 -16.937   6.533  1.00  0.00     0.008 C 
HETATM   13  C   UNL     1      44.081 -15.533   6.899  1.00  0.00     0.020 C 
HETATM   14  C   UNL     1      42.087 -17.050   6.825  1.00  0.00     0.020 C 
HETATM   15  C   UNL     1      44.442 -18.048   7.219  1.00  0.00     0.137 C 
HETATM   16  C   UNL     1      44.612 -18.752   5.858  1.00  0.00     0.049 C 
HETATM   17  O   UNL     1      43.771 -18.944   8.126  1.00  0.00    -0.385 OA
HETATM   18  C   UNL     1      43.740 -19.996   6.052  1.00  0.00     0.035 C 
HETATM   19  C   UNL     1      43.778 -20.256   7.556  1.00  0.00     0.168 C 
ENDBRANCH   8  11
ENDBRANCH   7   8
ENDBRANCH   1   7
BRANCH   2  20
HETATM   20  C   UNL     1      40.642 -13.906   4.092  1.00  0.00    -0.002 A 
HETATM   21  C   UNL     1      39.787 -13.732   5.183  1.00  0.00     0.053 A 
HETATM   22  C   UNL     1      39.898 -12.594   5.982  1.00  0.00     0.103 A 
HETATM   23  C   UNL     1      40.852 -11.617   5.689  1.00  0.00     0.102 A 
HETATM   24  O   UNL     1      39.021 -12.494   7.030  1.00  0.00    -0.346 OA
HETATM   25  O   UNL     1      40.994 -10.462   6.412  1.00  0.00    -0.346 OA
HETATM   26  C   UNL     1      41.732 -11.803   4.626  1.00  0.00     0.040 A 
HETATM   27  C   UNL     1      39.885 -10.240   7.293  1.00  0.00     0.202 C 
HETATM   28  C   UNL     1      39.474 -11.528   7.989  1.00  0.00     0.202 C 
HETATM   29  C   UNL     1      41.630 -12.946   3.829  1.00  0.00     0.017 A 
ENDBRANCH   2  20
TORSDOF 4
ENDMDL
MODEL 6
REMARK VINA RESULT:      -7.8      2.753      5.704
REMARK  4 active torsions:
REMARK  status: ('A' for Active; 'I' for Inactive)
REMARK    1  A    between atoms: C_9  and  N_10 
REMARK    2  A    between atoms: N_10  and  C_12 
REMARK    3  A    between atoms: C_12  and  C_13 
REMARK    4  A    between atoms: C_14  and  C_15 
ROOT
HETATM    1  C   UNL     1      43.338 -18.075   3.816  1.00  0.00     0.016 A 
HETATM    2  C   UNL     1      42.738 -18.065   2.519  1.00  0.00     0.096 A 
HETATM    3  N   UNL     1      42.842 -19.264   1.935  1.00  0.00    -0.174 NA
HETATM    4  N   UNL     1      43.581 -19.998   2.774  1.00  0.00    -0.288 N 
HETATM    5  H   UNL     1      43.828 -20.946   2.497  1.00  0.00     0.188 HD
HETATM    6  C   UNL     1      43.876 -19.343   3.933  1.00  0.00     0.120 A 
ENDROOT
BRANCH   1   7
HETATM    7  C   UNL     1      43.360 -16.992   4.836  1.00  0.00     0.277 C 
BRANCH   7   8
HETATM    8  N   UNL     1      42.021 -16.308   5.053  1.00  0.00    -0.065 N 
HETATM    9  H   UNL     1      41.622 -16.094   4.129  1.00  0.00     0.280 HD
HETATM   10  C   UNL     1      41.053 -17.181   5.807  1.00  0.00     0.270 C 
BRANCH   8  11
HETATM   11  C   UNL     1      42.256 -15.067   5.860  1.00  0.00     0.205 C 
HETATM   12  C   UNL     1      43.239 -13.989   5.276  1.00  0.00     0.008 C 
HETATM   13  C   UNL     1      44.528 -13.868   6.099  1.00  0.00     0.020 C 
HETATM   14  C   UNL     1      43.575 -13.981   3.783  1.00  0.00     0.020 C 
HETATM   15  C   UNL     1      42.189 -12.909   5.688  1.00  0.00     0.137 C 
HETATM   16  C   UNL     1      41.116 -14.008   5.823  1.00  0.00     0.049 C 
HETATM   17  O   UNL     1      41.768 -11.970   4.679  1.00  0.00    -0.385 OA
HETATM   18  C   UNL     1      40.223 -13.707   4.616  1.00  0.00     0.035 C 
HETATM   19  C   UNL     1      40.388 -12.207   4.387  1.00  0.00     0.168 C 
ENDBRANCH   8  11
ENDBRANCH   7   8
ENDBRANCH   1   7
BRANCH   2  20
HETATM   20  C   UNL     1      42.021 -16.980   1.861  1.00  0.00    -0.002 A 
HETATM   21  C   UNL     1      40.685 -16.718   2.179  1.00  0.00     0.053 A 
HETATM   22  C   UNL     1      39.999 -15.698   1.521  1.00  0.00     0.103 A 
HETATM   23  C   UNL     1      40.635 -14.943   0.534  1.00  0.00     0.102 A 
HETATM   24  O   UNL     1      38.692 -15.506   1.887  1.00  0.00    -0.346 OA
HETATM   25  O   UNL     1      40.011 -13.949  -0.173  1.00  0.00    -0.346 OA
HETATM   26  C   UNL     1      41.976 -15.175   0.239  1.00  0.00     0.040 A 
HETATM   27  C   UNL     1      38.589 -13.976   0.004  1.00  0.00     0.202 C 
HETATM   28  C   UNL     1      38.223 -14.219   1.460  1.00  0.00     0.202 C 
HETATM   29  C   UNL     1      42.670 -16.189   0.902  1.00  0.00     0.017 A 
ENDBRANCH   2  20
TORSDOF 4
ENDMDL
MODEL 7
REMARK VINA RESULT:      -7.6      1.520      2.161
REMARK  4 active torsions:
REMARK  status: ('A' for Active; 'I' for Inactive)
REMARK    1  A    between atoms: C_9  and  N_10 
REMARK    2  A    between atoms: N_10  and  C_12 
REMARK    3  A    between atoms: C_12  and  C_13 
REMARK    4  A    between atoms: C_14  and  C_15 
ROOT
HETATM    1  C   UNL     1      42.287 -16.097   5.662  1.00  0.00     0.016 A 
HETATM    2  C   UNL     1      43.499 -16.806   5.927  1.00  0.00     0.096 A 
HETATM    3  N   UNL     1      44.344 -16.058   6.645  1.00  0.00    -0.174 NA
HETATM    4  N   UNL     1      43.752 -14.865   6.749  1.00  0.00    -0.288 N 
HETATM    5  H   UNL     1      44.253 -14.116   7.224  1.00  0.00     0.188 HD
HETATM    6  C   UNL     1      42.500 -14.844   6.206  1.00  0.00     0.120 A 
ENDROOT
BRANCH   1   7
HETATM    7  C   UNL     1      41.055 -16.585   4.986  1.00  0.00     0.277 C 
BRANCH   7   8
HETATM    8  N   UNL     1      40.288 -15.513   4.231  1.00  0.00    -0.065 N 
HETATM    9  H   UNL     1      39.455 -15.952   3.817  1.00  0.00     0.280 HD
HETATM   10  C   UNL     1      39.845 -14.390   5.132  1.00  0.00     0.270 C 
BRANCH   8  11
HETATM   11  C   UNL     1      41.195 -14.940   3.184  1.00  0.00     0.205 C 
HETATM   12  C   UNL     1      41.573 -15.855   1.963  1.00  0.00     0.008 C 
HETATM   13  C   UNL     1      43.055 -16.249   1.965  1.00  0.00     0.020 C 
HETATM   14  C   UNL     1      40.713 -17.072   1.617  1.00  0.00     0.020 C 
HETATM   15  C   UNL     1      41.307 -14.619   1.045  1.00  0.00     0.137 C 
HETATM   16  C   UNL     1      40.540 -13.934   2.195  1.00  0.00     0.049 C 
HETATM   17  O   UNL     1      40.411 -14.797  -0.070  1.00  0.00    -0.385 OA
HETATM   18  C   UNL     1      39.099 -14.006   1.680  1.00  0.00     0.035 C 
HETATM   19  C   UNL     1      39.238 -14.010   0.160  1.00  0.00     0.168 C 
ENDBRANCH   8  11
ENDBRANCH   7   8
ENDBRANCH   1   7
BRANCH   2  20
HETATM   20  C   UNL     1      43.840 -18.180   5.576  1.00  0.00    -0.002 A 
HETATM   21  C   UNL     1      43.970 -18.557   4.237  1.00  0.00     0.053 A 
HETATM   22  C   UNL     1      44.265 -19.881   3.911  1.00  0.00     0.103 A 
HETATM   23  C   UNL     1      44.418 -20.837   4.916  1.00  0.00     0.102 A 
HETATM   24  O   UNL     1      44.372 -20.172   2.576  1.00  0.00    -0.346 OA
HETATM   25  O   UNL     1      44.676 -22.159   4.665  1.00  0.00    -0.346 OA
HETATM   26  C   UNL     1      44.327 -20.459   6.254  1.00  0.00     0.040 A 
HETATM   27  C   UNL     1      44.479 -22.492   3.286  1.00  0.00     0.202 C 
HETATM   28  C   UNL     1      45.055 -21.418   2.376  1.00  0.00     0.202 C 
HETATM   29  C   UNL     1      44.041 -19.133   6.584  1.00  0.00     0.017 A 
ENDBRANCH   2  20
TORSDOF 4
ENDMDL
MODEL 8
REMARK VINA RESULT:      -7.5      2.424      7.721
REMARK  4 active torsions:
REMARK  status: ('A' for Active; 'I' for Inactive)
REMARK    1  A    between atoms: C_9  and  N_10 
REMARK    2  A    between atoms: N_10  and  C_12 
REMARK    3  A    between atoms: C_12  and  C_13 
REMARK    4  A    between atoms: C_14  and  C_15 
ROOT
HETATM    1  C   UNL     1      41.027 -15.967   1.291  1.00  0.00     0.016 A 
HETATM    2  C   UNL     1      40.970 -14.558   1.056  1.00  0.00     0.096 A 
HETATM    3  N   UNL     1      41.383 -14.263  -0.181  1.00  0.00    -0.174 NA
HETATM    4  N   UNL     1      41.801 -15.424  -0.696  1.00  0.00    -0.288 N 
HETATM    5  H   UNL     1      42.209 -15.420  -1.629  1.00  0.00     0.188 HD
HETATM    6  C   UNL     1      41.577 -16.483   0.134  1.00  0.00     0.120 A 
ENDROOT
BRANCH   1   7
HETATM    7  C   UNL     1      40.573 -16.727   2.487  1.00  0.00     0.277 C 
BRANCH   7   8
HETATM    8  N   UNL     1      41.557 -16.720   3.644  1.00  0.00    -0.065 N 
HETATM    9  H   UNL     1      42.343 -16.108   3.387  1.00  0.00     0.280 HD
HETATM   10  C   UNL     1      40.937 -16.200   4.915  1.00  0.00     0.270 C 
BRANCH   8  11
HETATM   11  C   UNL     1      42.003 -18.130   3.886  1.00  0.00     0.205 C 
HETATM   12  C   UNL     1      43.253 -18.649   3.087  1.00  0.00     0.008 C 
HETATM   13  C   UNL     1      42.884 -19.733   2.066  1.00  0.00     0.020 C 
HETATM   14  C   UNL     1      44.232 -17.656   2.457  1.00  0.00     0.020 C 
HETATM   15  C   UNL     1      43.764 -19.269   4.426  1.00  0.00     0.137 C 
HETATM   16  C   UNL     1      42.781 -18.378   5.211  1.00  0.00     0.049 C 
HETATM   17  O   UNL     1      45.109 -18.953   4.837  1.00  0.00    -0.385 OA
HETATM   18  C   UNL     1      43.739 -17.386   5.876  1.00  0.00     0.035 C 
HETATM   19  C   UNL     1      45.045 -18.163   6.028  1.00  0.00     0.168 C 
ENDBRANCH   8  11
ENDBRANCH   7   8
ENDBRANCH   1   7
BRANCH   2  20
HETATM   20  C   UNL     1      40.476 -13.511   1.942  1.00  0.00    -0.002 A 
HETATM   21  C   UNL     1      41.310 -12.958   2.918  1.00  0.00     0.053 A 
HETATM   22  C   UNL     1      40.818 -11.979   3.781  1.00  0.00     0.103 A 
HETATM   23  C   UNL     1      39.491 -11.556   3.686  1.00  0.00     0.102 A 
HETATM   24  O   UNL     1      41.696 -11.490   4.713  1.00  0.00    -0.346 OA
HETATM   25  O   UNL     1      38.936 -10.623   4.521  1.00  0.00    -0.346 OA
HETATM   26  C   UNL     1      38.667 -12.076   2.691  1.00  0.00     0.040 A 
HETATM   27  C   UNL     1      39.766 -10.360   5.660  1.00  0.00     0.202 C 
HETATM   28  C   UNL     1      41.228 -10.247   5.257  1.00  0.00     0.202 C 
HETATM   29  C   UNL     1      39.158 -13.050   1.818  1.00  0.00     0.017 A 
ENDBRANCH   2  20
TORSDOF 4
ENDMDL
MODEL 9
REMARK VINA RESULT:      -7.5      2.427      7.302
REMARK  4 active torsions:
REMARK  status: ('A' for Active; 'I' for Inactive)
REMARK    1  A    between atoms: C_9  and  N_10 
REMARK    2  A    between atoms: N_10  and  C_12 
REMARK    3  A    between atoms: C_12  and  C_13 
REMARK    4  A    between atoms: C_14  and  C_15 
ROOT
HETATM    1  C   UNL     1      41.300 -14.278   2.102  1.00  0.00     0.016 A 
HETATM    2  C   UNL     1      41.445 -13.584   0.861  1.00  0.00     0.096 A 
HETATM    3  N   UNL     1      42.189 -12.483   1.014  1.00  0.00    -0.174 NA
HETATM    4  N   UNL     1      42.426 -12.401   2.327  1.00  0.00    -0.288 N 
HETATM    5  H   UNL     1      42.943 -11.596   2.675  1.00  0.00     0.188 HD
HETATM    6  C   UNL     1      41.944 -13.472   3.021  1.00  0.00     0.120 A 
ENDROOT
BRANCH   1   7
HETATM    7  C   UNL     1      40.639 -15.586   2.361  1.00  0.00     0.277 C 
BRANCH   7   8
HETATM    8  N   UNL     1      41.565 -16.786   2.258  1.00  0.00    -0.065 N 
HETATM    9  H   UNL     1      41.015 -17.629   2.473  1.00  0.00     0.280 HD
HETATM   10  C   UNL     1      42.155 -16.932   0.880  1.00  0.00     0.270 C 
BRANCH   8  11
HETATM   11  C   UNL     1      42.691 -16.592   3.228  1.00  0.00     0.205 C 
HETATM   12  C   UNL     1      42.444 -17.001   4.726  1.00  0.00     0.008 C 
HETATM   13  C   UNL     1      42.418 -15.789   5.665  1.00  0.00     0.020 C 
HETATM   14  C   UNL     1      41.309 -17.961   5.086  1.00  0.00     0.020 C 
HETATM   15  C   UNL     1      43.852 -17.678   4.699  1.00  0.00     0.137 C 
HETATM   16  C   UNL     1      43.836 -17.642   3.158  1.00  0.00     0.049 C 
HETATM   17  O   UNL     1      43.940 -19.050   5.132  1.00  0.00    -0.385 OA
HETATM   18  C   UNL     1      43.660 -19.127   2.824  1.00  0.00     0.035 C 
HETATM   19  C   UNL     1      44.292 -19.859   4.005  1.00  0.00     0.168 C 
ENDBRANCH   8  11
ENDBRANCH   7   8
ENDBRANCH   1   7
BRANCH   2  20
HETATM   20  C   UNL     1      40.958 -13.972  -0.456  1.00  0.00    -0.002 A 
HETATM   21  C   UNL     1      39.586 -14.018  -0.719  1.00  0.00     0.053 A 
HETATM   22  C   UNL     1      39.130 -14.421  -1.974  1.00  0.00     0.103 A 
HETATM   23  C   UNL     1      40.036 -14.794  -2.968  1.00  0.00     0.102 A 
HETATM   24  O   UNL     1      37.771 -14.444  -2.152  1.00  0.00    -0.346 OA
HETATM   25  O   UNL     1      39.655 -15.230  -4.210  1.00  0.00    -0.346 OA
HETATM   26  C   UNL     1      41.405 -14.714  -2.724  1.00  0.00     0.040 A 
HETATM   27  C   UNL     1      38.256 -15.535  -4.266  1.00  0.00     0.202 C 
HETATM   28  C   UNL     1      37.436 -14.476  -3.547  1.00  0.00     0.202 C 
HETATM   29  C   UNL     1      41.866 -14.302  -1.472  1.00  0.00     0.017 A 
ENDBRANCH   2  20
TORSDOF 4
ENDMDL
MODEL 10
REMARK VINA RESULT:      -7.5      2.343      4.160
REMARK  4 active torsions:
REMARK  status: ('A' for Active; 'I' for Inactive)
REMARK    1  A    between atoms: C_9  and  N_10 
REMARK    2  A    between atoms: N_10  and  C_12 
REMARK    3  A    between atoms: C_12  and  C_13 
REMARK    4  A    between atoms: C_14  and  C_15 
ROOT
HETATM    1  C   UNL     1      41.389 -16.449   1.636  1.00  0.00     0.016 A 
HETATM    2  C   UNL     1      42.511 -17.312   1.437  1.00  0.00     0.096 A 
HETATM    3  N   UNL     1      43.006 -17.174   0.202  1.00  0.00    -0.174 NA
HETATM    4  N   UNL     1      42.171 -16.334  -0.418  1.00  0.00    -0.288 N 
HETATM    5  H   UNL     1      42.336 -16.126  -1.400  1.00  0.00     0.188 HD
HETATM    6  C   UNL     1      41.203 -15.843   0.408  1.00  0.00     0.120 A 
ENDROOT
BRANCH   1   7
HETATM    7  C   UNL     1      40.607 -16.216   2.881  1.00  0.00     0.277 C 
BRANCH   7   8
HETATM    8  N   UNL     1      40.311 -14.755   3.170  1.00  0.00    -0.065 N 
HETATM    9  H   UNL     1      41.040 -14.188   2.715  1.00  0.00     0.280 HD
HETATM   10  C   UNL     1      38.968 -14.331   2.636  1.00  0.00     0.270 C 
BRANCH   8  11
HETATM   11  C   UNL     1      40.303 -14.564   4.656  1.00  0.00     0.205 C 
HETATM   12  C   UNL     1      41.689 -14.509   5.395  1.00  0.00     0.008 C 
HETATM   13  C   UNL     1      41.916 -15.724   6.303  1.00  0.00     0.020 C 
HETATM   14  C   UNL     1      42.967 -14.200   4.612  1.00  0.00     0.020 C 
HETATM   15  C   UNL     1      41.135 -13.288   6.195  1.00  0.00     0.137 C 
HETATM   16  C   UNL     1      40.010 -13.120   5.154  1.00  0.00     0.049 C 
HETATM   17  O   UNL     1      41.931 -12.087   6.216  1.00  0.00    -0.385 OA
HETATM   18  C   UNL     1      40.443 -11.832   4.447  1.00  0.00     0.035 C 
HETATM   19  C   UNL     1      41.227 -11.063   5.507  1.00  0.00     0.168 C 
ENDBRANCH   8  11
ENDBRANCH   7   8
ENDBRANCH   1   7
BRANCH   2  20
HETATM   20  C   UNL     1      43.153 -18.200   2.398  1.00  0.00    -0.002 A 
HETATM   21  C   UNL     1      43.275 -19.566   2.128  1.00  0.00     0.053 A 
HETATM   22  C   UNL     1      43.862 -20.413   3.068  1.00  0.00     0.103 A 
HETATM   23  C   UNL     1      44.319 -19.906   4.286  1.00  0.00     0.102 A 
HETATM   24  O   UNL     1      43.942 -21.738   2.731  1.00  0.00    -0.346 OA
HETATM   25  O   UNL     1      44.875 -20.685   5.265  1.00  0.00    -0.346 OA
HETATM   26  C   UNL     1      44.234 -18.540   4.545  1.00  0.00     0.040 A 
HETATM   27  C   UNL     1      44.668 -22.082   5.023  1.00  0.00     0.202 C 
HETATM   28  C   UNL     1      44.894 -22.423   3.558  1.00  0.00     0.202 C 
HETATM   29  C   UNL     1      43.654 -17.687   3.602  1.00  0.00     0.017 A 
ENDBRANCH   2  20
TORSDOF 4
ENDMDL
