MODEL 1
REMARK VINA RESULT:      -9.1      0.000      0.000
REMARK  9 active torsions:
REMARK  status: ('A' for Active; 'I' for Inactive)
REMARK    1  A    between atoms: C_4  and  C_5 
REMARK    2  A    between atoms: N_10  and  C_11 
REMARK    3  A    between atoms: C_11  and  C_12 
REMARK    4  A    between atoms: C_12  and  C_13 
REMARK    5  A    between atoms: C_13  and  C_14 
REMARK    6  A    between atoms: C_14  and  C_15 
REMARK    7  A    between atoms: C_15  and  C_16 
REMARK       I    between atoms: C_16  and  N_17 
REMARK    8  A    between atoms: N_17  and  C_18 
REMARK    9  A    between atoms: C_26  and  C_27 
REMARK       I    between atoms: C_27  and  N_28 
ROOT
HETATM    1  C   UNL     1      40.109 -11.392   7.344  1.00  0.00     0.103 C 
ENDROOT
BRANCH   1   2
HETATM    2  C   UNL     1      39.439 -11.917   6.071  1.00  0.00     0.009 C 
BRANCH   2   3
HETATM    3  C   UNL     1      39.255 -13.439   6.080  1.00  0.00     0.002 C 
BRANCH   3   4
HETATM    4  C   UNL     1      40.572 -14.171   5.820  1.00  0.00     0.020 C 
BRANCH   4   5
HETATM    5  C   UNL     1      41.212 -13.811   4.473  1.00  0.00     0.134 C 
BRANCH   5   6
HETATM    6  N   UNL     1      41.614 -15.020   3.753  1.00  0.00    -0.298 N 
HETATM    7  C   UNL     1      40.862 -15.645   2.780  1.00  0.00     0.148 C 
HETATM    8  S   UNL     1      41.657 -17.133   2.279  1.00  0.00    -0.055 SA
HETATM    9  S   UNL     1      39.408 -15.158   2.122  1.00  0.00    -0.052 SA
HETATM   10  C   UNL     1      42.886 -16.983   3.466  1.00  0.00     0.076 C 
HETATM   11  C   UNL     1      43.815 -17.873   3.841  1.00  0.00     0.036 C 
HETATM   12  C   UNL     1      42.774 -15.666   4.147  1.00  0.00     0.266 C 
HETATM   13  O   UNL     1      43.584 -15.254   4.966  1.00  0.00    -0.266 OA
BRANCH  11  14
HETATM   14  C   UNL     1      44.019 -19.246   3.357  1.00  0.00    -0.035 A 
HETATM   15  C   UNL     1      44.647 -20.170   4.204  1.00  0.00     0.011 A 
HETATM   16  C   UNL     1      44.794 -21.504   3.818  1.00  0.00     0.001 A 
HETATM   17  C   UNL     1      44.310 -21.931   2.583  1.00  0.00     0.000 A 
HETATM   18  C   UNL     1      43.669 -21.026   1.740  1.00  0.00     0.001 A 
HETATM   19  C   UNL     1      43.513 -19.694   2.130  1.00  0.00     0.011 A 
ENDBRANCH  11  14
ENDBRANCH   5   6
ENDBRANCH   4   5
ENDBRANCH   3   4
ENDBRANCH   2   3
ENDBRANCH   1   2
BRANCH   1  20
HETATM   20  C   UNL     1      41.313 -10.507   7.086  1.00  0.00     0.222 C 
HETATM   21  N   UNL     1      42.006  -9.903   8.093  1.00  0.00    -0.320 N 
HETATM   22  H   UNL     1      42.779  -9.345   7.725  1.00  0.00     0.169 HD
HETATM   23  O   UNL     1      41.724 -10.318   5.935  1.00  0.00    -0.273 OA
BRANCH  21  24
HETATM   24  C   UNL     1      41.885  -9.874   9.474  1.00  0.00     0.093 A 
HETATM   25  S   UNL     1      40.624  -9.065  10.261  1.00  0.00    -0.075 SA
HETATM   26  C   UNL     1      41.234  -9.427  11.794  1.00  0.00    -0.008 A 
HETATM   27  C   UNL     1      42.373 -10.209  11.747  1.00  0.00    -0.026 A 
HETATM   28  C   UNL     1      40.564  -8.924  13.036  1.00  0.00     0.047 C 
HETATM   29  C   UNL     1      43.106 -10.574  13.011  1.00  0.00     0.041 C 
HETATM   30  C   UNL     1      42.756 -10.489  10.374  1.00  0.00     0.072 A 
HETATM   31  C   UNL     1      42.264 -10.326  14.274  1.00  0.00     0.005 C 
HETATM   32  C   UNL     1      41.533  -8.981  14.222  1.00  0.00     0.005 C 
BRANCH  30  33
HETATM   33  C   UNL     1      43.904 -11.263   9.897  1.00  0.00     0.252 C 
HETATM   34  N   UNL     1      43.911 -12.595  10.191  1.00  0.00    -0.366 N 
HETATM   35  H   UNL     1      43.047 -13.066  10.412  1.00  0.00     0.159 HD
HETATM   36  H   UNL     1      44.621 -13.136   9.713  1.00  0.00     0.159 HD
HETATM   37  O   UNL     1      44.788 -10.786   9.191  1.00  0.00    -0.268 OA
ENDBRANCH  30  33
ENDBRANCH  21  24
ENDBRANCH   1  20
TORSDOF 9
ENDMDL
MODEL 2
REMARK VINA RESULT:      -9.0      2.417     10.864
REMARK  9 active torsions:
REMARK  status: ('A' for Active; 'I' for Inactive)
REMARK    1  A    between atoms: C_4  and  C_5 
REMARK    2  A    between atoms: N_10  and  C_11 
REMARK    3  A    between atoms: C_11  and  C_12 
REMARK    4  A    between atoms: C_12  and  C_13 
REMARK    5  A    between atoms: C_13  and  C_14 
REMARK    6  A    between atoms: C_14  and  C_15 
REMARK    7  A    between atoms: C_15  and  C_16 
REMARK       I    between atoms: C_16  and  N_17 
REMARK    8  A    between atoms: N_17  and  C_18 
REMARK    9  A    between atoms: C_26  and  C_27 
REMARK       I    between atoms: C_27  and  N_28 
ROOT
HETATM    1  C   UNL     1      41.441 -16.203   5.710  1.00  0.00     0.103 C 
ENDROOT
BRANCH   1   2
HETATM    2  C   UNL     1      40.658 -15.195   4.864  1.00  0.00     0.009 C 
BRANCH   2   3
HETATM    3  C   UNL     1      39.911 -14.159   5.713  1.00  0.00     0.002 C 
BRANCH   3   4
HETATM    4  C   UNL     1      40.445 -12.745   5.481  1.00  0.00     0.020 C 
BRANCH   4   5
HETATM    5  C   UNL     1      39.461 -11.648   5.908  1.00  0.00     0.134 C 
BRANCH   5   6
HETATM    6  N   UNL     1      40.002 -10.876   7.028  1.00  0.00    -0.298 N 
HETATM    7  C   UNL     1      40.883  -9.821   6.905  1.00  0.00     0.148 C 
HETATM    8  S   UNL     1      41.379  -9.273   8.502  1.00  0.00    -0.055 SA
HETATM    9  S   UNL     1      41.460  -9.109   5.511  1.00  0.00    -0.052 SA
HETATM   10  C   UNL     1      40.539 -10.539   9.297  1.00  0.00     0.076 C 
HETATM   11  C   UNL     1      40.587 -10.911  10.584  1.00  0.00     0.036 C 
HETATM   12  C   UNL     1      39.717 -11.296   8.316  1.00  0.00     0.266 C 
HETATM   13  O   UNL     1      38.938 -12.187   8.626  1.00  0.00    -0.266 OA
BRANCH  11  14
HETATM   14  C   UNL     1      41.403 -10.352  11.671  1.00  0.00    -0.035 A 
HETATM   15  C   UNL     1      42.789 -10.561  11.645  1.00  0.00     0.011 A 
HETATM   16  C   UNL     1      43.614  -9.985  12.613  1.00  0.00     0.001 A 
HETATM   17  C   UNL     1      43.064  -9.190  13.616  1.00  0.00     0.000 A 
HETATM   18  C   UNL     1      41.690  -8.961  13.643  1.00  0.00     0.001 A 
HETATM   19  C   UNL     1      40.866  -9.528  12.669  1.00  0.00     0.011 A 
ENDBRANCH  11  14
ENDBRANCH   5   6
ENDBRANCH   4   5
ENDBRANCH   3   4
ENDBRANCH   2   3
ENDBRANCH   1   2
BRANCH   1  20
HETATM   20  C   UNL     1      42.909 -15.859   5.877  1.00  0.00     0.222 C 
HETATM   21  N   UNL     1      43.907 -16.680   5.443  1.00  0.00    -0.320 N 
HETATM   22  H   UNL     1      44.825 -16.283   5.647  1.00  0.00     0.169 HD
HETATM   23  O   UNL     1      43.253 -14.794   6.404  1.00  0.00    -0.273 OA
BRANCH  21  24
HETATM   24  C   UNL     1      43.943 -17.913   4.809  1.00  0.00     0.093 A 
HETATM   25  S   UNL     1      44.447 -19.326   5.592  1.00  0.00    -0.075 SA
HETATM   26  C   UNL     1      44.284 -20.261   4.196  1.00  0.00    -0.008 A 
HETATM   27  C   UNL     1      43.797 -19.539   3.122  1.00  0.00    -0.026 A 
HETATM   28  C   UNL     1      44.644 -21.715   4.186  1.00  0.00     0.047 C 
HETATM   29  C   UNL     1      43.652 -20.183   1.767  1.00  0.00     0.041 C 
HETATM   30  C   UNL     1      43.579 -18.149   3.483  1.00  0.00     0.072 A 
HETATM   31  C   UNL     1      43.725 -21.718   1.832  1.00  0.00     0.005 C 
HETATM   32  C   UNL     1      44.854 -22.201   2.748  1.00  0.00     0.005 C 
BRANCH  30  33
HETATM   33  C   UNL     1      43.091 -17.061   2.633  1.00  0.00     0.252 C 
HETATM   34  N   UNL     1      41.834 -17.198   2.123  1.00  0.00    -0.366 N 
HETATM   35  H   UNL     1      41.175 -17.820   2.568  1.00  0.00     0.159 HD
HETATM   36  H   UNL     1      41.457 -16.368   1.683  1.00  0.00     0.159 HD
HETATM   37  O   UNL     1      43.722 -16.026   2.440  1.00  0.00    -0.268 OA
ENDBRANCH  30  33
ENDBRANCH  21  24
ENDBRANCH   1  20
TORSDOF 9
ENDMDL
MODEL 3
REMARK VINA RESULT:      -9.0      5.257      9.283
REMARK  9 active torsions:
REMARK  status: ('A' for Active; 'I' for Inactive)
REMARK    1  A    between atoms: C_4  and  C_5 
REMARK    2  A    between atoms: N_10  and  C_11 
REMARK    3  A    between atoms: C_11  and  C_12 
REMARK    4  A    between atoms: C_12  and  C_13 
REMARK    5  A    between atoms: C_13  and  C_14 
REMARK    6  A    between atoms: C_14  and  C_15 
REMARK    7  A    between atoms: C_15  and  C_16 
REMARK       I    between atoms: C_16  and  N_17 
REMARK    8  A    between atoms: N_17  and  C_18 
REMARK    9  A    between atoms: C_26  and  C_27 
REMARK       I    between atoms: C_27  and  N_28 
ROOT
HETATM    1  C   UNL     1      39.411 -13.836   2.125  1.00  0.00     0.103 C 
ENDROOT
BRANCH   1   2
HETATM    2  C   UNL     1      39.949 -13.594   3.539  1.00  0.00     0.009 C 
BRANCH   2   3
HETATM    3  C   UNL     1      41.237 -12.763   3.551  1.00  0.00     0.002 C 
BRANCH   3   4
HETATM    4  C   UNL     1      42.099 -13.069   4.776  1.00  0.00     0.020 C 
BRANCH   4   5
HETATM    5  C   UNL     1      43.459 -13.685   4.422  1.00  0.00     0.134 C 
BRANCH   5   6
HETATM    6  N   UNL     1      43.420 -15.141   4.569  1.00  0.00    -0.298 N 
HETATM    7  C   UNL     1      43.653 -15.821   5.747  1.00  0.00     0.148 C 
HETATM    8  S   UNL     1      43.640 -17.554   5.444  1.00  0.00    -0.055 SA
HETATM    9  S   UNL     1      43.928 -15.195   7.268  1.00  0.00    -0.052 SA
HETATM   10  C   UNL     1      43.480 -17.349   3.749  1.00  0.00     0.076 C 
HETATM   11  C   UNL     1      43.580 -18.261   2.772  1.00  0.00     0.036 C 
HETATM   12  C   UNL     1      43.259 -15.914   3.431  1.00  0.00     0.266 C 
HETATM   13  O   UNL     1      43.011 -15.497   2.308  1.00  0.00    -0.266 OA
BRANCH  11  14
HETATM   14  C   UNL     1      43.887 -19.694   2.882  1.00  0.00    -0.035 A 
HETATM   15  C   UNL     1      43.472 -20.550   1.853  1.00  0.00     0.011 A 
HETATM   16  C   UNL     1      43.807 -21.906   1.876  1.00  0.00     0.001 A 
HETATM   17  C   UNL     1      44.565 -22.420   2.926  1.00  0.00     0.000 A 
HETATM   18  C   UNL     1      44.997 -21.576   3.946  1.00  0.00     0.001 A 
HETATM   19  C   UNL     1      44.671 -20.219   3.918  1.00  0.00     0.011 A 
ENDBRANCH  11  14
ENDBRANCH   5   6
ENDBRANCH   4   5
ENDBRANCH   3   4
ENDBRANCH   2   3
ENDBRANCH   1   2
BRANCH   1  20
HETATM   20  C   UNL     1      39.884 -15.135   1.500  1.00  0.00     0.222 C 
HETATM   21  N   UNL     1      40.624 -15.169   0.355  1.00  0.00    -0.320 N 
HETATM   22  H   UNL     1      40.842 -16.130   0.087  1.00  0.00     0.169 HD
HETATM   23  O   UNL     1      39.626 -16.222   2.030  1.00  0.00    -0.273 OA
BRANCH  21  24
HETATM   24  C   UNL     1      41.121 -14.205  -0.509  1.00  0.00     0.093 A 
HETATM   25  S   UNL     1      42.099 -12.928   0.017  1.00  0.00    -0.075 SA
HETATM   26  C   UNL     1      42.175 -12.239  -1.523  1.00  0.00    -0.008 A 
HETATM   27  C   UNL     1      41.507 -12.983  -2.477  1.00  0.00    -0.026 A 
HETATM   28  C   UNL     1      42.906 -10.954  -1.765  1.00  0.00     0.047 C 
HETATM   29  C   UNL     1      41.399 -12.492  -3.897  1.00  0.00     0.041 C 
HETATM   30  C   UNL     1      40.891 -14.159  -1.884  1.00  0.00     0.072 A 
HETATM   31  C   UNL     1      42.390 -11.357  -4.206  1.00  0.00     0.005 C 
HETATM   32  C   UNL     1      42.443 -10.319  -3.080  1.00  0.00     0.005 C 
BRANCH  30  33
HETATM   33  C   UNL     1      40.086 -15.187  -2.546  1.00  0.00     0.252 C 
HETATM   34  N   UNL     1      38.788 -14.867  -2.821  1.00  0.00    -0.366 N 
HETATM   35  H   UNL     1      38.510 -13.898  -2.878  1.00  0.00     0.159 HD
HETATM   36  H   UNL     1      38.304 -15.520  -3.422  1.00  0.00     0.159 HD
HETATM   37  O   UNL     1      40.546 -16.259  -2.927  1.00  0.00    -0.268 OA
ENDBRANCH  30  33
ENDBRANCH  21  24
ENDBRANCH   1  20
TORSDOF 9
ENDMDL
MODEL 4
REMARK VINA RESULT:      -8.9      2.193     10.340
REMARK  9 active torsions:
REMARK  status: ('A' for Active; 'I' for Inactive)
REMARK    1  A    between atoms: C_4  and  C_5 
REMARK    2  A    between atoms: N_10  and  C_11 
REMARK    3  A    between atoms: C_11  and  C_12 
REMARK    4  A    between atoms: C_12  and  C_13 
REMARK    5  A    between atoms: C_13  and  C_14 
REMARK    6  A    between atoms: C_14  and  C_15 
REMARK    7  A    between atoms: C_15  and  C_16 
REMARK       I    between atoms: C_16  and  N_17 
REMARK    8  A    between atoms: N_17  and  C_18 
REMARK    9  A    between atoms: C_26  and  C_27 
REMARK       I    between atoms: C_27  and  N_28 
ROOT
HETATM    1  C   UNL     1      41.502 -13.878   2.948  1.00  0.00     0.103 C 
ENDROOT
BRANCH   1   2
HETATM    2  C   UNL     1      41.350 -12.550   3.696  1.00  0.00     0.009 C 
BRANCH   2   3
HETATM    3  C   UNL     1      41.611 -12.682   5.201  1.00  0.00     0.002 C 
BRANCH   3   4
HETATM    4  C   UNL     1      40.313 -12.844   5.990  1.00  0.00     0.020 C 
BRANCH   4   5
HETATM    5  C   UNL     1      39.531 -11.533   6.148  1.00  0.00     0.134 C 
BRANCH   5   6
HETATM    6  N   UNL     1      40.029 -10.771   7.295  1.00  0.00    -0.298 N 
HETATM    7  C   UNL     1      40.875  -9.685   7.211  1.00  0.00     0.148 C 
HETATM    8  S   UNL     1      41.328  -9.159   8.828  1.00  0.00    -0.055 SA
HETATM    9  S   UNL     1      41.450  -8.921   5.844  1.00  0.00    -0.052 SA
HETATM   10  C   UNL     1      40.518 -10.471   9.580  1.00  0.00     0.076 C 
HETATM   11  C   UNL     1      40.559 -10.871  10.859  1.00  0.00     0.036 C 
HETATM   12  C   UNL     1      39.738 -11.231   8.568  1.00  0.00     0.266 C 
HETATM   13  O   UNL     1      38.985 -12.154   8.844  1.00  0.00    -0.266 OA
BRANCH  11  14
HETATM   14  C   UNL     1      41.339 -10.312  11.971  1.00  0.00    -0.035 A 
HETATM   15  C   UNL     1      42.729 -10.491  11.973  1.00  0.00     0.011 A 
HETATM   16  C   UNL     1      43.521  -9.912  12.967  1.00  0.00     0.001 A 
HETATM   17  C   UNL     1      42.932  -9.144  13.969  1.00  0.00     0.000 A 
HETATM   18  C   UNL     1      41.553  -8.945  13.970  1.00  0.00     0.001 A 
HETATM   19  C   UNL     1      40.763  -9.515  12.969  1.00  0.00     0.011 A 
ENDBRANCH  11  14
ENDBRANCH   5   6
ENDBRANCH   4   5
ENDBRANCH   3   4
ENDBRANCH   2   3
ENDBRANCH   1   2
BRANCH   1  20
HETATM   20  C   UNL     1      40.279 -14.772   3.024  1.00  0.00     0.222 C 
HETATM   21  N   UNL     1      40.367 -16.116   3.240  1.00  0.00    -0.320 N 
HETATM   22  H   UNL     1      39.441 -16.547   3.254  1.00  0.00     0.169 HD
HETATM   23  O   UNL     1      39.142 -14.299   2.910  1.00  0.00    -0.273 OA
BRANCH  21  24
HETATM   24  C   UNL     1      41.416 -17.002   3.429  1.00  0.00     0.093 A 
HETATM   25  S   UNL     1      42.184 -17.792   2.145  1.00  0.00    -0.075 SA
HETATM   26  C   UNL     1      43.193 -18.671   3.176  1.00  0.00    -0.008 A 
HETATM   27  C   UNL     1      43.007 -18.350   4.508  1.00  0.00    -0.026 A 
HETATM   28  C   UNL     1      44.165 -19.677   2.642  1.00  0.00     0.047 C 
HETATM   29  C   UNL     1      43.763 -19.083   5.586  1.00  0.00     0.041 C 
HETATM   30  C   UNL     1      41.965 -17.350   4.664  1.00  0.00     0.072 A 
HETATM   31  C   UNL     1      44.959 -19.877   5.033  1.00  0.00     0.005 C 
HETATM   32  C   UNL     1      44.599 -20.639   3.753  1.00  0.00     0.005 C 
BRANCH  30  33
HETATM   33  C   UNL     1      41.458 -16.760   5.904  1.00  0.00     0.252 C 
HETATM   34  N   UNL     1      42.308 -15.938   6.584  1.00  0.00    -0.366 N 
HETATM   35  H   UNL     1      43.082 -15.505   6.103  1.00  0.00     0.159 HD
HETATM   36  H   UNL     1      41.885 -15.414   7.339  1.00  0.00     0.159 HD
HETATM   37  O   UNL     1      40.304 -16.906   6.295  1.00  0.00    -0.268 OA
ENDBRANCH  30  33
ENDBRANCH  21  24
ENDBRANCH   1  20
TORSDOF 9
ENDMDL
MODEL 5
REMARK VINA RESULT:      -8.9      5.711     10.065
REMARK  9 active torsions:
REMARK  status: ('A' for Active; 'I' for Inactive)
REMARK    1  A    between atoms: C_4  and  C_5 
REMARK    2  A    between atoms: N_10  and  C_11 
REMARK    3  A    between atoms: C_11  and  C_12 
REMARK    4  A    between atoms: C_12  and  C_13 
REMARK    5  A    between atoms: C_13  and  C_14 
REMARK    6  A    between atoms: C_14  and  C_15 
REMARK    7  A    between atoms: C_15  and  C_16 
REMARK       I    between atoms: C_16  and  N_17 
REMARK    8  A    between atoms: N_17  and  C_18 
REMARK    9  A    between atoms: C_26  and  C_27 
REMARK       I    between atoms: C_27  and  N_28 
ROOT
HETATM    1  C   UNL     1      40.724 -14.419   0.613  1.00  0.00     0.103 C 
ENDROOT
BRANCH   1   2
HETATM    2  C   UNL     1      39.931 -14.982   1.796  1.00  0.00     0.009 C 
BRANCH   2   3
HETATM    3  C   UNL     1      40.064 -14.127   3.062  1.00  0.00     0.002 C 
BRANCH   3   4
HETATM    4  C   UNL     1      41.455 -13.507   3.184  1.00  0.00     0.020 C 
BRANCH   4   5
HETATM    5  C   UNL     1      42.297 -14.119   4.312  1.00  0.00     0.134 C 
BRANCH   5   6
HETATM    6  N   UNL     1      42.296 -15.580   4.220  1.00  0.00    -0.298 N 
HETATM    7  C   UNL     1      41.611 -16.423   5.071  1.00  0.00     0.148 C 
HETATM    8  S   UNL     1      41.995 -18.096   4.685  1.00  0.00    -0.055 SA
HETATM    9  S   UNL     1      40.568 -16.022   6.310  1.00  0.00    -0.052 SA
HETATM   10  C   UNL     1      43.166 -17.653   3.514  1.00  0.00     0.076 C 
HETATM   11  C   UNL     1      44.060 -18.421   2.876  1.00  0.00     0.036 C 
HETATM   12  C   UNL     1      43.132 -16.183   3.295  1.00  0.00     0.266 C 
HETATM   13  O   UNL     1      43.790 -15.607   2.439  1.00  0.00    -0.266 OA
BRANCH  11  14
HETATM   14  C   UNL     1      44.307 -19.862   3.029  1.00  0.00    -0.035 A 
HETATM   15  C   UNL     1      44.823 -20.329   4.246  1.00  0.00     0.011 A 
HETATM   16  C   UNL     1      45.002 -21.696   4.466  1.00  0.00     0.001 A 
HETATM   17  C   UNL     1      44.663 -22.613   3.473  1.00  0.00     0.000 A 
HETATM   18  C   UNL     1      44.134 -22.163   2.265  1.00  0.00     0.001 A 
HETATM   19  C   UNL     1      43.946 -20.796   2.049  1.00  0.00     0.011 A 
ENDBRANCH  11  14
ENDBRANCH   5   6
ENDBRANCH   4   5
ENDBRANCH   3   4
ENDBRANCH   2   3
ENDBRANCH   1   2
BRANCH   1  20
HETATM   20  C   UNL     1      41.169 -15.469  -0.387  1.00  0.00     0.222 C 
HETATM   21  N   UNL     1      41.423 -15.174  -1.694  1.00  0.00    -0.320 N 
HETATM   22  H   UNL     1      41.705 -16.008  -2.211  1.00  0.00     0.169 HD
HETATM   23  O   UNL     1      41.337 -16.643  -0.038  1.00  0.00    -0.273 OA
BRANCH  21  24
HETATM   24  C   UNL     1      41.372 -14.016  -2.455  1.00  0.00     0.093 A 
HETATM   25  S   UNL     1      42.716 -13.013  -2.681  1.00  0.00    -0.075 SA
HETATM   26  C   UNL     1      41.834 -11.887  -3.577  1.00  0.00    -0.008 A 
HETATM   27  C   UNL     1      40.519 -12.267  -3.770  1.00  0.00    -0.026 A 
HETATM   28  C   UNL     1      42.467 -10.628  -4.084  1.00  0.00     0.047 C 
HETATM   29  C   UNL     1      39.553 -11.357  -4.483  1.00  0.00     0.041 C 
HETATM   30  C   UNL     1      40.242 -13.536  -3.119  1.00  0.00     0.072 A 
HETATM   31  C   UNL     1      40.263 -10.232  -5.256  1.00  0.00     0.005 C 
HETATM   32  C   UNL     1      41.391  -9.596  -4.437  1.00  0.00     0.005 C 
BRANCH  30  33
HETATM   33  C   UNL     1      38.975 -14.269  -3.070  1.00  0.00     0.252 C 
HETATM   34  N   UNL     1      38.621 -14.956  -4.194  1.00  0.00    -0.366 N 
HETATM   35  H   UNL     1      39.326 -15.219  -4.867  1.00  0.00     0.159 HD
HETATM   36  H   UNL     1      37.836 -15.585  -4.083  1.00  0.00     0.159 HD
HETATM   37  O   UNL     1      38.286 -14.353  -2.058  1.00  0.00    -0.268 OA
ENDBRANCH  30  33
ENDBRANCH  21  24
ENDBRANCH   1  20
TORSDOF 9
ENDMDL
MODEL 6
REMARK VINA RESULT:      -8.8      6.196      9.685
REMARK  9 active torsions:
REMARK  status: ('A' for Active; 'I' for Inactive)
REMARK    1  A    between atoms: C_4  and  C_5 
REMARK    2  A    between atoms: N_10  and  C_11 
REMARK    3  A    between atoms: C_11  and  C_12 
REMARK    4  A    between atoms: C_12  and  C_13 
REMARK    5  A    between atoms: C_13  and  C_14 
REMARK    6  A    between atoms: C_14  and  C_15 
REMARK    7  A    between atoms: C_15  and  C_16 
REMARK       I    between atoms: C_16  and  N_17 
REMARK    8  A    between atoms: N_17  and  C_18 
REMARK    9  A    between atoms: C_26  and  C_27 
REMARK       I    between atoms: C_27  and  N_28 
ROOT
HETATM    1  C   UNL     1      39.892 -10.364   0.567  1.00  0.00     0.103 C 
ENDROOT
BRANCH   1   2
HETATM    2  C   UNL     1      40.573 -11.492   1.348  1.00  0.00     0.009 C 
BRANCH   2   3
HETATM    3  C   UNL     1      39.799 -12.814   1.279  1.00  0.00     0.002 C 
BRANCH   3   4
HETATM    4  C   UNL     1      39.892 -13.594   2.590  1.00  0.00     0.020 C 
BRANCH   4   5
HETATM    5  C   UNL     1      41.335 -13.888   3.021  1.00  0.00     0.134 C 
BRANCH   5   6
HETATM    6  N   UNL     1      41.508 -15.314   3.304  1.00  0.00    -0.298 N 
HETATM    7  C   UNL     1      41.205 -15.923   4.504  1.00  0.00     0.148 C 
HETATM    8  S   UNL     1      41.693 -17.612   4.453  1.00  0.00    -0.055 SA
HETATM    9  S   UNL     1      40.499 -15.250   5.858  1.00  0.00    -0.052 SA
HETATM   10  C   UNL     1      42.425 -17.449   2.911  1.00  0.00     0.076 C 
HETATM   11  C   UNL     1      43.205 -18.314   2.247  1.00  0.00     0.036 C 
HETATM   12  C   UNL     1      42.132 -16.103   2.351  1.00  0.00     0.266 C 
HETATM   13  O   UNL     1      42.444 -15.754   1.221  1.00  0.00    -0.266 OA
BRANCH  11  14
HETATM   14  C   UNL     1      43.679 -19.638   2.675  1.00  0.00    -0.035 A 
HETATM   15  C   UNL     1      43.522 -20.721   1.800  1.00  0.00     0.011 A 
HETATM   16  C   UNL     1      44.024 -21.982   2.131  1.00  0.00     0.001 A 
HETATM   17  C   UNL     1      44.693 -22.172   3.338  1.00  0.00     0.000 A 
HETATM   18  C   UNL     1      44.870 -21.099   4.209  1.00  0.00     0.001 A 
HETATM   19  C   UNL     1      44.376 -19.836   3.874  1.00  0.00     0.011 A 
ENDBRANCH  11  14
ENDBRANCH   5   6
ENDBRANCH   4   5
ENDBRANCH   3   4
ENDBRANCH   2   3
ENDBRANCH   1   2
BRANCH   1  20
HETATM   20  C   UNL     1      40.718  -9.825  -0.585  1.00  0.00     0.222 C 
HETATM   21  N   UNL     1      40.746 -10.424  -1.810  1.00  0.00    -0.320 N 
HETATM   22  H   UNL     1      41.361  -9.921  -2.451  1.00  0.00     0.169 HD
HETATM   23  O   UNL     1      41.390  -8.795  -0.453  1.00  0.00    -0.273 OA
BRANCH  21  24
HETATM   24  C   UNL     1      40.144 -11.548  -2.354  1.00  0.00     0.093 A 
HETATM   25  S   UNL     1      38.539 -11.551  -2.893  1.00  0.00    -0.075 SA
HETATM   26  C   UNL     1      38.584 -13.193  -3.286  1.00  0.00    -0.008 A 
HETATM   27  C   UNL     1      39.825 -13.763  -3.067  1.00  0.00    -0.026 A 
HETATM   28  C   UNL     1      37.373 -13.900  -3.813  1.00  0.00     0.047 C 
HETATM   29  C   UNL     1      40.042 -15.237  -3.289  1.00  0.00     0.041 C 
HETATM   30  C   UNL     1      40.758 -12.789  -2.528  1.00  0.00     0.072 A 
HETATM   31  C   UNL     1      38.911 -15.884  -4.106  1.00  0.00     0.005 C 
HETATM   32  C   UNL     1      37.528 -15.415  -3.644  1.00  0.00     0.005 C 
BRANCH  30  33
HETATM   33  C   UNL     1      42.157 -12.994  -2.147  1.00  0.00     0.252 C 
HETATM   34  N   UNL     1      43.031 -13.285  -3.153  1.00  0.00    -0.366 N 
HETATM   35  H   UNL     1      42.802 -13.040  -4.105  1.00  0.00     0.159 HD
HETATM   36  H   UNL     1      44.008 -13.256  -2.894  1.00  0.00     0.159 HD
HETATM   37  O   UNL     1      42.571 -12.833  -1.003  1.00  0.00    -0.268 OA
ENDBRANCH  30  33
ENDBRANCH  21  24
ENDBRANCH   1  20
TORSDOF 9
ENDMDL
MODEL 7
REMARK VINA RESULT:      -8.8      2.043     10.861
REMARK  9 active torsions:
REMARK  status: ('A' for Active; 'I' for Inactive)
REMARK    1  A    between atoms: C_4  and  C_5 
REMARK    2  A    between atoms: N_10  and  C_11 
REMARK    3  A    between atoms: C_11  and  C_12 
REMARK    4  A    between atoms: C_12  and  C_13 
REMARK    5  A    between atoms: C_13  and  C_14 
REMARK    6  A    between atoms: C_14  and  C_15 
REMARK    7  A    between atoms: C_15  and  C_16 
REMARK       I    between atoms: C_16  and  N_17 
REMARK    8  A    between atoms: N_17  and  C_18 
REMARK    9  A    between atoms: C_26  and  C_27 
REMARK       I    between atoms: C_27  and  N_28 
ROOT
HETATM    1  C   UNL     1      41.816 -13.857   3.237  1.00  0.00     0.103 C 
ENDROOT
BRANCH   1   2
HETATM    2  C   UNL     1      41.688 -12.422   3.755  1.00  0.00     0.009 C 
BRANCH   2   3
HETATM    3  C   UNL     1      41.475 -12.354   5.272  1.00  0.00     0.002 C 
BRANCH   3   4
HETATM    4  C   UNL     1      40.596 -11.168   5.670  1.00  0.00     0.020 C 
BRANCH   4   5
HETATM    5  C   UNL     1      41.389  -9.998   6.267  1.00  0.00     0.134 C 
BRANCH   5   6
HETATM    6  N   UNL     1      41.167  -9.909   7.711  1.00  0.00    -0.298 N 
HETATM    7  C   UNL     1      40.114  -9.246   8.307  1.00  0.00     0.148 C 
HETATM    8  S   UNL     1      40.307  -9.274  10.055  1.00  0.00    -0.055 SA
HETATM    9  S   UNL     1      38.817  -8.491   7.576  1.00  0.00    -0.052 SA
HETATM   10  C   UNL     1      41.847 -10.023   9.965  1.00  0.00     0.076 C 
HETATM   11  C   UNL     1      42.751 -10.223  10.934  1.00  0.00     0.036 C 
HETATM   12  C   UNL     1      42.136 -10.416   8.560  1.00  0.00     0.266 C 
HETATM   13  O   UNL     1      43.120 -11.060   8.224  1.00  0.00    -0.266 OA
BRANCH  11  14
HETATM   14  C   UNL     1      42.685  -9.823  12.346  1.00  0.00    -0.035 A 
HETATM   15  C   UNL     1      42.716  -8.457  12.659  1.00  0.00     0.011 A 
HETATM   16  C   UNL     1      42.579  -8.026  13.980  1.00  0.00     0.001 A 
HETATM   17  C   UNL     1      42.405  -8.955  15.003  1.00  0.00     0.000 A 
HETATM   18  C   UNL     1      42.356 -10.315  14.704  1.00  0.00     0.001 A 
HETATM   19  C   UNL     1      42.483 -10.745  13.381  1.00  0.00     0.011 A 
ENDBRANCH  11  14
ENDBRANCH   5   6
ENDBRANCH   4   5
ENDBRANCH   3   4
ENDBRANCH   2   3
ENDBRANCH   1   2
BRANCH   1  20
HETATM   20  C   UNL     1      40.502 -14.614   3.187  1.00  0.00     0.222 C 
HETATM   21  N   UNL     1      40.427 -15.963   3.376  1.00  0.00    -0.320 N 
HETATM   22  H   UNL     1      39.463 -16.291   3.301  1.00  0.00     0.169 HD
HETATM   23  O   UNL     1      39.436 -14.018   2.990  1.00  0.00    -0.273 OA
BRANCH  21  24
HETATM   24  C   UNL     1      41.355 -16.960   3.631  1.00  0.00     0.093 A 
HETATM   25  S   UNL     1      41.703 -17.505   5.195  1.00  0.00    -0.075 SA
HETATM   26  C   UNL     1      42.899 -18.566   4.653  1.00  0.00    -0.008 A 
HETATM   27  C   UNL     1      43.027 -18.571   3.276  1.00  0.00    -0.026 A 
HETATM   28  C   UNL     1      43.702 -19.390   5.612  1.00  0.00     0.047 C 
HETATM   29  C   UNL     1      44.093 -19.399   2.608  1.00  0.00     0.041 C 
HETATM   30  C   UNL     1      42.104 -17.631   2.663  1.00  0.00     0.072 A 
HETATM   31  C   UNL     1      44.696 -20.456   3.548  1.00  0.00     0.005 C 
HETATM   32  C   UNL     1      44.986 -19.887   4.941  1.00  0.00     0.005 C 
BRANCH  30  33
HETATM   33  C   UNL     1      41.939 -17.325   1.240  1.00  0.00     0.252 C 
HETATM   34  N   UNL     1      43.065 -16.981   0.552  1.00  0.00    -0.366 N 
HETATM   35  H   UNL     1      43.972 -17.248   0.905  1.00  0.00     0.159 HD
HETATM   36  H   UNL     1      42.957 -16.939  -0.453  1.00  0.00     0.159 HD
HETATM   37  O   UNL     1      40.872 -17.448   0.647  1.00  0.00    -0.268 OA
ENDBRANCH  30  33
ENDBRANCH  21  24
ENDBRANCH   1  20
TORSDOF 9
ENDMDL
MODEL 8
REMARK VINA RESULT:      -8.7      4.243      5.764
REMARK  9 active torsions:
REMARK  status: ('A' for Active; 'I' for Inactive)
REMARK    1  A    between atoms: C_4  and  C_5 
REMARK    2  A    between atoms: N_10  and  C_11 
REMARK    3  A    between atoms: C_11  and  C_12 
REMARK    4  A    between atoms: C_12  and  C_13 
REMARK    5  A    between atoms: C_13  and  C_14 
REMARK    6  A    between atoms: C_14  and  C_15 
REMARK    7  A    between atoms: C_15  and  C_16 
REMARK       I    between atoms: C_16  and  N_17 
REMARK    8  A    between atoms: N_17  and  C_18 
REMARK    9  A    between atoms: C_26  and  C_27 
REMARK       I    between atoms: C_27  and  N_28 
ROOT
HETATM    1  C   UNL     1      40.300 -12.758   4.736  1.00  0.00     0.103 C 
ENDROOT
BRANCH   1   2
HETATM    2  C   UNL     1      39.302 -11.704   4.249  1.00  0.00     0.009 C 
BRANCH   2   3
HETATM    3  C   UNL     1      39.848 -10.857   3.093  1.00  0.00     0.002 C 
BRANCH   3   4
HETATM    4  C   UNL     1      39.534 -11.482   1.734  1.00  0.00     0.020 C 
BRANCH   4   5
HETATM    5  C   UNL     1      40.746 -11.530   0.794  1.00  0.00     0.134 C 
BRANCH   5   6
HETATM    6  N   UNL     1      41.151 -12.915   0.547  1.00  0.00    -0.298 N 
HETATM    7  C   UNL     1      40.579 -13.749  -0.392  1.00  0.00     0.148 C 
HETATM    8  S   UNL     1      41.276 -15.359  -0.259  1.00  0.00    -0.055 SA
HETATM    9  S   UNL     1      39.397 -13.390  -1.513  1.00  0.00    -0.052 SA
HETATM   10  C   UNL     1      42.196 -14.946   1.127  1.00  0.00     0.076 C 
HETATM   11  C   UNL     1      42.890 -15.743   1.953  1.00  0.00     0.036 C 
HETATM   12  C   UNL     1      42.094 -13.485   1.386  1.00  0.00     0.266 C 
HETATM   13  O   UNL     1      42.732 -12.902   2.252  1.00  0.00    -0.266 OA
BRANCH  11  14
HETATM   14  C   UNL     1      43.027 -17.205   1.915  1.00  0.00    -0.035 A 
HETATM   15  C   UNL     1      44.285 -17.768   2.174  1.00  0.00     0.011 A 
HETATM   16  C   UNL     1      44.448 -19.154   2.225  1.00  0.00     0.001 A 
HETATM   17  C   UNL     1      43.355 -19.993   2.022  1.00  0.00     0.000 A 
HETATM   18  C   UNL     1      42.096 -19.446   1.780  1.00  0.00     0.001 A 
HETATM   19  C   UNL     1      41.931 -18.060   1.739  1.00  0.00     0.011 A 
ENDBRANCH  11  14
ENDBRANCH   5   6
ENDBRANCH   4   5
ENDBRANCH   3   4
ENDBRANCH   2   3
ENDBRANCH   1   2
BRANCH   1  20
HETATM   20  C   UNL     1      41.185 -12.290   5.875  1.00  0.00     0.222 C 
HETATM   21  N   UNL     1      42.129 -13.092   6.446  1.00  0.00    -0.320 N 
HETATM   22  H   UNL     1      42.619 -12.604   7.198  1.00  0.00     0.169 HD
HETATM   23  O   UNL     1      41.090 -11.139   6.317  1.00  0.00    -0.273 OA
BRANCH  21  24
HETATM   24  C   UNL     1      42.548 -14.397   6.238  1.00  0.00     0.093 A 
HETATM   25  S   UNL     1      41.564 -15.566   5.513  1.00  0.00    -0.075 SA
HETATM   26  C   UNL     1      42.715 -16.785   5.714  1.00  0.00    -0.008 A 
HETATM   27  C   UNL     1      43.887 -16.326   6.286  1.00  0.00    -0.026 A 
HETATM   28  C   UNL     1      42.436 -18.196   5.295  1.00  0.00     0.047 C 
HETATM   29  C   UNL     1      45.006 -17.280   6.614  1.00  0.00     0.041 C 
HETATM   30  C   UNL     1      43.800 -14.907   6.586  1.00  0.00     0.072 A 
HETATM   31  C   UNL     1      44.845 -18.641   5.915  1.00  0.00     0.005 C 
HETATM   32  C   UNL     1      43.405 -19.158   5.990  1.00  0.00     0.005 C 
BRANCH  30  33
HETATM   33  C   UNL     1      44.813 -14.051   7.208  1.00  0.00     0.252 C 
HETATM   34  N   UNL     1      45.848 -13.652   6.415  1.00  0.00    -0.366 N 
HETATM   35  H   UNL     1      45.744 -13.657   5.411  1.00  0.00     0.159 HD
HETATM   36  H   UNL     1      46.440 -12.933   6.811  1.00  0.00     0.159 HD
HETATM   37  O   UNL     1      44.720 -13.626   8.355  1.00  0.00    -0.268 OA
ENDBRANCH  30  33
ENDBRANCH  21  24
ENDBRANCH   1  20
TORSDOF 9
ENDMDL
MODEL 9
REMARK VINA RESULT:      -8.6      5.393      9.987
REMARK  9 active torsions:
REMARK  status: ('A' for Active; 'I' for Inactive)
REMARK    1  A    between atoms: C_4  and  C_5 
REMARK    2  A    between atoms: N_10  and  C_11 
REMARK    3  A    between atoms: C_11  and  C_12 
REMARK    4  A    between atoms: C_12  and  C_13 
REMARK    5  A    between atoms: C_13  and  C_14 
REMARK    6  A    between atoms: C_14  and  C_15 
REMARK    7  A    between atoms: C_15  and  C_16 
REMARK       I    between atoms: C_16  and  N_17 
REMARK    8  A    between atoms: N_17  and  C_18 
REMARK    9  A    between atoms: C_26  and  C_27 
REMARK       I    between atoms: C_27  and  N_28 
ROOT
HETATM    1  C   UNL     1      42.062 -17.051   6.938  1.00  0.00     0.103 C 
ENDROOT
BRANCH   1   2
HETATM    2  C   UNL     1      40.806 -16.323   6.450  1.00  0.00     0.009 C 
BRANCH   2   3
HETATM    3  C   UNL     1      40.766 -16.163   4.926  1.00  0.00     0.002 C 
BRANCH   3   4
HETATM    4  C   UNL     1      40.427 -14.731   4.514  1.00  0.00     0.020 C 
BRANCH   4   5
HETATM    5  C   UNL     1      39.989 -14.608   3.048  1.00  0.00     0.134 C 
BRANCH   5   6
HETATM    6  N   UNL     1      40.512 -13.376   2.456  1.00  0.00    -0.298 N 
HETATM    7  C   UNL     1      40.078 -12.104   2.770  1.00  0.00     0.148 C 
HETATM    8  S   UNL     1      40.876 -10.931   1.729  1.00  0.00    -0.055 SA
HETATM    9  S   UNL     1      38.967 -11.644   3.926  1.00  0.00    -0.052 SA
HETATM   10  C   UNL     1      41.650 -12.146   0.799  1.00  0.00     0.076 C 
HETATM   11  C   UNL     1      42.330 -12.030  -0.350  1.00  0.00     0.036 C 
HETATM   12  C   UNL     1      41.422 -13.479   1.417  1.00  0.00     0.266 C 
HETATM   13  O   UNL     1      41.945 -14.511   1.019  1.00  0.00    -0.266 OA
BRANCH  11  14
HETATM   14  C   UNL     1      42.575 -10.823  -1.153  1.00  0.00    -0.035 A 
HETATM   15  C   UNL     1      41.807 -10.618  -2.307  1.00  0.00     0.011 A 
HETATM   16  C   UNL     1      41.951  -9.450  -3.060  1.00  0.00     0.001 A 
HETATM   17  C   UNL     1      42.861  -8.472  -2.664  1.00  0.00     0.000 A 
HETATM   18  C   UNL     1      43.618  -8.657  -1.509  1.00  0.00     0.001 A 
HETATM   19  C   UNL     1      43.467  -9.820  -0.752  1.00  0.00     0.011 A 
ENDBRANCH  11  14
ENDBRANCH   5   6
ENDBRANCH   4   5
ENDBRANCH   3   4
ENDBRANCH   2   3
ENDBRANCH   1   2
BRANCH   1  20
HETATM   20  C   UNL     1      43.361 -16.418   6.477  1.00  0.00     0.222 C 
HETATM   21  N   UNL     1      44.184 -17.014   5.568  1.00  0.00    -0.320 N 
HETATM   22  H   UNL     1      45.009 -16.440   5.388  1.00  0.00     0.169 HD
HETATM   23  O   UNL     1      43.710 -15.310   6.904  1.00  0.00    -0.273 OA
BRANCH  21  24
HETATM   24  C   UNL     1      44.149 -18.206   4.863  1.00  0.00     0.093 A 
HETATM   25  S   UNL     1      44.568 -19.691   5.559  1.00  0.00    -0.075 SA
HETATM   26  C   UNL     1      44.352 -20.530   4.109  1.00  0.00    -0.008 A 
HETATM   27  C   UNL     1      43.910 -19.718   3.081  1.00  0.00    -0.026 A 
HETATM   28  C   UNL     1      44.626 -21.999   4.013  1.00  0.00     0.047 C 
HETATM   29  C   UNL     1      43.730 -20.270   1.691  1.00  0.00     0.041 C 
HETATM   30  C   UNL     1      43.774 -18.341   3.525  1.00  0.00     0.072 A 
HETATM   31  C   UNL     1      43.713 -21.808   1.664  1.00  0.00     0.005 C 
HETATM   32  C   UNL     1      44.809 -22.410   2.548  1.00  0.00     0.005 C 
BRANCH  30  33
HETATM   33  C   UNL     1      43.352 -17.178   2.742  1.00  0.00     0.252 C 
HETATM   34  N   UNL     1      42.273 -17.347   1.925  1.00  0.00    -0.366 N 
HETATM   35  H   UNL     1      41.619 -18.094   2.103  1.00  0.00     0.159 HD
HETATM   36  H   UNL     1      41.900 -16.495   1.527  1.00  0.00     0.159 HD
HETATM   37  O   UNL     1      43.866 -16.069   2.858  1.00  0.00    -0.268 OA
ENDBRANCH  30  33
ENDBRANCH  21  24
ENDBRANCH   1  20
TORSDOF 9
ENDMDL
MODEL 10
REMARK VINA RESULT:      -8.5      4.907      9.532
REMARK  9 active torsions:
REMARK  status: ('A' for Active; 'I' for Inactive)
REMARK    1  A    between atoms: C_4  and  C_5 
REMARK    2  A    between atoms: N_10  and  C_11 
REMARK    3  A    between atoms: C_11  and  C_12 
REMARK    4  A    between atoms: C_12  and  C_13 
REMARK    5  A    between atoms: C_13  and  C_14 
REMARK    6  A    between atoms: C_14  and  C_15 
REMARK    7  A    between atoms: C_15  and  C_16 
REMARK       I    between atoms: C_16  and  N_17 
REMARK    8  A    between atoms: N_17  and  C_18 
REMARK    9  A    between atoms: C_26  and  C_27 
REMARK       I    between atoms: C_27  and  N_28 
ROOT
HETATM    1  C   UNL     1      41.827 -17.350   6.981  1.00  0.00     0.103 C 
ENDROOT
BRANCH   1   2
HETATM    2  C   UNL     1      40.687 -16.396   6.613  1.00  0.00     0.009 C 
BRANCH   2   3
HETATM    3  C   UNL     1      41.087 -15.376   5.541  1.00  0.00     0.002 C 
BRANCH   3   4
HETATM    4  C   UNL     1      40.509 -13.991   5.831  1.00  0.00     0.020 C 
BRANCH   4   5
HETATM    5  C   UNL     1      39.472 -13.538   4.795  1.00  0.00     0.134 C 
BRANCH   5   6
HETATM    6  N   UNL     1      40.130 -13.136   3.549  1.00  0.00    -0.298 N 
HETATM    7  C   UNL     1      40.729 -11.913   3.334  1.00  0.00     0.148 C 
HETATM    8  S   UNL     1      41.271 -11.804   1.663  1.00  0.00    -0.055 SA
HETATM    9  S   UNL     1      40.946 -10.659   4.414  1.00  0.00    -0.052 SA
HETATM   10  C   UNL     1      40.564 -13.307   1.240  1.00  0.00     0.076 C 
HETATM   11  C   UNL     1      40.398 -13.855   0.028  1.00  0.00     0.036 C 
HETATM   12  C   UNL     1      40.049 -13.986   2.459  1.00  0.00     0.266 C 
HETATM   13  O   UNL     1      39.587 -15.118   2.462  1.00  0.00    -0.266 OA
BRANCH  11  14
HETATM   14  C   UNL     1      40.751 -13.299  -1.286  1.00  0.00    -0.035 A 
HETATM   15  C   UNL     1      42.096 -13.310  -1.681  1.00  0.00     0.011 A 
HETATM   16  C   UNL     1      42.469 -12.862  -2.950  1.00  0.00     0.001 A 
HETATM   17  C   UNL     1      41.502 -12.403  -3.841  1.00  0.00     0.000 A 
HETATM   18  C   UNL     1      40.160 -12.402  -3.467  1.00  0.00     0.001 A 
HETATM   19  C   UNL     1      39.785 -12.859  -2.201  1.00  0.00     0.011 A 
ENDBRANCH  11  14
ENDBRANCH   5   6
ENDBRANCH   4   5
ENDBRANCH   3   4
ENDBRANCH   2   3
ENDBRANCH   1   2
BRANCH   1  20
HETATM   20  C   UNL     1      43.211 -16.774   6.750  1.00  0.00     0.222 C 
HETATM   21  N   UNL     1      44.100 -17.331   5.879  1.00  0.00    -0.320 N 
HETATM   22  H   UNL     1      44.977 -16.808   5.863  1.00  0.00     0.169 HD
HETATM   23  O   UNL     1      43.577 -15.751   7.341  1.00  0.00    -0.273 OA
BRANCH  21  24
HETATM   24  C   UNL     1      44.074 -18.434   5.039  1.00  0.00     0.093 A 
HETATM   25  S   UNL     1      44.663 -19.950   5.506  1.00  0.00    -0.075 SA
HETATM   26  C   UNL     1      44.358 -20.631   3.991  1.00  0.00    -0.008 A 
HETATM   27  C   UNL     1      43.758 -19.745   3.116  1.00  0.00    -0.026 A 
HETATM   28  C   UNL     1      44.721 -22.053   3.690  1.00  0.00     0.047 C 
HETATM   29  C   UNL     1      43.476 -20.146   1.691  1.00  0.00     0.041 C 
HETATM   30  C   UNL     1      43.575 -18.444   3.736  1.00  0.00     0.072 A 
HETATM   31  C   UNL     1      43.561 -21.667   1.478  1.00  0.00     0.005 C 
HETATM   32  C   UNL     1      44.781 -22.276   2.175  1.00  0.00     0.005 C 
BRANCH  30  33
HETATM   33  C   UNL     1      42.996 -17.235   3.144  1.00  0.00     0.252 C 
HETATM   34  N   UNL     1      41.697 -17.313   2.738  1.00  0.00    -0.366 N 
HETATM   35  H   UNL     1      41.090 -18.022   3.123  1.00  0.00     0.159 HD
HETATM   36  H   UNL     1      41.271 -16.429   2.491  1.00  0.00     0.159 HD
HETATM   37  O   UNL     1      43.594 -16.166   3.083  1.00  0.00    -0.268 OA
ENDBRANCH  30  33
ENDBRANCH  21  24
ENDBRANCH   1  20
TORSDOF 9
ENDMDL
