MODEL 1
REMARK VINA RESULT:      -9.7      0.000      0.000
REMARK  5 active torsions:
REMARK  status: ('A' for Active; 'I' for Inactive)
REMARK    1  A    between atoms: C_5  and  C_6 
REMARK    2  A    between atoms: C_13  and  C_14 
REMARK       I    between atoms: C_14  and  N_15 
REMARK    3  A    between atoms: N_15  and  C_16 
REMARK    4  A    between atoms: C_19  and  C_20 
REMARK    5  A    between atoms: C_23  and  N_24 
ROOT
HETATM    1  C   UNL     1      42.716 -16.799   4.023  1.00  0.00     0.262 C 
HETATM    2  N   UNL     1      43.282 -15.872   3.180  1.00  0.00    -0.301 N 
HETATM    3  O   UNL     1      41.555 -17.181   4.026  1.00  0.00    -0.267 OA
HETATM    4  H   UNL     1      44.281 -15.742   3.166  1.00  0.00     0.171 HD
ENDROOT
BRANCH   2   5
HETATM    5  C   UNL     1      42.573 -15.204   2.225  1.00  0.00     0.173 A 
HETATM    6  S   UNL     1      42.496 -13.521   2.497  1.00  0.00    -0.061 SA
HETATM    7  C   UNL     1      41.560 -13.356   1.067  1.00  0.00     0.085 A 
HETATM    8  C   UNL     1      41.371 -14.596   0.482  1.00  0.00     0.076 A 
HETATM    9  N   UNL     1      41.945 -15.655   1.173  1.00  0.00    -0.223 NA
BRANCH   8  10
HETATM   10  C   UNL     1      40.605 -14.818  -0.741  1.00  0.00    -0.007 A 
HETATM   11  C   UNL     1      39.384 -14.167  -0.980  1.00  0.00     0.016 A 
HETATM   12  C   UNL     1      38.662 -14.405  -2.155  1.00  0.00     0.037 A 
HETATM   13  C   UNL     1      39.165 -15.302  -3.106  1.00  0.00     0.102 A 
HETATM   14  C   UNL     1      40.386 -15.950  -2.892  1.00  0.00     0.037 A 
HETATM   15  C   UNL     1      41.101 -15.701  -1.714  1.00  0.00     0.016 A 
BRANCH  13  16
HETATM   16  N   UNL     1      38.405 -15.561  -4.335  1.00  0.00    -0.116 N 
HETATM   17  O   UNL     1      38.868 -16.386  -5.135  1.00  0.00    -0.532 OA
HETATM   18  O   UNL     1      37.349 -14.935  -4.504  1.00  0.00    -0.532 OA
ENDBRANCH  13  16
ENDBRANCH   8  10
ENDBRANCH   2   5
BRANCH   1  19
HETATM   19  C   UNL     1      43.687 -17.361   4.944  1.00  0.00     0.095 A 
HETATM   20  C   UNL     1      44.134 -16.802   6.124  1.00  0.00     0.093 A 
HETATM   21  C   UNL     1      43.833 -15.563   6.868  1.00  0.00     0.080 C 
HETATM   22  O   UNL     1      45.021 -17.645   6.712  1.00  0.00    -0.217 OA
HETATM   23  N   UNL     1      45.160 -18.779   5.944  1.00  0.00    -0.127 NA
HETATM   24  C   UNL     1      44.358 -18.618   4.878  1.00  0.00     0.114 A 
BRANCH  24  25
HETATM   25  C   UNL     1      44.274 -19.659   3.859  1.00  0.00     0.018 A 
HETATM   26  C   UNL     1      44.417 -21.026   4.148  1.00  0.00     0.046 A 
HETATM   27 CL   UNL     1      44.645 -21.624   5.758  1.00  0.00    -0.083 Cl
HETATM   28  C   UNL     1      44.325 -21.976   3.124  1.00  0.00     0.025 A 
HETATM   29  C   UNL     1      44.076 -21.574   1.810  1.00  0.00     0.002 A 
HETATM   30  C   UNL     1      43.915 -20.224   1.516  1.00  0.00     0.001 A 
HETATM   31  C   UNL     1      44.013 -19.272   2.533  1.00  0.00     0.016 A 
ENDBRANCH  24  25
ENDBRANCH   1  19
TORSDOF 5
ENDMDL
MODEL 2
REMARK VINA RESULT:      -9.3      3.488      8.468
REMARK  5 active torsions:
REMARK  status: ('A' for Active; 'I' for Inactive)
REMARK    1  A    between atoms: C_5  and  C_6 
REMARK    2  A    between atoms: C_13  and  C_14 
REMARK       I    between atoms: C_14  and  N_15 
REMARK    3  A    between atoms: N_15  and  C_16 
REMARK    4  A    between atoms: C_19  and  C_20 
REMARK    5  A    between atoms: C_23  and  N_24 
ROOT
HETATM    1  C   UNL     1      39.437 -14.210   1.412  1.00  0.00     0.262 C 
HETATM    2  N   UNL     1      40.764 -14.029   1.725  1.00  0.00    -0.301 N 
HETATM    3  O   UNL     1      38.730 -15.156   1.723  1.00  0.00    -0.267 OA
HETATM    4  H   UNL     1      41.210 -13.143   1.548  1.00  0.00     0.171 HD
ENDROOT
BRANCH   2   5
HETATM    5  C   UNL     1      41.498 -14.946   2.417  1.00  0.00     0.173 A 
HETATM    6  S   UNL     1      42.090 -14.354   3.904  1.00  0.00    -0.061 SA
HETATM    7  C   UNL     1      42.830 -15.876   4.189  1.00  0.00     0.085 A 
HETATM    8  C   UNL     1      42.575 -16.731   3.130  1.00  0.00     0.076 A 
HETATM    9  N   UNL     1      41.821 -16.173   2.106  1.00  0.00    -0.223 NA
BRANCH   8  10
HETATM   10  C   UNL     1      43.073 -18.101   3.044  1.00  0.00    -0.007 A 
HETATM   11  C   UNL     1      42.818 -18.914   1.928  1.00  0.00     0.016 A 
HETATM   12  C   UNL     1      43.296 -20.228   1.874  1.00  0.00     0.037 A 
HETATM   13  C   UNL     1      44.039 -20.739   2.946  1.00  0.00     0.102 A 
HETATM   14  C   UNL     1      44.314 -19.940   4.061  1.00  0.00     0.037 A 
HETATM   15  C   UNL     1      43.834 -18.625   4.101  1.00  0.00     0.016 A 
BRANCH  13  16
HETATM   16  N   UNL     1      44.532 -22.120   2.896  1.00  0.00    -0.116 N 
HETATM   17  O   UNL     1      44.712 -22.626   1.779  1.00  0.00    -0.532 OA
HETATM   18  O   UNL     1      44.734 -22.701   3.971  1.00  0.00    -0.532 OA
ENDBRANCH  13  16
ENDBRANCH   8  10
ENDBRANCH   2   5
BRANCH   1  19
HETATM   19  C   UNL     1      38.895 -13.086   0.671  1.00  0.00     0.095 A 
HETATM   20  C   UNL     1      38.465 -11.880   1.186  1.00  0.00     0.093 A 
HETATM   21  C   UNL     1      38.406 -11.287   2.537  1.00  0.00     0.080 C 
HETATM   22  O   UNL     1      38.051 -11.081   0.170  1.00  0.00    -0.217 OA
HETATM   23  N   UNL     1      38.216 -11.735  -1.030  1.00  0.00    -0.127 NA
HETATM   24  C   UNL     1      38.727 -12.942  -0.738  1.00  0.00     0.114 A 
BRANCH  24  25
HETATM   25  C   UNL     1      39.024 -13.890  -1.807  1.00  0.00     0.018 A 
HETATM   26  C   UNL     1      40.332 -14.242  -2.177  1.00  0.00     0.046 A 
HETATM   27 CL   UNL     1      41.732 -13.632  -1.359  1.00  0.00    -0.083 Cl
HETATM   28  C   UNL     1      40.549 -15.159  -3.212  1.00  0.00     0.025 A 
HETATM   29  C   UNL     1      39.468 -15.743  -3.875  1.00  0.00     0.002 A 
HETATM   30  C   UNL     1      38.168 -15.416  -3.504  1.00  0.00     0.001 A 
HETATM   31  C   UNL     1      37.946 -14.496  -2.476  1.00  0.00     0.016 A 
ENDBRANCH  24  25
ENDBRANCH   1  19
TORSDOF 5
ENDMDL
MODEL 3
REMARK VINA RESULT:      -9.1      1.693      2.095
REMARK  5 active torsions:
REMARK  status: ('A' for Active; 'I' for Inactive)
REMARK    1  A    between atoms: C_5  and  C_6 
REMARK    2  A    between atoms: C_13  and  C_14 
REMARK       I    between atoms: C_14  and  N_15 
REMARK    3  A    between atoms: N_15  and  C_16 
REMARK    4  A    between atoms: C_19  and  C_20 
REMARK    5  A    between atoms: C_23  and  N_24 
ROOT
HETATM    1  C   UNL     1      42.465 -17.270   4.677  1.00  0.00     0.262 C 
HETATM    2  N   UNL     1      42.532 -15.993   4.173  1.00  0.00    -0.301 N 
HETATM    3  O   UNL     1      41.520 -18.041   4.606  1.00  0.00    -0.267 OA
HETATM    4  H   UNL     1      43.411 -15.499   4.156  1.00  0.00     0.171 HD
ENDROOT
BRANCH   2   5
HETATM    5  C   UNL     1      41.489 -15.387   3.538  1.00  0.00     0.173 A 
HETATM    6  S   UNL     1      40.400 -14.621   4.606  1.00  0.00    -0.061 SA
HETATM    7  C   UNL     1      39.457 -14.132   3.259  1.00  0.00     0.085 A 
HETATM    8  C   UNL     1      40.036 -14.587   2.087  1.00  0.00     0.076 A 
HETATM    9  N   UNL     1      41.198 -15.327   2.266  1.00  0.00    -0.223 NA
BRANCH   8  10
HETATM   10  C   UNL     1      39.481 -14.361   0.755  1.00  0.00    -0.007 A 
HETATM   11  C   UNL     1      38.140 -13.991   0.563  1.00  0.00     0.016 A 
HETATM   12  C   UNL     1      37.629 -13.792  -0.724  1.00  0.00     0.037 A 
HETATM   13  C   UNL     1      38.465 -13.961  -1.835  1.00  0.00     0.102 A 
HETATM   14  C   UNL     1      39.807 -14.317  -1.663  1.00  0.00     0.037 A 
HETATM   15  C   UNL     1      40.308 -14.510  -0.370  1.00  0.00     0.016 A 
BRANCH  13  16
HETATM   16  N   UNL     1      37.928 -13.762  -3.186  1.00  0.00    -0.116 N 
HETATM   17  O   UNL     1      37.995 -12.623  -3.670  1.00  0.00    -0.532 OA
HETATM   18  O   UNL     1      37.433 -14.741  -3.762  1.00  0.00    -0.532 OA
ENDBRANCH  13  16
ENDBRANCH   8  10
ENDBRANCH   2   5
BRANCH   1  19
HETATM   19  C   UNL     1      43.710 -17.673   5.305  1.00  0.00     0.095 A 
HETATM   20  C   UNL     1      44.330 -17.074   6.382  1.00  0.00     0.093 A 
HETATM   21  C   UNL     1      44.017 -15.928   7.258  1.00  0.00     0.080 C 
HETATM   22  O   UNL     1      45.461 -17.761   6.687  1.00  0.00    -0.217 OA
HETATM   23  N   UNL     1      45.596 -18.832   5.833  1.00  0.00    -0.127 NA
HETATM   24  C   UNL     1      44.544 -18.789   4.999  1.00  0.00     0.114 A 
BRANCH  24  25
HETATM   25  C   UNL     1      44.390 -19.802   3.960  1.00  0.00     0.018 A 
HETATM   26  C   UNL     1      44.202 -19.487   2.605  1.00  0.00     0.046 A 
HETATM   27 CL   UNL     1      44.194 -17.859   2.014  1.00  0.00    -0.083 Cl
HETATM   28  C   UNL     1      44.061 -20.508   1.658  1.00  0.00     0.025 A 
HETATM   29  C   UNL     1      44.123 -21.847   2.049  1.00  0.00     0.002 A 
HETATM   30  C   UNL     1      44.329 -22.171   3.386  1.00  0.00     0.001 A 
HETATM   31  C   UNL     1      44.462 -21.155   4.337  1.00  0.00     0.016 A 
ENDBRANCH  24  25
ENDBRANCH   1  19
TORSDOF 5
ENDMDL
MODEL 4
REMARK VINA RESULT:      -9.1      2.918      3.506
REMARK  5 active torsions:
REMARK  status: ('A' for Active; 'I' for Inactive)
REMARK    1  A    between atoms: C_5  and  C_6 
REMARK    2  A    between atoms: C_13  and  C_14 
REMARK       I    between atoms: C_14  and  N_15 
REMARK    3  A    between atoms: N_15  and  C_16 
REMARK    4  A    between atoms: C_19  and  C_20 
REMARK    5  A    between atoms: C_23  and  N_24 
ROOT
HETATM    1  C   UNL     1      42.459 -17.278   4.312  1.00  0.00     0.262 C 
HETATM    2  N   UNL     1      42.789 -16.345   3.358  1.00  0.00    -0.301 N 
HETATM    3  O   UNL     1      41.360 -17.772   4.510  1.00  0.00    -0.267 OA
HETATM    4  H   UNL     1      43.755 -16.117   3.182  1.00  0.00     0.171 HD
ENDROOT
BRANCH   2   5
HETATM    5  C   UNL     1      41.877 -15.800   2.503  1.00  0.00     0.173 A 
HETATM    6  S   UNL     1      41.940 -16.467   0.933  1.00  0.00    -0.061 SA
HETATM    7  C   UNL     1      40.662 -15.423   0.463  1.00  0.00     0.085 A 
HETATM    8  C   UNL     1      40.276 -14.637   1.535  1.00  0.00     0.076 A 
HETATM    9  N   UNL     1      41.000 -14.852   2.700  1.00  0.00    -0.223 NA
BRANCH   8  10
HETATM   10  C   UNL     1      39.223 -13.626   1.474  1.00  0.00    -0.007 A 
HETATM   11  C   UNL     1      39.236 -12.491   2.301  1.00  0.00     0.016 A 
HETATM   12  C   UNL     1      38.208 -11.543   2.232  1.00  0.00     0.037 A 
HETATM   13  C   UNL     1      37.156 -11.727   1.326  1.00  0.00     0.102 A 
HETATM   14  C   UNL     1      37.133 -12.846   0.484  1.00  0.00     0.037 A 
HETATM   15  C   UNL     1      38.169 -13.785   0.560  1.00  0.00     0.016 A 
BRANCH  13  16
HETATM   16  N   UNL     1      36.073 -10.739   1.259  1.00  0.00    -0.116 N 
HETATM   17  O   UNL     1      36.308  -9.599   1.684  1.00  0.00    -0.532 OA
HETATM   18  O   UNL     1      34.987 -11.103   0.788  1.00  0.00    -0.532 OA
ENDBRANCH  13  16
ENDBRANCH   8  10
ENDBRANCH   2   5
BRANCH   1  19
HETATM   19  C   UNL     1      43.613 -17.693   5.089  1.00  0.00     0.095 A 
HETATM   20  C   UNL     1      44.133 -17.068   6.204  1.00  0.00     0.093 A 
HETATM   21  C   UNL     1      43.766 -15.877   6.995  1.00  0.00     0.080 C 
HETATM   22  O   UNL     1      45.198 -17.776   6.659  1.00  0.00    -0.217 OA
HETATM   23  N   UNL     1      45.388 -18.886   5.867  1.00  0.00    -0.127 NA
HETATM   24  C   UNL     1      44.436 -18.846   4.920  1.00  0.00     0.114 A 
BRANCH  24  25
HETATM   25  C   UNL     1      44.361 -19.897   3.911  1.00  0.00     0.018 A 
HETATM   26  C   UNL     1      44.482 -21.262   4.217  1.00  0.00     0.046 A 
HETATM   27 CL   UNL     1      44.670 -21.846   5.837  1.00  0.00    -0.083 Cl
HETATM   28  C   UNL     1      44.400 -22.221   3.200  1.00  0.00     0.025 A 
HETATM   29  C   UNL     1      44.183 -21.831   1.877  1.00  0.00     0.002 A 
HETATM   30  C   UNL     1      44.043 -20.482   1.566  1.00  0.00     0.001 A 
HETATM   31  C   UNL     1      44.131 -19.520   2.576  1.00  0.00     0.016 A 
ENDBRANCH  24  25
ENDBRANCH   1  19
TORSDOF 5
ENDMDL
MODEL 5
REMARK VINA RESULT:      -9.0      3.838      8.838
REMARK  5 active torsions:
REMARK  status: ('A' for Active; 'I' for Inactive)
REMARK    1  A    between atoms: C_5  and  C_6 
REMARK    2  A    between atoms: C_13  and  C_14 
REMARK       I    between atoms: C_14  and  N_15 
REMARK    3  A    between atoms: N_15  and  C_16 
REMARK    4  A    between atoms: C_19  and  C_20 
REMARK    5  A    between atoms: C_23  and  N_24 
ROOT
HETATM    1  C   UNL     1      40.587 -13.483   0.306  1.00  0.00     0.262 C 
HETATM    2  N   UNL     1      41.896 -13.748   0.633  1.00  0.00    -0.301 N 
HETATM    3  O   UNL     1      39.588 -13.974   0.809  1.00  0.00    -0.267 OA
HETATM    4  H   UNL     1      42.638 -13.177   0.262  1.00  0.00     0.171 HD
ENDROOT
BRANCH   2   5
HETATM    5  C   UNL     1      42.256 -14.666   1.575  1.00  0.00     0.173 A 
HETATM    6  S   UNL     1      42.251 -14.041   3.164  1.00  0.00    -0.061 SA
HETATM    7  C   UNL     1      42.747 -15.578   3.745  1.00  0.00     0.085 A 
HETATM    8  C   UNL     1      42.882 -16.462   2.688  1.00  0.00     0.076 A 
HETATM    9  N   UNL     1      42.614 -15.915   1.440  1.00  0.00    -0.223 NA
BRANCH   8  10
HETATM   10  C   UNL     1      43.306 -17.852   2.830  1.00  0.00    -0.007 A 
HETATM   11  C   UNL     1      43.945 -18.318   3.990  1.00  0.00     0.016 A 
HETATM   12  C   UNL     1      44.352 -19.653   4.097  1.00  0.00     0.037 A 
HETATM   13  C   UNL     1      44.117 -20.535   3.035  1.00  0.00     0.102 A 
HETATM   14  C   UNL     1      43.470 -20.092   1.876  1.00  0.00     0.037 A 
HETATM   15  C   UNL     1      43.064 -18.756   1.783  1.00  0.00     0.016 A 
BRANCH  13  16
HETATM   16  N   UNL     1      44.552 -21.933   3.141  1.00  0.00    -0.116 N 
HETATM   17  O   UNL     1      44.762 -22.385   4.276  1.00  0.00    -0.532 OA
HETATM   18  O   UNL     1      44.691 -22.577   2.091  1.00  0.00    -0.532 OA
ENDBRANCH  13  16
ENDBRANCH   8  10
ENDBRANCH   2   5
BRANCH   1  19
HETATM   19  C   UNL     1      40.480 -12.467  -0.725  1.00  0.00     0.095 A 
HETATM   20  C   UNL     1      40.850 -11.142  -0.628  1.00  0.00     0.093 A 
HETATM   21  C   UNL     1      41.458 -10.305   0.425  1.00  0.00     0.080 C 
HETATM   22  O   UNL     1      40.616 -10.523  -1.814  1.00  0.00    -0.217 OA
HETATM   23  N   UNL     1      40.108 -11.429  -2.716  1.00  0.00    -0.127 NA
HETATM   24  C   UNL     1      40.025 -12.604  -2.070  1.00  0.00     0.114 A 
BRANCH  24  25
HETATM   25  C   UNL     1      39.519 -13.786  -2.761  1.00  0.00     0.018 A 
HETATM   26  C   UNL     1      38.180 -13.924  -3.161  1.00  0.00     0.046 A 
HETATM   27 CL   UNL     1      37.000 -12.676  -2.932  1.00  0.00    -0.083 Cl
HETATM   28  C   UNL     1      37.758 -15.085  -3.821  1.00  0.00     0.025 A 
HETATM   29  C   UNL     1      38.667 -16.108  -4.100  1.00  0.00     0.002 A 
HETATM   30  C   UNL     1      40.000 -15.972  -3.725  1.00  0.00     0.001 A 
HETATM   31  C   UNL     1      40.424 -14.819  -3.060  1.00  0.00     0.016 A 
ENDBRANCH  24  25
ENDBRANCH   1  19
TORSDOF 5
ENDMDL
MODEL 6
REMARK VINA RESULT:      -9.0      4.581      8.383
REMARK  5 active torsions:
REMARK  status: ('A' for Active; 'I' for Inactive)
REMARK    1  A    between atoms: C_5  and  C_6 
REMARK    2  A    between atoms: C_13  and  C_14 
REMARK       I    between atoms: C_14  and  N_15 
REMARK    3  A    between atoms: N_15  and  C_16 
REMARK    4  A    between atoms: C_19  and  C_20 
REMARK    5  A    between atoms: C_23  and  N_24 
ROOT
HETATM    1  C   UNL     1      41.189 -13.104   4.238  1.00  0.00     0.262 C 
HETATM    2  N   UNL     1      40.960 -14.289   4.896  1.00  0.00    -0.301 N 
HETATM    3  O   UNL     1      42.190 -12.791   3.611  1.00  0.00    -0.267 OA
HETATM    4  H   UNL     1      40.043 -14.503   5.253  1.00  0.00     0.171 HD
ENDROOT
BRANCH   2   5
HETATM    5  C   UNL     1      41.883 -15.291   4.968  1.00  0.00     0.173 A 
HETATM    6  S   UNL     1      43.099 -15.007   6.132  1.00  0.00    -0.061 SA
HETATM    7  C   UNL     1      43.819 -16.506   5.712  1.00  0.00     0.085 A 
HETATM    8  C   UNL     1      43.084 -17.120   4.713  1.00  0.00     0.076 A 
HETATM    9  N   UNL     1      41.980 -16.397   4.281  1.00  0.00    -0.223 NA
BRANCH   8  10
HETATM   10  C   UNL     1      43.429 -18.406   4.112  1.00  0.00    -0.007 A 
HETATM   11  C   UNL     1      44.264 -19.328   4.762  1.00  0.00     0.016 A 
HETATM   12  C   UNL     1      44.590 -20.549   4.159  1.00  0.00     0.037 A 
HETATM   13  C   UNL     1      44.076 -20.854   2.893  1.00  0.00     0.102 A 
HETATM   14  C   UNL     1      43.232 -19.953   2.235  1.00  0.00     0.037 A 
HETATM   15  C   UNL     1      42.910 -18.737   2.850  1.00  0.00     0.016 A 
BRANCH  13  16
HETATM   16  N   UNL     1      44.425 -22.129   2.254  1.00  0.00    -0.116 N 
HETATM   17  O   UNL     1      44.208 -22.242   1.039  1.00  0.00    -0.532 OA
HETATM   18  O   UNL     1      44.909 -23.019   2.968  1.00  0.00    -0.532 OA
ENDBRANCH  13  16
ENDBRANCH   8  10
ENDBRANCH   2   5
BRANCH   1  19
HETATM   19  C   UNL     1      40.048 -12.211   4.313  1.00  0.00     0.095 A 
HETATM   20  C   UNL     1      39.626 -11.492   5.412  1.00  0.00     0.093 A 
HETATM   21  C   UNL     1      40.111 -11.328   6.797  1.00  0.00     0.080 C 
HETATM   22  O   UNL     1      38.537 -10.755   5.075  1.00  0.00    -0.217 OA
HETATM   23  N   UNL     1      38.234 -10.958   3.748  1.00  0.00    -0.127 NA
HETATM   24  C   UNL     1      39.140 -11.832   3.280  1.00  0.00     0.114 A 
BRANCH  24  25
HETATM   25  C   UNL     1      39.094 -12.259   1.885  1.00  0.00     0.018 A 
HETATM   26  C   UNL     1      39.875 -11.670   0.878  1.00  0.00     0.046 A 
HETATM   27 CL   UNL     1      41.024 -10.414   1.198  1.00  0.00    -0.083 Cl
HETATM   28  C   UNL     1      39.784 -12.128  -0.442  1.00  0.00     0.025 A 
HETATM   29  C   UNL     1      38.928 -13.182  -0.766  1.00  0.00     0.002 A 
HETATM   30  C   UNL     1      38.164 -13.786   0.228  1.00  0.00     0.001 A 
HETATM   31  C   UNL     1      38.246 -13.328   1.546  1.00  0.00     0.016 A 
ENDBRANCH  24  25
ENDBRANCH   1  19
TORSDOF 5
ENDMDL
MODEL 7
REMARK VINA RESULT:      -9.0      4.113      8.306
REMARK  5 active torsions:
REMARK  status: ('A' for Active; 'I' for Inactive)
REMARK    1  A    between atoms: C_5  and  C_6 
REMARK    2  A    between atoms: C_13  and  C_14 
REMARK       I    between atoms: C_14  and  N_15 
REMARK    3  A    between atoms: N_15  and  C_16 
REMARK    4  A    between atoms: C_19  and  C_20 
REMARK    5  A    between atoms: C_23  and  N_24 
ROOT
HETATM    1  C   UNL     1      41.777 -12.900   2.708  1.00  0.00     0.262 C 
HETATM    2  N   UNL     1      41.320 -13.818   3.623  1.00  0.00    -0.301 N 
HETATM    3  O   UNL     1      42.832 -12.936   2.092  1.00  0.00    -0.267 OA
HETATM    4  H   UNL     1      40.372 -13.771   3.959  1.00  0.00     0.171 HD
ENDROOT
BRANCH   2   5
HETATM    5  C   UNL     1      42.041 -14.911   4.005  1.00  0.00     0.173 A 
HETATM    6  S   UNL     1      42.837 -14.707   5.500  1.00  0.00    -0.061 SA
HETATM    7  C   UNL     1      43.468 -16.296   5.355  1.00  0.00     0.085 A 
HETATM    8  C   UNL     1      43.028 -16.873   4.176  1.00  0.00     0.076 A 
HETATM    9  N   UNL     1      42.221 -16.054   3.398  1.00  0.00    -0.223 NA
BRANCH   8  10
HETATM   10  C   UNL     1      43.393 -18.217   3.735  1.00  0.00    -0.007 A 
HETATM   11  C   UNL     1      44.246 -19.039   4.487  1.00  0.00     0.016 A 
HETATM   12  C   UNL     1      44.590 -20.319   4.036  1.00  0.00     0.037 A 
HETATM   13  C   UNL     1      44.074 -20.786   2.820  1.00  0.00     0.102 A 
HETATM   14  C   UNL     1      43.211 -19.985   2.063  1.00  0.00     0.037 A 
HETATM   15  C   UNL     1      42.872 -18.709   2.527  1.00  0.00     0.016 A 
BRANCH  13  16
HETATM   16  N   UNL     1      44.441 -22.124   2.341  1.00  0.00    -0.116 N 
HETATM   17  O   UNL     1      44.736 -22.977   3.189  1.00  0.00    -0.532 OA
HETATM   18  O   UNL     1      44.440 -22.319   1.117  1.00  0.00    -0.532 OA
ENDBRANCH  13  16
ENDBRANCH   8  10
ENDBRANCH   2   5
BRANCH   1  19
HETATM   19  C   UNL     1      40.819 -11.834   2.482  1.00  0.00     0.095 A 
HETATM   20  C   UNL     1      40.507 -10.800   3.341  1.00  0.00     0.093 A 
HETATM   21  C   UNL     1      40.974 -10.379   4.676  1.00  0.00     0.080 C 
HETATM   22  O   UNL     1      39.582  -9.996   2.757  1.00  0.00    -0.217 OA
HETATM   23  N   UNL     1      39.284 -10.470   1.499  1.00  0.00    -0.127 NA
HETATM   24  C   UNL     1      40.026 -11.576   1.324  1.00  0.00     0.114 A 
BRANCH  24  25
HETATM   25  C   UNL     1      39.941 -12.325   0.075  1.00  0.00     0.018 A 
HETATM   26  C   UNL     1      38.916 -13.245  -0.198  1.00  0.00     0.046 A 
HETATM   27 CL   UNL     1      37.607 -13.542   0.898  1.00  0.00    -0.083 Cl
HETATM   28  C   UNL     1      38.892 -13.931  -1.418  1.00  0.00     0.025 A 
HETATM   29  C   UNL     1      39.877 -13.696  -2.380  1.00  0.00     0.002 A 
HETATM   30  C   UNL     1      40.886 -12.772  -2.127  1.00  0.00     0.001 A 
HETATM   31  C   UNL     1      40.919 -12.090  -0.908  1.00  0.00     0.016 A 
ENDBRANCH  24  25
ENDBRANCH   1  19
TORSDOF 5
ENDMDL
MODEL 8
REMARK VINA RESULT:      -8.9      3.309      9.378
REMARK  5 active torsions:
REMARK  status: ('A' for Active; 'I' for Inactive)
REMARK    1  A    between atoms: C_5  and  C_6 
REMARK    2  A    between atoms: C_13  and  C_14 
REMARK       I    between atoms: C_14  and  N_15 
REMARK    3  A    between atoms: N_15  and  C_16 
REMARK    4  A    between atoms: C_19  and  C_20 
REMARK    5  A    between atoms: C_23  and  N_24 
ROOT
HETATM    1  C   UNL     1      40.577 -14.977  -1.527  1.00  0.00     0.262 C 
HETATM    2  N   UNL     1      40.309 -15.175  -0.194  1.00  0.00    -0.301 N 
HETATM    3  O   UNL     1      41.615 -15.239  -2.117  1.00  0.00    -0.267 OA
HETATM    4  H   UNL     1      39.371 -15.064   0.158  1.00  0.00     0.171 HD
ENDROOT
BRANCH   2   5
HETATM    5  C   UNL     1      41.227 -15.671   0.685  1.00  0.00     0.173 A 
HETATM    6  S   UNL     1      42.069 -14.458   1.539  1.00  0.00    -0.061 SA
HETATM    7  C   UNL     1      42.950 -15.681   2.361  1.00  0.00     0.085 A 
HETATM    8  C   UNL     1      42.541 -16.930   1.927  1.00  0.00     0.076 A 
HETATM    9  N   UNL     1      41.559 -16.907   0.945  1.00  0.00    -0.223 NA
BRANCH   8  10
HETATM   10  C   UNL     1      43.098 -18.190   2.411  1.00  0.00    -0.007 A 
HETATM   11  C   UNL     1      43.727 -18.291   3.662  1.00  0.00     0.016 A 
HETATM   12  C   UNL     1      44.264 -19.507   4.098  1.00  0.00     0.037 A 
HETATM   13  C   UNL     1      44.172 -20.639   3.278  1.00  0.00     0.102 A 
HETATM   14  C   UNL     1      43.537 -20.561   2.033  1.00  0.00     0.037 A 
HETATM   15  C   UNL     1      43.000 -19.339   1.610  1.00  0.00     0.016 A 
BRANCH  13  16
HETATM   16  N   UNL     1      44.743 -21.913   3.729  1.00  0.00    -0.116 N 
HETATM   17  O   UNL     1      45.232 -21.953   4.867  1.00  0.00    -0.532 OA
HETATM   18  O   UNL     1      44.709 -22.872   2.945  1.00  0.00    -0.532 OA
ENDBRANCH  13  16
ENDBRANCH   8  10
ENDBRANCH   2   5
BRANCH   1  19
HETATM   19  C   UNL     1      39.432 -14.438  -2.238  1.00  0.00     0.095 A 
HETATM   20  C   UNL     1      38.860 -14.935  -3.391  1.00  0.00     0.093 A 
HETATM   21  C   UNL     1      39.124 -16.093  -4.268  1.00  0.00     0.080 C 
HETATM   22  O   UNL     1      37.793 -14.167  -3.729  1.00  0.00    -0.217 OA
HETATM   23  N   UNL     1      37.630 -13.166  -2.798  1.00  0.00    -0.127 NA
HETATM   24  C   UNL     1      38.611 -13.323  -1.895  1.00  0.00     0.114 A 
BRANCH  24  25
HETATM   25  C   UNL     1      38.716 -12.410  -0.761  1.00  0.00     0.018 A 
HETATM   26  C   UNL     1      38.092 -12.647   0.474  1.00  0.00     0.046 A 
HETATM   27 CL   UNL     1      37.180 -14.083   0.802  1.00  0.00    -0.083 Cl
HETATM   28  C   UNL     1      38.234 -11.730   1.522  1.00  0.00     0.025 A 
HETATM   29  C   UNL     1      39.009 -10.581   1.354  1.00  0.00     0.002 A 
HETATM   30  C   UNL     1      39.647 -10.346   0.141  1.00  0.00     0.001 A 
HETATM   31  C   UNL     1      39.503 -11.254  -0.911  1.00  0.00     0.016 A 
ENDBRANCH  24  25
ENDBRANCH   1  19
TORSDOF 5
ENDMDL
MODEL 9
REMARK VINA RESULT:      -8.7      1.772      2.005
REMARK  5 active torsions:
REMARK  status: ('A' for Active; 'I' for Inactive)
REMARK    1  A    between atoms: C_5  and  C_6 
REMARK    2  A    between atoms: C_13  and  C_14 
REMARK       I    between atoms: C_14  and  N_15 
REMARK    3  A    between atoms: N_15  and  C_16 
REMARK    4  A    between atoms: C_19  and  C_20 
REMARK    5  A    between atoms: C_23  and  N_24 
ROOT
HETATM    1  C   UNL     1      42.445 -17.158   4.752  1.00  0.00     0.262 C 
HETATM    2  N   UNL     1      42.572 -15.878   4.266  1.00  0.00    -0.301 N 
HETATM    3  O   UNL     1      41.465 -17.883   4.670  1.00  0.00    -0.267 OA
HETATM    4  H   UNL     1      43.473 -15.426   4.255  1.00  0.00     0.171 HD
ENDROOT
BRANCH   2   5
HETATM    5  C   UNL     1      41.558 -15.215   3.640  1.00  0.00     0.173 A 
HETATM    6  S   UNL     1      40.373 -14.623   4.716  1.00  0.00    -0.061 SA
HETATM    7  C   UNL     1      39.513 -13.978   3.379  1.00  0.00     0.085 A 
HETATM    8  C   UNL     1      40.189 -14.258   2.203  1.00  0.00     0.076 A 
HETATM    9  N   UNL     1      41.358 -14.990   2.369  1.00  0.00    -0.223 NA
BRANCH   8  10
HETATM   10  C   UNL     1      39.724 -13.867   0.876  1.00  0.00    -0.007 A 
HETATM   11  C   UNL     1      40.590 -13.314  -0.081  1.00  0.00     0.016 A 
HETATM   12  C   UNL     1      40.117 -12.936  -1.343  1.00  0.00     0.037 A 
HETATM   13  C   UNL     1      38.763 -13.112  -1.656  1.00  0.00     0.102 A 
HETATM   14  C   UNL     1      37.887 -13.673  -0.720  1.00  0.00     0.037 A 
HETATM   15  C   UNL     1      38.373 -14.051   0.537  1.00  0.00     0.016 A 
BRANCH  13  16
HETATM   16  N   UNL     1      38.263 -12.706  -2.975  1.00  0.00    -0.116 N 
HETATM   17  O   UNL     1      39.099 -12.391  -3.834  1.00  0.00    -0.532 OA
HETATM   18  O   UNL     1      37.037 -12.696  -3.150  1.00  0.00    -0.532 OA
ENDBRANCH  13  16
ENDBRANCH   8  10
ENDBRANCH   2   5
BRANCH   1  19
HETATM   19  C   UNL     1      43.670 -17.628   5.373  1.00  0.00     0.095 A 
HETATM   20  C   UNL     1      44.288 -17.108   6.491  1.00  0.00     0.093 A 
HETATM   21  C   UNL     1      43.990 -16.006   7.427  1.00  0.00     0.080 C 
HETATM   22  O   UNL     1      45.396 -17.840   6.772  1.00  0.00    -0.217 OA
HETATM   23  N   UNL     1      45.518 -18.864   5.860  1.00  0.00    -0.127 NA
HETATM   24  C   UNL     1      44.480 -18.746   5.015  1.00  0.00     0.114 A 
BRANCH  24  25
HETATM   25  C   UNL     1      44.317 -19.695   3.917  1.00  0.00     0.018 A 
HETATM   26  C   UNL     1      44.459 -21.082   4.078  1.00  0.00     0.046 A 
HETATM   27 CL   UNL     1      44.782 -21.820   5.611  1.00  0.00    -0.083 Cl
HETATM   28  C   UNL     1      44.289 -21.938   2.983  1.00  0.00     0.025 A 
HETATM   29  C   UNL     1      43.962 -21.422   1.727  1.00  0.00     0.002 A 
HETATM   30  C   UNL     1      43.800 -20.050   1.562  1.00  0.00     0.001 A 
HETATM   31  C   UNL     1      43.976 -19.191   2.650  1.00  0.00     0.016 A 
ENDBRANCH  24  25
ENDBRANCH   1  19
TORSDOF 5
ENDMDL
MODEL 10
REMARK VINA RESULT:      -8.7      3.042      4.344
REMARK  5 active torsions:
REMARK  status: ('A' for Active; 'I' for Inactive)
REMARK    1  A    between atoms: C_5  and  C_6 
REMARK    2  A    between atoms: C_13  and  C_14 
REMARK       I    between atoms: C_14  and  N_15 
REMARK    3  A    between atoms: N_15  and  C_16 
REMARK    4  A    between atoms: C_19  and  C_20 
REMARK    5  A    between atoms: C_23  and  N_24 
ROOT
HETATM    1  C   UNL     1      40.094 -14.848   1.885  1.00  0.00     0.262 C 
HETATM    2  N   UNL     1      40.670 -14.265   0.781  1.00  0.00    -0.301 N 
HETATM    3  O   UNL     1      39.093 -15.548   1.910  1.00  0.00    -0.267 OA
HETATM    4  H   UNL     1      41.578 -13.834   0.850  1.00  0.00     0.171 HD
ENDROOT
BRANCH   2   5
HETATM    5  C   UNL     1      40.146 -14.368  -0.474  1.00  0.00     0.173 A 
HETATM    6  S   UNL     1      41.092 -15.323  -1.525  1.00  0.00    -0.061 SA
HETATM    7  C   UNL     1      39.951 -15.037  -2.775  1.00  0.00     0.085 A 
HETATM    8  C   UNL     1      38.928 -14.232  -2.305  1.00  0.00     0.076 A 
HETATM    9  N   UNL     1      39.065 -13.838  -0.980  1.00  0.00    -0.223 NA
BRANCH   8  10
HETATM   10  C   UNL     1      37.799 -13.782  -3.115  1.00  0.00    -0.007 A 
HETATM   11  C   UNL     1      37.393 -12.439  -3.141  1.00  0.00     0.016 A 
HETATM   12  C   UNL     1      36.300 -12.035  -3.916  1.00  0.00     0.037 A 
HETATM   13  C   UNL     1      35.605 -12.982  -4.679  1.00  0.00     0.102 A 
HETATM   14  C   UNL     1      36.004 -14.324  -4.677  1.00  0.00     0.037 A 
HETATM   15  C   UNL     1      37.100 -14.714  -3.900  1.00  0.00     0.016 A 
BRANCH  13  16
HETATM   16  N   UNL     1      34.453 -12.562  -5.486  1.00  0.00    -0.116 N 
HETATM   17  O   UNL     1      34.682 -11.991  -6.562  1.00  0.00    -0.532 OA
HETATM   18  O   UNL     1      33.320 -12.796  -5.042  1.00  0.00    -0.532 OA
ENDBRANCH  13  16
ENDBRANCH   8  10
ENDBRANCH   2   5
BRANCH   1  19
HETATM   19  C   UNL     1      40.850 -14.585   3.096  1.00  0.00     0.095 A 
HETATM   20  C   UNL     1      40.620 -13.586   4.018  1.00  0.00     0.093 A 
HETATM   21  C   UNL     1      39.620 -12.510   4.160  1.00  0.00     0.080 C 
HETATM   22  O   UNL     1      41.527 -13.687   5.023  1.00  0.00    -0.217 OA
HETATM   23  N   UNL     1      42.355 -14.762   4.793  1.00  0.00    -0.127 NA
HETATM   24  C   UNL     1      41.953 -15.311   3.636  1.00  0.00     0.114 A 
BRANCH  24  25
HETATM   25  C   UNL     1      42.635 -16.488   3.106  1.00  0.00     0.018 A 
HETATM   26  C   UNL     1      42.472 -17.774   3.644  1.00  0.00     0.046 A 
HETATM   27 CL   UNL     1      41.392 -18.111   4.956  1.00  0.00    -0.083 Cl
HETATM   28  C   UNL     1      43.156 -18.862   3.088  1.00  0.00     0.025 A 
HETATM   29  C   UNL     1      43.994 -18.680   1.986  1.00  0.00     0.002 A 
HETATM   30  C   UNL     1      44.148 -17.412   1.434  1.00  0.00     0.001 A 
HETATM   31  C   UNL     1      43.474 -16.322   1.989  1.00  0.00     0.016 A 
ENDBRANCH  24  25
ENDBRANCH   1  19
TORSDOF 5
ENDMDL
