MODEL 1
REMARK VINA RESULT:      -8.3      0.000      0.000
REMARK  7 active torsions:
REMARK  status: ('A' for Active; 'I' for Inactive)
REMARK    1  A    between atoms: C_4  and  C_5 
REMARK    2  A    between atoms: C_10  and  C_11 
REMARK       I    between atoms: C_11  and  N_12 
REMARK    3  A    between atoms: N_12  and  C_13 
REMARK    4  A    between atoms: C_13  and  C_14 
REMARK    5  A    between atoms: C_14  and  C_15 
REMARK    6  A    between atoms: C_15  and  N_16 
REMARK    7  A    between atoms: C_26  and  C_27 
ROOT
HETATM    1  C   UNL     1      43.863 -18.910   3.170  1.00  0.00     0.125 C 
HETATM    2  N   UNL     1      43.521 -18.355   4.484  1.00  0.00    -0.365 N 
HETATM    3  C   UNL     1      42.990 -17.110   4.546  1.00  0.00     0.141 A 
HETATM    4  N   UNL     1      42.377 -16.553   3.453  1.00  0.00    -0.238 N 
HETATM    5  N   UNL     1      41.983 -15.281   3.650  1.00  0.00    -0.163 NA
HETATM    6  C   UNL     1      42.271 -15.043   4.951  1.00  0.00     0.165 A 
HETATM    7  C   UNL     1      42.896 -16.169   5.538  1.00  0.00     0.092 A 
HETATM    8 BR   UNL     1      43.501 -16.331   7.302  1.00  0.00    -0.044 Br
HETATM    9  C   UNL     1      42.307 -17.191   2.145  1.00  0.00     0.221 C 
HETATM   10  C   UNL     1      42.663 -18.688   2.236  1.00  0.00     0.067 C 
HETATM   11  H   UNL     1      44.139 -18.673   5.234  1.00  0.00     0.162 HD
ENDROOT
BRANCH   6  12
HETATM   12  C   UNL     1      41.932 -13.748   5.551  1.00  0.00     0.273 C 
HETATM   13  N   UNL     1      40.580 -13.468   5.544  1.00  0.00    -0.355 N 
HETATM   14  H   UNL     1      40.006 -14.153   5.046  1.00  0.00     0.162 HD
HETATM   15  O   UNL     1      42.737 -12.969   6.063  1.00  0.00    -0.266 OA
BRANCH  13  16
HETATM   16  C   UNL     1      40.032 -12.186   5.913  1.00  0.00     0.124 C 
BRANCH  16  17
HETATM   17  C   UNL     1      39.365 -12.171   7.289  1.00  0.00     0.047 C 
BRANCH  17  18
HETATM   18  C   UNL     1      39.688 -10.992   8.209  1.00  0.00     0.236 C 
BRANCH  18  19
HETATM   19  N   UNL     1      40.904 -11.196   9.071  1.00  0.00    -0.067 N 
HETATM   20  H   UNL     1      41.059 -12.224   9.133  1.00  0.00     0.280 HD
HETATM   21  C   UNL     1      42.175 -10.538   8.568  1.00  0.00     0.261 C 
HETATM   22  C   UNL     1      43.332 -10.842   9.528  1.00  0.00     0.195 C 
HETATM   23  O   UNL     1      43.026 -10.410  10.857  1.00  0.00    -0.388 OA
HETATM   24  C   UNL     1      41.873 -11.084  11.374  1.00  0.00     0.195 C 
HETATM   25  C   UNL     1      40.639 -10.782  10.518  1.00  0.00     0.261 C 
ENDBRANCH  18  19
ENDBRANCH  17  18
ENDBRANCH  16  17
ENDBRANCH  13  16
ENDBRANCH   6  12
BRANCH   9  26
HETATM   26  C   UNL     1      40.934 -17.027   1.528  1.00  0.00     0.409 C 
HETATM   27  F   UNL     1      40.835 -15.929   0.747  1.00  0.00    -0.169 F 
HETATM   28  F   UNL     1      40.649 -18.090   0.735  1.00  0.00    -0.169 F 
HETATM   29  F   UNL     1      39.960 -16.960   2.463  1.00  0.00    -0.169 F 
ENDBRANCH   9  26
BRANCH   1  30
HETATM   30  C   UNL     1      44.240 -20.368   3.238  1.00  0.00     0.005 A 
HETATM   31  S   UNL     1      44.768 -21.044   4.725  1.00  0.00    -0.104 SA
HETATM   32  C   UNL     1      44.962 -22.594   4.029  1.00  0.00     0.050 A 
HETATM   33  C   UNL     1      44.633 -22.604   2.693  1.00  0.00     0.008 A 
HETATM   34  C   UNL     1      44.207 -21.322   2.238  1.00  0.00     0.017 A 
ENDBRANCH   1  30
TORSDOF 7
ENDMDL
MODEL 2
REMARK VINA RESULT:      -8.2      5.747     10.155
REMARK  7 active torsions:
REMARK  status: ('A' for Active; 'I' for Inactive)
REMARK    1  A    between atoms: C_4  and  C_5 
REMARK    2  A    between atoms: C_10  and  C_11 
REMARK       I    between atoms: C_11  and  N_12 
REMARK    3  A    between atoms: N_12  and  C_13 
REMARK    4  A    between atoms: C_13  and  C_14 
REMARK    5  A    between atoms: C_14  and  C_15 
REMARK    6  A    between atoms: C_15  and  N_16 
REMARK    7  A    between atoms: C_26  and  C_27 
ROOT
HETATM    1  C   UNL     1      42.628  -9.350  12.001  1.00  0.00     0.125 C 
HETATM    2  N   UNL     1      41.480  -9.933  11.299  1.00  0.00    -0.365 N 
HETATM    3  C   UNL     1      41.638 -10.335  10.015  1.00  0.00     0.141 A 
HETATM    4  N   UNL     1      42.884 -10.615   9.516  1.00  0.00    -0.238 N 
HETATM    5  N   UNL     1      42.880 -10.913   8.203  1.00  0.00    -0.163 NA
HETATM    6  C   UNL     1      41.568 -10.916   7.868  1.00  0.00     0.165 A 
HETATM    7  C   UNL     1      40.768 -10.564   8.981  1.00  0.00     0.092 A 
HETATM    8 BR   UNL     1      38.903 -10.410   9.025  1.00  0.00    -0.044 Br
HETATM    9  C   UNL     1      44.121 -10.439  10.265  1.00  0.00     0.221 C 
HETATM   10  C   UNL     1      43.840 -10.268  11.772  1.00  0.00     0.067 C 
HETATM   11  H   UNL     1      40.582  -9.544  11.595  1.00  0.00     0.162 HD
ENDROOT
BRANCH   6  12
HETATM   12  C   UNL     1      41.163 -11.255   6.500  1.00  0.00     0.273 C 
HETATM   13  N   UNL     1      40.280 -12.314   6.426  1.00  0.00    -0.355 N 
HETATM   14  H   UNL     1      40.095 -12.777   7.320  1.00  0.00     0.162 HD
HETATM   15  O   UNL     1      41.517 -10.653   5.484  1.00  0.00    -0.266 OA
BRANCH  13  16
HETATM   16  C   UNL     1      39.887 -12.936   5.186  1.00  0.00     0.124 C 
BRANCH  16  17
HETATM   17  C   UNL     1      40.680 -14.199   4.848  1.00  0.00     0.047 C 
BRANCH  17  18
HETATM   18  C   UNL     1      40.578 -15.371   5.825  1.00  0.00     0.236 C 
BRANCH  18  19
HETATM   19  N   UNL     1      41.822 -15.609   6.636  1.00  0.00    -0.067 N 
HETATM   20  H   UNL     1      41.706 -15.080   7.527  1.00  0.00     0.280 HD
HETATM   21  C   UNL     1      42.117 -17.061   6.964  1.00  0.00     0.261 C 
HETATM   22  C   UNL     1      43.396 -17.155   7.805  1.00  0.00     0.195 C 
HETATM   23  O   UNL     1      44.503 -16.549   7.130  1.00  0.00    -0.388 OA
HETATM   24  C   UNL     1      44.269 -15.157   6.888  1.00  0.00     0.195 C 
HETATM   25  C   UNL     1      43.045 -14.961   5.988  1.00  0.00     0.261 C 
ENDBRANCH  18  19
ENDBRANCH  17  18
ENDBRANCH  16  17
ENDBRANCH  13  16
ENDBRANCH   6  12
BRANCH   9  26
HETATM   26  C   UNL     1      45.063 -11.606  10.049  1.00  0.00     0.409 C 
HETATM   27  F   UNL     1      44.415 -12.773   9.840  1.00  0.00    -0.169 F 
HETATM   28  F   UNL     1      45.829 -11.389   8.951  1.00  0.00    -0.169 F 
HETATM   29  F   UNL     1      45.906 -11.779  11.092  1.00  0.00    -0.169 F 
ENDBRANCH   9  26
BRANCH   1  30
HETATM   30  C   UNL     1      42.367  -9.149  13.472  1.00  0.00     0.005 A 
HETATM   31  S   UNL     1      41.824  -7.623  14.041  1.00  0.00    -0.104 SA
HETATM   32  C   UNL     1      41.753  -8.174  15.657  1.00  0.00     0.050 A 
HETATM   33  C   UNL     1      42.134  -9.492  15.770  1.00  0.00     0.008 A 
HETATM   34  C   UNL     1      42.479 -10.058  14.508  1.00  0.00     0.017 A 
ENDBRANCH   1  30
TORSDOF 7
ENDMDL
MODEL 3
REMARK VINA RESULT:      -8.1      2.840      3.343
REMARK  7 active torsions:
REMARK  status: ('A' for Active; 'I' for Inactive)
REMARK    1  A    between atoms: C_4  and  C_5 
REMARK    2  A    between atoms: C_10  and  C_11 
REMARK       I    between atoms: C_11  and  N_12 
REMARK    3  A    between atoms: N_12  and  C_13 
REMARK    4  A    between atoms: C_13  and  C_14 
REMARK    5  A    between atoms: C_14  and  C_15 
REMARK    6  A    between atoms: C_15  and  N_16 
REMARK    7  A    between atoms: C_26  and  C_27 
ROOT
HETATM    1  C   UNL     1      42.978 -18.769   4.042  1.00  0.00     0.125 C 
HETATM    2  N   UNL     1      42.997 -17.488   3.328  1.00  0.00    -0.365 N 
HETATM    3  C   UNL     1      42.705 -16.356   4.013  1.00  0.00     0.141 A 
HETATM    4  N   UNL     1      42.824 -16.313   5.379  1.00  0.00    -0.238 N 
HETATM    5  N   UNL     1      42.411 -15.149   5.916  1.00  0.00    -0.163 NA
HETATM    6  C   UNL     1      42.103 -14.381   4.845  1.00  0.00     0.165 A 
HETATM    7  C   UNL     1      42.282 -15.107   3.642  1.00  0.00     0.092 A 
HETATM    8 BR   UNL     1      41.974 -14.495   1.900  1.00  0.00    -0.044 Br
HETATM    9  C   UNL     1      43.187 -17.458   6.202  1.00  0.00     0.221 C 
HETATM   10  C   UNL     1      43.776 -18.597   5.345  1.00  0.00     0.067 C 
HETATM   11  H   UNL     1      42.718 -17.564   2.347  1.00  0.00     0.162 HD
ENDROOT
BRANCH   6  12
HETATM   12  C   UNL     1      41.654 -12.999   5.040  1.00  0.00     0.273 C 
HETATM   13  N   UNL     1      40.817 -12.833   6.125  1.00  0.00    -0.355 N 
HETATM   14  H   UNL     1      40.551 -13.702   6.594  1.00  0.00     0.162 HD
HETATM   15  O   UNL     1      41.997 -12.036   4.351  1.00  0.00    -0.266 OA
BRANCH  13  16
HETATM   16  C   UNL     1      40.111 -11.607   6.405  1.00  0.00     0.124 C 
BRANCH  16  17
HETATM   17  C   UNL     1      40.506 -10.954   7.730  1.00  0.00     0.047 C 
BRANCH  17  18
HETATM   18  C   UNL     1      41.999 -10.742   7.988  1.00  0.00     0.236 C 
BRANCH  18  19
HETATM   19  N   UNL     1      42.493 -11.335   9.278  1.00  0.00    -0.067 N 
HETATM   20  H   UNL     1      42.058 -12.279   9.361  1.00  0.00     0.280 HD
HETATM   21  C   UNL     1      43.999 -11.479   9.392  1.00  0.00     0.261 C 
HETATM   22  C   UNL     1      44.359 -12.111  10.743  1.00  0.00     0.195 C 
HETATM   23  O   UNL     1      43.837 -11.341  11.829  1.00  0.00    -0.388 OA
HETATM   24  C   UNL     1      42.407 -11.266  11.777  1.00  0.00     0.195 C 
HETATM   25  C   UNL     1      41.947 -10.578  10.488  1.00  0.00     0.261 C 
ENDBRANCH  18  19
ENDBRANCH  17  18
ENDBRANCH  16  17
ENDBRANCH  13  16
ENDBRANCH   6  12
BRANCH   9  26
HETATM   26  C   UNL     1      44.175 -17.067   7.282  1.00  0.00     0.409 C 
HETATM   27  F   UNL     1      43.574 -16.665   8.423  1.00  0.00    -0.169 F 
HETATM   28  F   UNL     1      44.953 -18.129   7.610  1.00  0.00    -0.169 F 
HETATM   29  F   UNL     1      45.005 -16.079   6.879  1.00  0.00    -0.169 F 
ENDBRANCH   9  26
BRANCH   1  30
HETATM   30  C   UNL     1      43.526 -19.902   3.213  1.00  0.00     0.005 A 
HETATM   31  S   UNL     1      44.737 -20.929   3.867  1.00  0.00    -0.104 SA
HETATM   32  C   UNL     1      44.797 -21.876   2.445  1.00  0.00     0.050 A 
HETATM   33  C   UNL     1      43.917 -21.426   1.488  1.00  0.00     0.008 A 
HETATM   34  C   UNL     1      43.176 -20.293   1.934  1.00  0.00     0.017 A 
ENDBRANCH   1  30
TORSDOF 7
ENDMDL
MODEL 4
REMARK VINA RESULT:      -7.9      4.491      7.552
REMARK  7 active torsions:
REMARK  status: ('A' for Active; 'I' for Inactive)
REMARK    1  A    between atoms: C_4  and  C_5 
REMARK    2  A    between atoms: C_10  and  C_11 
REMARK       I    between atoms: C_11  and  N_12 
REMARK    3  A    between atoms: N_12  and  C_13 
REMARK    4  A    between atoms: C_13  and  C_14 
REMARK    5  A    between atoms: C_14  and  C_15 
REMARK    6  A    between atoms: C_15  and  N_16 
REMARK    7  A    between atoms: C_26  and  C_27 
ROOT
HETATM    1  C   UNL     1      42.944 -18.129   5.281  1.00  0.00     0.125 C 
HETATM    2  N   UNL     1      42.686 -17.760   3.886  1.00  0.00    -0.365 N 
HETATM    3  C   UNL     1      42.231 -16.513   3.616  1.00  0.00     0.141 A 
HETATM    4  N   UNL     1      42.417 -15.489   4.510  1.00  0.00    -0.238 N 
HETATM    5  N   UNL     1      41.829 -14.337   4.136  1.00  0.00    -0.163 NA
HETATM    6  C   UNL     1      41.324 -14.607   2.908  1.00  0.00     0.165 A 
HETATM    7  C   UNL     1      41.565 -15.957   2.555  1.00  0.00     0.092 A 
HETATM    8 BR   UNL     1      41.051 -16.817   0.974  1.00  0.00    -0.044 Br
HETATM    9  C   UNL     1      43.031 -15.654   5.821  1.00  0.00     0.221 C 
HETATM   10  C   UNL     1      43.769 -17.004   5.925  1.00  0.00     0.067 C 
HETATM   11  H   UNL     1      42.371 -18.543   3.308  1.00  0.00     0.162 HD
ENDROOT
BRANCH   6  12
HETATM   12  C   UNL     1      40.640 -13.554   2.151  1.00  0.00     0.273 C 
HETATM   13  N   UNL     1      39.269 -13.703   2.104  1.00  0.00    -0.355 N 
HETATM   14  H   UNL     1      38.919 -14.567   2.525  1.00  0.00     0.162 HD
HETATM   15  O   UNL     1      41.191 -12.586   1.623  1.00  0.00    -0.266 OA
BRANCH  13  16
HETATM   16  C   UNL     1      38.409 -12.897   1.272  1.00  0.00     0.124 C 
BRANCH  16  17
HETATM   17  C   UNL     1      37.612 -13.700   0.244  1.00  0.00     0.047 C 
BRANCH  17  18
HETATM   18  C   UNL     1      37.854 -13.379  -1.233  1.00  0.00     0.236 C 
BRANCH  18  19
HETATM   19  N   UNL     1      38.472 -14.504  -2.016  1.00  0.00    -0.067 N 
HETATM   20  H   UNL     1      38.285 -15.380  -1.482  1.00  0.00     0.280 HD
HETATM   21  C   UNL     1      37.952 -14.673  -3.432  1.00  0.00     0.261 C 
HETATM   22  C   UNL     1      38.652 -15.861  -4.103  1.00  0.00     0.195 C 
HETATM   23  O   UNL     1      40.073 -15.693  -4.098  1.00  0.00    -0.388 OA
HETATM   24  C   UNL     1      40.585 -15.615  -2.763  1.00  0.00     0.195 C 
HETATM   25  C   UNL     1      39.997 -14.406  -2.027  1.00  0.00     0.261 C 
ENDBRANCH  18  19
ENDBRANCH  17  18
ENDBRANCH  16  17
ENDBRANCH  13  16
ENDBRANCH   6  12
BRANCH   9  26
HETATM   26  C   UNL     1      43.989 -14.521   6.123  1.00  0.00     0.409 C 
HETATM   27  F   UNL     1      45.059 -14.916   6.847  1.00  0.00    -0.169 F 
HETATM   28  F   UNL     1      44.477 -14.002   4.968  1.00  0.00    -0.169 F 
HETATM   29  F   UNL     1      43.388 -13.508   6.788  1.00  0.00    -0.169 F 
ENDBRANCH   9  26
BRANCH   1  30
HETATM   30  C   UNL     1      43.643 -19.459   5.409  1.00  0.00     0.005 A 
HETATM   31  S   UNL     1      44.556 -20.072   4.091  1.00  0.00    -0.104 SA
HETATM   32  C   UNL     1      45.000 -21.474   4.963  1.00  0.00     0.050 A 
HETATM   33  C   UNL     1      44.468 -21.482   6.232  1.00  0.00     0.008 A 
HETATM   34  C   UNL     1      43.692 -20.315   6.494  1.00  0.00     0.017 A 
ENDBRANCH   1  30
TORSDOF 7
ENDMDL
MODEL 5
REMARK VINA RESULT:      -7.8      4.835      9.248
REMARK  7 active torsions:
REMARK  status: ('A' for Active; 'I' for Inactive)
REMARK    1  A    between atoms: C_4  and  C_5 
REMARK    2  A    between atoms: C_10  and  C_11 
REMARK       I    between atoms: C_11  and  N_12 
REMARK    3  A    between atoms: N_12  and  C_13 
REMARK    4  A    between atoms: C_13  and  C_14 
REMARK    5  A    between atoms: C_14  and  C_15 
REMARK    6  A    between atoms: C_15  and  N_16 
REMARK    7  A    between atoms: C_26  and  C_27 
ROOT
HETATM    1  C   UNL     1      44.451 -13.792   7.097  1.00  0.00     0.125 C 
HETATM    2  N   UNL     1      43.388 -13.418   6.159  1.00  0.00    -0.365 N 
HETATM    3  C   UNL     1      42.901 -14.360   5.316  1.00  0.00     0.141 A 
HETATM    4  N   UNL     1      43.045 -15.695   5.598  1.00  0.00    -0.238 N 
HETATM    5  N   UNL     1      42.589 -16.501   4.620  1.00  0.00    -0.163 NA
HETATM    6  C   UNL     1      42.046 -15.651   3.717  1.00  0.00     0.165 A 
HETATM    7  C   UNL     1      42.222 -14.308   4.127  1.00  0.00     0.092 A 
HETATM    8 BR   UNL     1      41.667 -12.770   3.216  1.00  0.00    -0.044 Br
HETATM    9  C   UNL     1      43.774 -16.211   6.748  1.00  0.00     0.221 C 
HETATM   10  C   UNL     1      44.034 -15.101   7.787  1.00  0.00     0.067 C 
HETATM   11  H   UNL     1      43.447 -12.447   5.843  1.00  0.00     0.162 HD
ENDROOT
BRANCH   6  12
HETATM   12  C   UNL     1      41.395 -16.180   2.514  1.00  0.00     0.273 C 
HETATM   13  N   UNL     1      41.968 -15.748   1.335  1.00  0.00    -0.355 N 
HETATM   14  H   UNL     1      42.708 -15.052   1.451  1.00  0.00     0.162 HD
HETATM   15  O   UNL     1      40.449 -16.971   2.507  1.00  0.00    -0.266 OA
BRANCH  13  16
HETATM   16  C   UNL     1      41.391 -15.989   0.035  1.00  0.00     0.124 C 
BRANCH  16  17
HETATM   17  C   UNL     1      41.385 -14.763  -0.878  1.00  0.00     0.047 C 
BRANCH  17  18
HETATM   18  C   UNL     1      40.031 -14.111  -1.165  1.00  0.00     0.236 C 
BRANCH  18  19
HETATM   19  N   UNL     1      39.160 -14.888  -2.112  1.00  0.00    -0.067 N 
HETATM   20  H   UNL     1      38.857 -15.748  -1.606  1.00  0.00     0.280 HD
HETATM   21  C   UNL     1      37.928 -14.155  -2.612  1.00  0.00     0.261 C 
HETATM   22  C   UNL     1      37.127 -15.067  -3.549  1.00  0.00     0.195 C 
HETATM   23  O   UNL     1      37.931 -15.517  -4.644  1.00  0.00    -0.388 OA
HETATM   24  C   UNL     1      39.054 -16.281  -4.187  1.00  0.00     0.195 C 
HETATM   25  C   UNL     1      39.962 -15.428  -3.296  1.00  0.00     0.261 C 
ENDBRANCH  18  19
ENDBRANCH  17  18
ENDBRANCH  16  17
ENDBRANCH  13  16
ENDBRANCH   6  12
BRANCH   9  26
HETATM   26  C   UNL     1      43.031 -17.359   7.399  1.00  0.00     0.409 C 
HETATM   27  F   UNL     1      43.373 -18.563   6.892  1.00  0.00    -0.169 F 
HETATM   28  F   UNL     1      43.314 -17.406   8.725  1.00  0.00    -0.169 F 
HETATM   29  F   UNL     1      41.690 -17.226   7.286  1.00  0.00    -0.169 F 
ENDBRANCH   9  26
BRANCH   1  30
HETATM   30  C   UNL     1      44.740 -12.712   8.107  1.00  0.00     0.005 A 
HETATM   31  S   UNL     1      43.459 -11.733   8.698  1.00  0.00    -0.104 SA
HETATM   32  C   UNL     1      44.511 -10.853   9.718  1.00  0.00     0.050 A 
HETATM   33  C   UNL     1      45.812 -11.289   9.616  1.00  0.00     0.008 A 
HETATM   34  C   UNL     1      45.943 -12.368   8.694  1.00  0.00     0.017 A 
ENDBRANCH   1  30
TORSDOF 7
ENDMDL
MODEL 6
REMARK VINA RESULT:      -7.6      2.785      4.729
REMARK  7 active torsions:
REMARK  status: ('A' for Active; 'I' for Inactive)
REMARK    1  A    between atoms: C_4  and  C_5 
REMARK    2  A    between atoms: C_10  and  C_11 
REMARK       I    between atoms: C_11  and  N_12 
REMARK    3  A    between atoms: N_12  and  C_13 
REMARK    4  A    between atoms: C_13  and  C_14 
REMARK    5  A    between atoms: C_14  and  C_15 
REMARK    6  A    between atoms: C_15  and  N_16 
REMARK    7  A    between atoms: C_26  and  C_27 
ROOT
HETATM    1  C   UNL     1      43.973 -18.809   3.348  1.00  0.00     0.125 C 
HETATM    2  N   UNL     1      43.693 -18.065   4.580  1.00  0.00    -0.365 N 
HETATM    3  C   UNL     1      43.201 -16.807   4.483  1.00  0.00     0.141 A 
HETATM    4  N   UNL     1      42.568 -16.387   3.341  1.00  0.00    -0.238 N 
HETATM    5  N   UNL     1      42.218 -15.087   3.370  1.00  0.00    -0.163 NA
HETATM    6  C   UNL     1      42.557 -14.680   4.615  1.00  0.00     0.165 A 
HETATM    7  C   UNL     1      43.169 -15.734   5.336  1.00  0.00     0.092 A 
HETATM    8 BR   UNL     1      43.828 -15.669   7.086  1.00  0.00    -0.044 Br
HETATM    9  C   UNL     1      42.434 -17.198   2.139  1.00  0.00     0.221 C 
HETATM   10  C   UNL     1      42.749 -18.679   2.428  1.00  0.00     0.067 C 
HETATM   11  H   UNL     1      44.326 -18.297   5.349  1.00  0.00     0.162 HD
ENDROOT
BRANCH   6  12
HETATM   12  C   UNL     1      42.277 -13.304   5.038  1.00  0.00     0.273 C 
HETATM   13  N   UNL     1      41.512 -12.589   4.137  1.00  0.00    -0.355 N 
HETATM   14  H   UNL     1      41.318 -13.080   3.260  1.00  0.00     0.162 HD
HETATM   15  O   UNL     1      42.633 -12.802   6.105  1.00  0.00    -0.266 OA
BRANCH  13  16
HETATM   16  C   UNL     1      41.264 -11.174   4.252  1.00  0.00     0.124 C 
BRANCH  16  17
HETATM   17  C   UNL     1      39.954 -10.720   3.609  1.00  0.00     0.047 C 
BRANCH  17  18
HETATM   18  C   UNL     1      38.836 -11.758   3.492  1.00  0.00     0.236 C 
BRANCH  18  19
HETATM   19  N   UNL     1      38.512 -12.160   2.080  1.00  0.00    -0.067 N 
HETATM   20  H   UNL     1      37.476 -12.096   1.980  1.00  0.00     0.280 HD
HETATM   21  C   UNL     1      39.161 -11.317   0.998  1.00  0.00     0.261 C 
HETATM   22  C   UNL     1      38.731 -11.824  -0.384  1.00  0.00     0.195 C 
HETATM   23  O   UNL     1      39.058 -13.207  -0.551  1.00  0.00    -0.388 OA
HETATM   24  C   UNL     1      38.385 -14.023   0.415  1.00  0.00     0.195 C 
HETATM   25  C   UNL     1      38.808 -13.640   1.837  1.00  0.00     0.261 C 
ENDBRANCH  18  19
ENDBRANCH  17  18
ENDBRANCH  16  17
ENDBRANCH  13  16
ENDBRANCH   6  12
BRANCH   9  26
HETATM   26  C   UNL     1      41.046 -17.075   1.546  1.00  0.00     0.409 C 
HETATM   27  F   UNL     1      40.938 -16.056   0.665  1.00  0.00    -0.169 F 
HETATM   28  F   UNL     1      40.727 -18.205   0.867  1.00  0.00    -0.169 F 
HETATM   29  F   UNL     1      40.099 -16.905   2.496  1.00  0.00    -0.169 F 
ENDBRANCH   9  26
BRANCH   1  30
HETATM   30  C   UNL     1      44.309 -20.255   3.608  1.00  0.00     0.005 A 
HETATM   31  S   UNL     1      44.211 -21.397   2.329  1.00  0.00    -0.104 SA
HETATM   32  C   UNL     1      44.719 -22.677   3.341  1.00  0.00     0.050 A 
HETATM   33  C   UNL     1      44.960 -22.252   4.628  1.00  0.00     0.008 A 
HETATM   34  C   UNL     1      44.733 -20.853   4.780  1.00  0.00     0.017 A 
ENDBRANCH   1  30
TORSDOF 7
ENDMDL
MODEL 7
REMARK VINA RESULT:      -7.5      2.865      3.672
REMARK  7 active torsions:
REMARK  status: ('A' for Active; 'I' for Inactive)
REMARK    1  A    between atoms: C_4  and  C_5 
REMARK    2  A    between atoms: C_10  and  C_11 
REMARK       I    between atoms: C_11  and  N_12 
REMARK    3  A    between atoms: N_12  and  C_13 
REMARK    4  A    between atoms: C_13  and  C_14 
REMARK    5  A    between atoms: C_14  and  C_15 
REMARK    6  A    between atoms: C_15  and  N_16 
REMARK    7  A    between atoms: C_26  and  C_27 
ROOT
HETATM    1  C   UNL     1      42.610 -17.822   4.417  1.00  0.00     0.125 C 
HETATM    2  N   UNL     1      41.931 -16.791   3.625  1.00  0.00    -0.365 N 
HETATM    3  C   UNL     1      41.512 -15.663   4.246  1.00  0.00     0.141 A 
HETATM    4  N   UNL     1      42.065 -15.272   5.438  1.00  0.00    -0.238 N 
HETATM    5  N   UNL     1      41.478 -14.182   5.969  1.00  0.00    -0.163 NA
HETATM    6  C   UNL     1      40.574 -13.805   5.034  1.00  0.00     0.165 A 
HETATM    7  C   UNL     1      40.575 -14.708   3.945  1.00  0.00     0.092 A 
HETATM    8 BR   UNL     1      39.497 -14.633   2.416  1.00  0.00    -0.044 Br
HETATM    9  C   UNL     1      43.066 -16.041   6.164  1.00  0.00     0.221 C 
HETATM   10  C   UNL     1      43.688 -17.131   5.267  1.00  0.00     0.067 C 
HETATM   11  H   UNL     1      41.381 -17.170   2.850  1.00  0.00     0.162 HD
ENDROOT
BRANCH   6  12
HETATM   12  C   UNL     1      39.761 -12.603   5.245  1.00  0.00     0.273 C 
HETATM   13  N   UNL     1      40.351 -11.443   4.784  1.00  0.00    -0.355 N 
HETATM   14  H   UNL     1      41.307 -11.560   4.438  1.00  0.00     0.162 HD
HETATM   15  O   UNL     1      38.635 -12.585   5.746  1.00  0.00    -0.266 OA
BRANCH  13  16
HETATM   16  C   UNL     1      39.824 -10.126   5.041  1.00  0.00     0.124 C 
BRANCH  16  17
HETATM   17  C   UNL     1      40.362  -9.482   6.320  1.00  0.00     0.047 C 
BRANCH  17  18
HETATM   18  C   UNL     1      39.545  -9.678   7.598  1.00  0.00     0.236 C 
BRANCH  18  19
HETATM   19  N   UNL     1      40.374  -9.854   8.840  1.00  0.00    -0.067 N 
HETATM   20  H   UNL     1      40.412  -8.924   9.311  1.00  0.00     0.280 HD
HETATM   21  C   UNL     1      39.856 -10.882   9.828  1.00  0.00     0.261 C 
HETATM   22  C   UNL     1      40.783 -10.945  11.048  1.00  0.00     0.195 C 
HETATM   23  O   UNL     1      42.127 -11.243  10.660  1.00  0.00    -0.388 OA
HETATM   24  C   UNL     1      42.656 -10.234   9.791  1.00  0.00     0.195 C 
HETATM   25  C   UNL     1      41.836 -10.146   8.501  1.00  0.00     0.261 C 
ENDBRANCH  18  19
ENDBRANCH  17  18
ENDBRANCH  16  17
ENDBRANCH  13  16
ENDBRANCH   6  12
BRANCH   9  26
HETATM   26  C   UNL     1      44.157 -15.144   6.711  1.00  0.00     0.409 C 
HETATM   27  F   UNL     1      43.934 -14.765   7.989  1.00  0.00    -0.169 F 
HETATM   28  F   UNL     1      45.345 -15.798   6.706  1.00  0.00    -0.169 F 
HETATM   29  F   UNL     1      44.318 -14.026   5.969  1.00  0.00    -0.169 F 
ENDBRANCH   9  26
BRANCH   1  30
HETATM   30  C   UNL     1      43.204 -18.912   3.563  1.00  0.00     0.005 A 
HETATM   31  S   UNL     1      44.442 -19.916   4.202  1.00  0.00    -0.104 SA
HETATM   32  C   UNL     1      44.549 -20.820   2.755  1.00  0.00     0.050 A 
HETATM   33  C   UNL     1      43.665 -20.373   1.801  1.00  0.00     0.008 A 
HETATM   34  C   UNL     1      42.882 -19.278   2.269  1.00  0.00     0.017 A 
ENDBRANCH   1  30
TORSDOF 7
ENDMDL
MODEL 8
REMARK VINA RESULT:      -7.3      3.017      3.553
REMARK  7 active torsions:
REMARK  status: ('A' for Active; 'I' for Inactive)
REMARK    1  A    between atoms: C_4  and  C_5 
REMARK    2  A    between atoms: C_10  and  C_11 
REMARK       I    between atoms: C_11  and  N_12 
REMARK    3  A    between atoms: N_12  and  C_13 
REMARK    4  A    between atoms: C_13  and  C_14 
REMARK    5  A    between atoms: C_14  and  C_15 
REMARK    6  A    between atoms: C_15  and  N_16 
REMARK    7  A    between atoms: C_26  and  C_27 
ROOT
HETATM    1  C   UNL     1      42.935 -18.768   4.013  1.00  0.00     0.125 C 
HETATM    2  N   UNL     1      42.976 -17.476   3.321  1.00  0.00    -0.365 N 
HETATM    3  C   UNL     1      42.638 -16.358   4.008  1.00  0.00     0.141 A 
HETATM    4  N   UNL     1      42.686 -16.336   5.378  1.00  0.00    -0.238 N 
HETATM    5  N   UNL     1      42.234 -15.185   5.911  1.00  0.00    -0.163 NA
HETATM    6  C   UNL     1      41.973 -14.403   4.837  1.00  0.00     0.165 A 
HETATM    7  C   UNL     1      42.220 -15.107   3.635  1.00  0.00     0.092 A 
HETATM    8 BR   UNL     1      41.994 -14.472   1.889  1.00  0.00    -0.044 Br
HETATM    9  C   UNL     1      43.019 -17.490   6.201  1.00  0.00     0.221 C 
HETATM   10  C   UNL     1      43.663 -18.609   5.357  1.00  0.00     0.067 C 
HETATM   11  H   UNL     1      42.749 -17.539   2.326  1.00  0.00     0.162 HD
ENDROOT
BRANCH   6  12
HETATM   12  C   UNL     1      41.499 -13.029   5.030  1.00  0.00     0.273 C 
HETATM   13  N   UNL     1      41.841 -12.488   6.254  1.00  0.00    -0.355 N 
HETATM   14  H   UNL     1      42.299 -13.141   6.895  1.00  0.00     0.162 HD
HETATM   15  O   UNL     1      40.886 -12.364   4.193  1.00  0.00    -0.266 OA
BRANCH  13  16
HETATM   16  C   UNL     1      41.334 -11.226   6.735  1.00  0.00     0.124 C 
BRANCH  16  17
HETATM   17  C   UNL     1      39.967 -11.326   7.413  1.00  0.00     0.047 C 
BRANCH  17  18
HETATM   18  C   UNL     1      39.355 -10.030   7.947  1.00  0.00     0.236 C 
BRANCH  18  19
HETATM   19  N   UNL     1      39.727  -9.711   9.368  1.00  0.00    -0.067 N 
HETATM   20  H   UNL     1      40.616  -9.168   9.332  1.00  0.00     0.280 HD
HETATM   21  C   UNL     1      38.698  -8.911  10.146  1.00  0.00     0.261 C 
HETATM   22  C   UNL     1      39.213  -8.644  11.566  1.00  0.00     0.195 C 
HETATM   23  O   UNL     1      39.525  -9.866  12.241  1.00  0.00    -0.388 OA
HETATM   24  C   UNL     1      40.555 -10.591  11.558  1.00  0.00     0.195 C 
HETATM   25  C   UNL     1      40.104 -10.972  10.145  1.00  0.00     0.261 C 
ENDBRANCH  18  19
ENDBRANCH  17  18
ENDBRANCH  16  17
ENDBRANCH  13  16
ENDBRANCH   6  12
BRANCH   9  26
HETATM   26  C   UNL     1      43.947 -17.106   7.335  1.00  0.00     0.409 C 
HETATM   27  F   UNL     1      43.285 -16.701   8.441  1.00  0.00    -0.169 F 
HETATM   28  F   UNL     1      44.698 -18.173   7.706  1.00  0.00    -0.169 F 
HETATM   29  F   UNL     1      44.805 -16.123   6.981  1.00  0.00    -0.169 F 
ENDBRANCH   9  26
BRANCH   1  30
HETATM   30  C   UNL     1      43.537 -19.883   3.196  1.00  0.00     0.005 A 
HETATM   31  S   UNL     1      44.719 -20.911   3.896  1.00  0.00    -0.104 SA
HETATM   32  C   UNL     1      44.864 -21.833   2.464  1.00  0.00     0.050 A 
HETATM   33  C   UNL     1      44.033 -21.373   1.469  1.00  0.00     0.008 A 
HETATM   34  C   UNL     1      43.259 -20.254   1.893  1.00  0.00     0.017 A 
ENDBRANCH   1  30
TORSDOF 7
ENDMDL
MODEL 9
REMARK VINA RESULT:      -7.3      4.132      8.838
REMARK  7 active torsions:
REMARK  status: ('A' for Active; 'I' for Inactive)
REMARK    1  A    between atoms: C_4  and  C_5 
REMARK    2  A    between atoms: C_10  and  C_11 
REMARK       I    between atoms: C_11  and  N_12 
REMARK    3  A    between atoms: N_12  and  C_13 
REMARK    4  A    between atoms: C_13  and  C_14 
REMARK    5  A    between atoms: C_14  and  C_15 
REMARK    6  A    between atoms: C_15  and  N_16 
REMARK    7  A    between atoms: C_26  and  C_27 
ROOT
HETATM    1  C   UNL     1      44.451 -13.242   7.707  1.00  0.00     0.125 C 
HETATM    2  N   UNL     1      43.404 -12.944   6.725  1.00  0.00    -0.365 N 
HETATM    3  C   UNL     1      43.114 -13.872   5.781  1.00  0.00     0.141 A 
HETATM    4  N   UNL     1      43.436 -15.192   5.973  1.00  0.00    -0.238 N 
HETATM    5  N   UNL     1      43.163 -15.969   4.908  1.00  0.00    -0.163 NA
HETATM    6  C   UNL     1      42.558 -15.132   4.033  1.00  0.00     0.165 A 
HETATM    7  C   UNL     1      42.508 -13.817   4.553  1.00  0.00     0.092 A 
HETATM    8 BR   UNL     1      41.790 -12.301   3.721  1.00  0.00    -0.044 Br
HETATM    9  C   UNL     1      44.161 -15.694   7.132  1.00  0.00     0.221 C 
HETATM   10  C   UNL     1      44.190 -14.650   8.266  1.00  0.00     0.067 C 
HETATM   11  H   UNL     1      43.339 -11.952   6.487  1.00  0.00     0.162 HD
ENDROOT
BRANCH   6  12
HETATM   12  C   UNL     1      42.066 -15.645   2.750  1.00  0.00     0.273 C 
HETATM   13  N   UNL     1      41.823 -17.004   2.749  1.00  0.00    -0.355 N 
HETATM   14  H   UNL     1      42.099 -17.486   3.608  1.00  0.00     0.162 HD
HETATM   15  O   UNL     1      41.837 -14.959   1.752  1.00  0.00    -0.266 OA
BRANCH  13  16
HETATM   16  C   UNL     1      41.510 -17.755   1.558  1.00  0.00     0.124 C 
BRANCH  16  17
HETATM   17  C   UNL     1      42.329 -19.036   1.400  1.00  0.00     0.047 C 
BRANCH  17  18
HETATM   18  C   UNL     1      43.698 -19.078   2.082  1.00  0.00     0.236 C 
BRANCH  18  19
HETATM   19  N   UNL     1      43.856 -20.189   3.083  1.00  0.00    -0.067 N 
HETATM   20  H   UNL     1      42.899 -20.428   3.419  1.00  0.00     0.280 HD
HETATM   21  C   UNL     1      44.519 -21.449   2.557  1.00  0.00     0.261 C 
HETATM   22  C   UNL     1      44.597 -22.499   3.672  1.00  0.00     0.195 C 
HETATM   23  O   UNL     1      45.299 -21.991   4.811  1.00  0.00    -0.388 OA
HETATM   24  C   UNL     1      44.637 -20.849   5.366  1.00  0.00     0.195 C 
HETATM   25  C   UNL     1      44.574 -19.709   4.344  1.00  0.00     0.261 C 
ENDBRANCH  18  19
ENDBRANCH  17  18
ENDBRANCH  16  17
ENDBRANCH  13  16
ENDBRANCH   6  12
BRANCH   9  26
HETATM   26  C   UNL     1      43.556 -16.986   7.640  1.00  0.00     0.409 C 
HETATM   27  F   UNL     1      43.522 -17.056   8.989  1.00  0.00    -0.169 F 
HETATM   28  F   UNL     1      42.272 -17.098   7.217  1.00  0.00    -0.169 F 
HETATM   29  F   UNL     1      44.218 -18.073   7.184  1.00  0.00    -0.169 F 
ENDBRANCH   9  26
BRANCH   1  30
HETATM   30  C   UNL     1      44.516 -12.220   8.813  1.00  0.00     0.005 A 
HETATM   31  S   UNL     1      43.223 -11.110   9.026  1.00  0.00    -0.104 SA
HETATM   32  C   UNL     1      43.983 -10.376  10.369  1.00  0.00     0.050 A 
HETATM   33  C   UNL     1      45.197 -10.958  10.656  1.00  0.00     0.008 A 
HETATM   34  C   UNL     1      45.501 -12.028   9.765  1.00  0.00     0.017 A 
ENDBRANCH   1  30
TORSDOF 7
ENDMDL
MODEL 10
REMARK VINA RESULT:      -7.3      4.475      7.259
REMARK  7 active torsions:
REMARK  status: ('A' for Active; 'I' for Inactive)
REMARK    1  A    between atoms: C_4  and  C_5 
REMARK    2  A    between atoms: C_10  and  C_11 
REMARK       I    between atoms: C_11  and  N_12 
REMARK    3  A    between atoms: N_12  and  C_13 
REMARK    4  A    between atoms: C_13  and  C_14 
REMARK    5  A    between atoms: C_14  and  C_15 
REMARK    6  A    between atoms: C_15  and  N_16 
REMARK    7  A    between atoms: C_26  and  C_27 
ROOT
HETATM    1  C   UNL     1      42.973 -17.932   4.355  1.00  0.00     0.125 C 
HETATM    2  N   UNL     1      42.746 -17.334   3.036  1.00  0.00    -0.365 N 
HETATM    3  C   UNL     1      42.225 -16.085   2.967  1.00  0.00     0.141 A 
HETATM    4  N   UNL     1      42.312 -15.229   4.035  1.00  0.00    -0.238 N 
HETATM    5  N   UNL     1      41.668 -14.063   3.841  1.00  0.00    -0.163 NA
HETATM    6  C   UNL     1      41.230 -14.136   2.562  1.00  0.00     0.165 A 
HETATM    7  C   UNL     1      41.566 -15.386   1.989  1.00  0.00     0.092 A 
HETATM    8 BR   UNL     1      41.168 -15.977   0.259  1.00  0.00    -0.044 Br
HETATM    9  C   UNL     1      42.885 -15.591   5.325  1.00  0.00     0.221 C 
HETATM   10  C   UNL     1      43.701 -16.896   5.226  1.00  0.00     0.067 C 
HETATM   11  H   UNL     1      42.503 -18.017   2.315  1.00  0.00     0.162 HD
ENDROOT
BRANCH   6  12
HETATM   12  C   UNL     1      40.511 -13.004   1.969  1.00  0.00     0.273 C 
HETATM   13  N   UNL     1      39.152 -13.212   1.840  1.00  0.00    -0.355 N 
HETATM   14  H   UNL     1      38.840 -14.154   2.091  1.00  0.00     0.162 HD
HETATM   15  O   UNL     1      41.022 -11.932   1.639  1.00  0.00    -0.266 OA
BRANCH  13  16
HETATM   16  C   UNL     1      38.275 -12.319   1.124  1.00  0.00     0.124 C 
BRANCH  16  17
HETATM   17  C   UNL     1      38.148 -12.637  -0.366  1.00  0.00     0.047 C 
BRANCH  17  18
HETATM   18  C   UNL     1      39.095 -11.906  -1.320  1.00  0.00     0.236 C 
BRANCH  18  19
HETATM   19  N   UNL     1      39.702 -12.784  -2.380  1.00  0.00    -0.067 N 
HETATM   20  H   UNL     1      39.490 -12.338  -3.297  1.00  0.00     0.280 HD
HETATM   21  C   UNL     1      41.202 -12.991  -2.271  1.00  0.00     0.261 C 
HETATM   22  C   UNL     1      41.687 -13.885  -3.418  1.00  0.00     0.195 C 
HETATM   23  O   UNL     1      40.998 -15.139  -3.422  1.00  0.00    -0.388 OA
HETATM   24  C   UNL     1      39.589 -14.961  -3.606  1.00  0.00     0.195 C 
HETATM   25  C   UNL     1      38.993 -14.135  -2.462  1.00  0.00     0.261 C 
ENDBRANCH  18  19
ENDBRANCH  17  18
ENDBRANCH  16  17
ENDBRANCH  13  16
ENDBRANCH   6  12
BRANCH   9  26
HETATM   26  C   UNL     1      43.759 -14.480   5.868  1.00  0.00     0.409 C 
HETATM   27  F   UNL     1      44.461 -13.845   4.905  1.00  0.00    -0.169 F 
HETATM   28  F   UNL     1      42.992 -13.536   6.470  1.00  0.00    -0.169 F 
HETATM   29  F   UNL     1      44.635 -14.927   6.795  1.00  0.00    -0.169 F 
ENDBRANCH   9  26
BRANCH   1  30
HETATM   30  C   UNL     1      43.748 -19.223   4.281  1.00  0.00     0.005 A 
HETATM   31  S   UNL     1      44.219 -20.018   5.728  1.00  0.00    -0.104 SA
HETATM   32  C   UNL     1      44.964 -21.292   4.865  1.00  0.00     0.050 A 
HETATM   33  C   UNL     1      44.861 -21.122   3.503  1.00  0.00     0.008 A 
HETATM   34  C   UNL     1      44.151 -19.933   3.166  1.00  0.00     0.017 A 
ENDBRANCH   1  30
TORSDOF 7
ENDMDL
