MODEL 1
REMARK VINA RESULT:      -8.3      0.000      0.000
REMARK  6 active torsions:
REMARK  status: ('A' for Active; 'I' for Inactive)
REMARK    1  A    between atoms: C_7  and  S_8 
REMARK    2  A    between atoms: S_8  and  C_9 
REMARK    3  A    between atoms: C_9  and  C_10 
REMARK    4  A    between atoms: C_18  and  C_19 
REMARK    5  A    between atoms: C_26  and  C_27 
REMARK    6  A    between atoms: C_27  and  O_28 
ROOT
HETATM    1  C   UNL     1      42.181 -11.570   6.871  1.00  0.00     0.070 C 
HETATM    2  C   UNL     1      42.009 -12.927   6.238  1.00  0.00     0.037 C 
HETATM    3  N   UNL     1      43.038 -13.835   6.472  1.00  0.00    -0.192 N 
HETATM    4  C   UNL     1      42.929 -15.150   6.205  1.00  0.00     0.726 A 
HETATM    5  N   UNL     1      41.853 -15.604   5.494  1.00  0.00    -0.082 N 
HETATM    6  N   UNL     1      41.854 -16.951   5.408  1.00  0.00    -0.128 NA
HETATM    7  C   UNL     1      42.984 -17.243   6.066  1.00  0.00     0.226 A 
HETATM    8  N   UNL     1      43.676 -16.162   6.557  1.00  0.00    -0.035 NA
HETATM    9  C   UNL     1      40.787 -14.735   4.983  1.00  0.00     0.203 C 
HETATM   10  C   UNL     1      40.916 -13.319   5.535  1.00  0.00     0.070 C 
HETATM   11  H   UNL     1      43.796 -13.536   7.083  1.00  0.00     0.184 HD
ENDROOT
BRANCH   7  12
HETATM   12  S   UNL     1      43.532 -18.868   6.358  1.00  0.00    -0.083 SA
BRANCH  12  13
HETATM   13  C   UNL     1      44.917 -18.994   5.196  1.00  0.00     0.123 C 
BRANCH  13  14
HETATM   14  C   UNL     1      44.573 -19.913   4.044  1.00  0.00    -0.027 A 
HETATM   15  C   UNL     1      44.004 -19.456   2.845  1.00  0.00     0.041 A 
HETATM   16 CL   UNL     1      43.676 -17.783   2.562  1.00  0.00    -0.084 Cl
HETATM   17  C   UNL     1      43.673 -20.356   1.826  1.00  0.00     0.024 A 
HETATM   18  C   UNL     1      43.896 -21.722   1.992  1.00  0.00     0.002 A 
HETATM   19  C   UNL     1      44.453 -22.193   3.177  1.00  0.00     0.001 A 
HETATM   20  C   UNL     1      44.788 -21.297   4.195  1.00  0.00     0.009 A 
ENDBRANCH  13  14
ENDBRANCH  12  13
ENDBRANCH   7  12
BRANCH   9  21
HETATM   21  C   UNL     1      40.781 -14.752   3.453  1.00  0.00    -0.028 A 
HETATM   22  C   UNL     1      41.942 -14.390   2.747  1.00  0.00     0.011 A 
HETATM   23  C   UNL     1      41.967 -14.424   1.351  1.00  0.00     0.024 A 
HETATM   24  C   UNL     1      40.834 -14.825   0.646  1.00  0.00     0.034 A 
HETATM   25 CL   UNL     1      40.867 -14.872  -1.073  1.00  0.00    -0.084 Cl
HETATM   26  C   UNL     1      39.677 -15.194   1.326  1.00  0.00     0.024 A 
HETATM   27  C   UNL     1      39.650 -15.162   2.723  1.00  0.00     0.011 A 
ENDBRANCH   9  21
BRANCH  10  28
HETATM   28  C   UNL     1      39.726 -12.480   5.280  1.00  0.00     0.293 C 
HETATM   29  O   UNL     1      38.696 -12.588   5.928  1.00  0.00    -0.259 OA
BRANCH  28  30
HETATM   30  O   UNL     1      39.919 -11.659   4.222  1.00  0.00    -0.323 OA
HETATM   31  C   UNL     1      38.799 -11.574   3.340  1.00  0.00     0.213 C 
ENDBRANCH  28  30
ENDBRANCH  10  28
TORSDOF 6
ENDMDL
MODEL 2
REMARK VINA RESULT:      -8.2      2.369      3.995
REMARK  6 active torsions:
REMARK  status: ('A' for Active; 'I' for Inactive)
REMARK    1  A    between atoms: C_7  and  S_8 
REMARK    2  A    between atoms: S_8  and  C_9 
REMARK    3  A    between atoms: C_9  and  C_10 
REMARK    4  A    between atoms: C_18  and  C_19 
REMARK    5  A    between atoms: C_26  and  C_27 
REMARK    6  A    between atoms: C_27  and  O_28 
ROOT
HETATM    1  C   UNL     1      39.622 -14.877   0.863  1.00  0.00     0.070 C 
HETATM    2  C   UNL     1      40.346 -14.945   2.184  1.00  0.00     0.037 C 
HETATM    3  N   UNL     1      40.361 -16.194   2.799  1.00  0.00    -0.192 N 
HETATM    4  C   UNL     1      41.168 -16.490   3.836  1.00  0.00     0.726 A 
HETATM    5  N   UNL     1      41.863 -15.487   4.453  1.00  0.00    -0.082 N 
HETATM    6  N   UNL     1      42.694 -15.976   5.398  1.00  0.00    -0.128 NA
HETATM    7  C   UNL     1      42.421 -17.285   5.318  1.00  0.00     0.226 A 
HETATM    8  N   UNL     1      41.480 -17.635   4.380  1.00  0.00    -0.035 NA
HETATM    9  C   UNL     1      41.783 -14.076   4.059  1.00  0.00     0.203 C 
HETATM   10  C   UNL     1      41.017 -13.910   2.751  1.00  0.00     0.070 C 
HETATM   11  H   UNL     1      39.930 -16.968   2.297  1.00  0.00     0.184 HD
ENDROOT
BRANCH   7  12
HETATM   12  S   UNL     1      43.232 -18.494   6.271  1.00  0.00    -0.083 SA
BRANCH  12  13
HETATM   13  C   UNL     1      44.755 -18.739   5.320  1.00  0.00     0.123 C 
BRANCH  13  14
HETATM   14  C   UNL     1      44.657 -19.975   4.454  1.00  0.00    -0.027 A 
HETATM   15  C   UNL     1      44.361 -19.925   3.082  1.00  0.00     0.041 A 
HETATM   16 CL   UNL     1      44.116 -18.431   2.248  1.00  0.00    -0.084 Cl
HETATM   17  C   UNL     1      44.248 -21.103   2.335  1.00  0.00     0.024 A 
HETATM   18  C   UNL     1      44.418 -22.344   2.946  1.00  0.00     0.002 A 
HETATM   19  C   UNL     1      44.705 -22.412   4.307  1.00  0.00     0.001 A 
HETATM   20  C   UNL     1      44.823 -21.238   5.054  1.00  0.00     0.009 A 
ENDBRANCH  13  14
ENDBRANCH  12  13
ENDBRANCH   7  12
BRANCH   9  21
HETATM   21  C   UNL     1      41.171 -13.247   5.189  1.00  0.00    -0.028 A 
HETATM   22  C   UNL     1      41.926 -12.228   5.794  1.00  0.00     0.011 A 
HETATM   23  C   UNL     1      41.378 -11.440   6.809  1.00  0.00     0.024 A 
HETATM   24  C   UNL     1      40.068 -11.662   7.227  1.00  0.00     0.034 A 
HETATM   25 CL   UNL     1      39.391 -10.689   8.474  1.00  0.00    -0.084 Cl
HETATM   26  C   UNL     1      39.301 -12.662   6.637  1.00  0.00     0.024 A 
HETATM   27  C   UNL     1      39.846 -13.449   5.620  1.00  0.00     0.011 A 
ENDBRANCH   9  21
BRANCH  10  28
HETATM   28  C   UNL     1      41.142 -12.558   2.166  1.00  0.00     0.293 C 
HETATM   29  O   UNL     1      40.259 -11.719   2.256  1.00  0.00    -0.259 OA
BRANCH  28  30
HETATM   30  O   UNL     1      42.305 -12.422   1.487  1.00  0.00    -0.323 OA
HETATM   31  C   UNL     1      42.145 -11.947   0.149  1.00  0.00     0.213 C 
ENDBRANCH  28  30
ENDBRANCH  10  28
TORSDOF 6
ENDMDL
MODEL 3
REMARK VINA RESULT:      -7.8      3.671      5.269
REMARK  6 active torsions:
REMARK  status: ('A' for Active; 'I' for Inactive)
REMARK    1  A    between atoms: C_7  and  S_8 
REMARK    2  A    between atoms: S_8  and  C_9 
REMARK    3  A    between atoms: C_9  and  C_10 
REMARK    4  A    between atoms: C_18  and  C_19 
REMARK    5  A    between atoms: C_26  and  C_27 
REMARK    6  A    between atoms: C_27  and  O_28 
ROOT
HETATM    1  C   UNL     1      40.969 -15.244  -3.176  1.00  0.00     0.070 C 
HETATM    2  C   UNL     1      41.053 -15.039  -1.685  1.00  0.00     0.037 C 
HETATM    3  N   UNL     1      40.888 -16.184  -0.910  1.00  0.00    -0.192 N 
HETATM    4  C   UNL     1      41.185 -16.229   0.403  1.00  0.00     0.726 A 
HETATM    5  N   UNL     1      41.473 -15.069   1.066  1.00  0.00    -0.082 N 
HETATM    6  N   UNL     1      41.845 -15.311   2.341  1.00  0.00    -0.128 NA
HETATM    7  C   UNL     1      41.726 -16.645   2.387  1.00  0.00     0.226 A 
HETATM    8  N   UNL     1      41.311 -17.240   1.219  1.00  0.00    -0.035 NA
HETATM    9  C   UNL     1      41.473 -13.745   0.433  1.00  0.00     0.203 C 
HETATM   10  C   UNL     1      41.338 -13.857  -1.081  1.00  0.00     0.070 C 
HETATM   11  H   UNL     1      40.772 -17.068  -1.401  1.00  0.00     0.184 HD
ENDROOT
BRANCH   7  12
HETATM   12  S   UNL     1      42.127 -17.597   3.787  1.00  0.00    -0.083 SA
BRANCH  12  13
HETATM   13  C   UNL     1      43.854 -18.027   3.446  1.00  0.00     0.123 C 
BRANCH  13  14
HETATM   14  C   UNL     1      44.012 -19.519   3.259  1.00  0.00    -0.027 A 
HETATM   15  C   UNL     1      44.410 -20.382   4.294  1.00  0.00     0.041 A 
HETATM   16 CL   UNL     1      44.721 -19.813   5.896  1.00  0.00    -0.084 Cl
HETATM   17  C   UNL     1      44.574 -21.751   4.055  1.00  0.00     0.024 A 
HETATM   18  C   UNL     1      44.354 -22.276   2.783  1.00  0.00     0.002 A 
HETATM   19  C   UNL     1      43.967 -21.434   1.745  1.00  0.00     0.001 A 
HETATM   20  C   UNL     1      43.798 -20.068   1.980  1.00  0.00     0.009 A 
ENDBRANCH  13  14
ENDBRANCH  12  13
ENDBRANCH   7  12
BRANCH   9  21
HETATM   21  C   UNL     1      40.375 -12.870   1.041  1.00  0.00    -0.028 A 
HETATM   22  C   UNL     1      40.724 -11.720   1.770  1.00  0.00     0.011 A 
HETATM   23  C   UNL     1      39.738 -10.892   2.311  1.00  0.00     0.024 A 
HETATM   24  C   UNL     1      38.393 -11.203   2.125  1.00  0.00     0.034 A 
HETATM   25 CL   UNL     1      37.179 -10.180   2.788  1.00  0.00    -0.084 Cl
HETATM   26  C   UNL     1      38.026 -12.333   1.402  1.00  0.00     0.024 A 
HETATM   27  C   UNL     1      39.010 -13.162   0.858  1.00  0.00     0.011 A 
ENDBRANCH   9  21
BRANCH  10  28
HETATM   28  C   UNL     1      41.609 -12.588  -1.789  1.00  0.00     0.293 C 
HETATM   29  O   UNL     1      40.733 -11.949  -2.353  1.00  0.00    -0.259 OA
BRANCH  28  30
HETATM   30  O   UNL     1      42.929 -12.289  -1.776  1.00  0.00    -0.323 OA
HETATM   31  C   UNL     1      43.221 -10.962  -1.335  1.00  0.00     0.213 C 
ENDBRANCH  28  30
ENDBRANCH  10  28
TORSDOF 6
ENDMDL
MODEL 4
REMARK VINA RESULT:      -7.8      3.640      5.245
REMARK  6 active torsions:
REMARK  status: ('A' for Active; 'I' for Inactive)
REMARK    1  A    between atoms: C_7  and  S_8 
REMARK    2  A    between atoms: S_8  and  C_9 
REMARK    3  A    between atoms: C_9  and  C_10 
REMARK    4  A    between atoms: C_18  and  C_19 
REMARK    5  A    between atoms: C_26  and  C_27 
REMARK    6  A    between atoms: C_27  and  O_28 
ROOT
HETATM    1  C   UNL     1      40.823 -15.064  -3.191  1.00  0.00     0.070 C 
HETATM    2  C   UNL     1      41.092 -14.988  -1.709  1.00  0.00     0.037 C 
HETATM    3  N   UNL     1      40.962 -16.187  -1.012  1.00  0.00    -0.192 N 
HETATM    4  C   UNL     1      41.409 -16.354   0.247  1.00  0.00     0.726 A 
HETATM    5  N   UNL     1      41.832 -15.266   0.959  1.00  0.00    -0.082 N 
HETATM    6  N   UNL     1      42.339 -15.629   2.156  1.00  0.00    -0.128 NA
HETATM    7  C   UNL     1      42.158 -16.956   2.112  1.00  0.00     0.226 A 
HETATM    8  N   UNL     1      41.579 -17.433   0.961  1.00  0.00    -0.035 NA
HETATM    9  C   UNL     1      41.824 -13.895   0.436  1.00  0.00     0.203 C 
HETATM   10  C   UNL     1      41.506 -13.873  -1.055  1.00  0.00     0.070 C 
HETATM   11  H   UNL     1      40.743 -17.021  -1.553  1.00  0.00     0.184 HD
ENDROOT
BRANCH   7  12
HETATM   12  S   UNL     1      42.673 -18.037   3.374  1.00  0.00    -0.083 SA
BRANCH  12  13
HETATM   13  C   UNL     1      43.811 -19.124   2.474  1.00  0.00     0.123 C 
BRANCH  13  14
HETATM   14  C   UNL     1      44.211 -20.309   3.325  1.00  0.00    -0.027 A 
HETATM   15  C   UNL     1      44.337 -21.610   2.813  1.00  0.00     0.041 A 
HETATM   16 CL   UNL     1      44.080 -21.969   1.142  1.00  0.00    -0.084 Cl
HETATM   17  C   UNL     1      44.676 -22.676   3.654  1.00  0.00     0.024 A 
HETATM   18  C   UNL     1      44.884 -22.462   5.015  1.00  0.00     0.002 A 
HETATM   19  C   UNL     1      44.755 -21.179   5.540  1.00  0.00     0.001 A 
HETATM   20  C   UNL     1      44.421 -20.112   4.704  1.00  0.00     0.009 A 
ENDBRANCH  13  14
ENDBRANCH  12  13
ENDBRANCH   7  12
BRANCH   9  21
HETATM   21  C   UNL     1      40.852 -13.029   1.240  1.00  0.00    -0.028 A 
HETATM   22  C   UNL     1      41.339 -11.942   1.985  1.00  0.00     0.011 A 
HETATM   23  C   UNL     1      40.466 -11.122   2.705  1.00  0.00     0.024 A 
HETATM   24  C   UNL     1      39.098 -11.378   2.683  1.00  0.00     0.034 A 
HETATM   25 CL   UNL     1      38.023 -10.366   3.565  1.00  0.00    -0.084 Cl
HETATM   26  C   UNL     1      38.594 -12.446   1.946  1.00  0.00     0.024 A 
HETATM   27  C   UNL     1      39.464 -13.266   1.224  1.00  0.00     0.011 A 
ENDBRANCH   9  21
BRANCH  10  28
HETATM   28  C   UNL     1      41.756 -12.562  -1.689  1.00  0.00     0.293 C 
HETATM   29  O   UNL     1      42.876 -12.084  -1.791  1.00  0.00    -0.259 OA
BRANCH  28  30
HETATM   30  O   UNL     1      40.599 -11.966  -2.060  1.00  0.00    -0.323 OA
HETATM   31  C   UNL     1      40.384 -10.688  -1.458  1.00  0.00     0.213 C 
ENDBRANCH  28  30
ENDBRANCH  10  28
TORSDOF 6
ENDMDL
MODEL 5
REMARK VINA RESULT:      -7.7      3.612      7.090
REMARK  6 active torsions:
REMARK  status: ('A' for Active; 'I' for Inactive)
REMARK    1  A    between atoms: C_7  and  S_8 
REMARK    2  A    between atoms: S_8  and  C_9 
REMARK    3  A    between atoms: C_9  and  C_10 
REMARK    4  A    between atoms: C_18  and  C_19 
REMARK    5  A    between atoms: C_26  and  C_27 
REMARK    6  A    between atoms: C_27  and  O_28 
ROOT
HETATM    1  C   UNL     1      40.363 -16.393   6.572  1.00  0.00     0.070 C 
HETATM    2  C   UNL     1      41.143 -16.462   5.285  1.00  0.00     0.037 C 
HETATM    3  N   UNL     1      40.483 -15.988   4.154  1.00  0.00    -0.192 N 
HETATM    4  C   UNL     1      41.112 -15.739   2.989  1.00  0.00     0.726 A 
HETATM    5  N   UNL     1      42.407 -16.146   2.826  1.00  0.00    -0.082 N 
HETATM    6  N   UNL     1      42.908 -15.725   1.644  1.00  0.00    -0.128 NA
HETATM    7  C   UNL     1      41.842 -15.096   1.131  1.00  0.00     0.226 A 
HETATM    8  N   UNL     1      40.720 -15.096   1.923  1.00  0.00    -0.035 NA
HETATM    9  C   UNL     1      43.175 -16.858   3.852  1.00  0.00     0.203 C 
HETATM   10  C   UNL     1      42.430 -16.882   5.183  1.00  0.00     0.070 C 
HETATM   11  H   UNL     1      39.555 -15.592   4.286  1.00  0.00     0.184 HD
ENDROOT
BRANCH   7  12
HETATM   12  S   UNL     1      41.863 -14.266  -0.398  1.00  0.00    -0.083 SA
BRANCH  12  13
HETATM   13  C   UNL     1      40.127 -13.772  -0.562  1.00  0.00     0.123 C 
BRANCH  13  14
HETATM   14  C   UNL     1      39.519 -14.350  -1.821  1.00  0.00    -0.027 A 
HETATM   15  C   UNL     1      38.273 -13.942  -2.325  1.00  0.00     0.041 A 
HETATM   16 CL   UNL     1      37.332 -12.709  -1.564  1.00  0.00    -0.084 Cl
HETATM   17  C   UNL     1      37.742 -14.537  -3.476  1.00  0.00     0.024 A 
HETATM   18  C   UNL     1      38.440 -15.549  -4.133  1.00  0.00     0.002 A 
HETATM   19  C   UNL     1      39.672 -15.969  -3.642  1.00  0.00     0.001 A 
HETATM   20  C   UNL     1      40.207 -15.376  -2.497  1.00  0.00     0.009 A 
ENDBRANCH  13  14
ENDBRANCH  12  13
ENDBRANCH   7  12
BRANCH   9  21
HETATM   21  C   UNL     1      43.523 -18.267   3.368  1.00  0.00    -0.028 A 
HETATM   22  C   UNL     1      42.811 -18.831   2.295  1.00  0.00     0.011 A 
HETATM   23  C   UNL     1      43.129 -20.105   1.818  1.00  0.00     0.024 A 
HETATM   24  C   UNL     1      44.165 -20.826   2.407  1.00  0.00     0.034 A 
HETATM   25 CL   UNL     1      44.560 -22.393   1.817  1.00  0.00    -0.084 Cl
HETATM   26  C   UNL     1      44.887 -20.284   3.466  1.00  0.00     0.024 A 
HETATM   27  C   UNL     1      44.572 -19.009   3.943  1.00  0.00     0.011 A 
ENDBRANCH   9  21
BRANCH  10  28
HETATM   28  C   UNL     1      43.266 -17.337   6.314  1.00  0.00     0.293 C 
HETATM   29  O   UNL     1      42.951 -18.277   7.027  1.00  0.00    -0.259 OA
BRANCH  28  30
HETATM   30  O   UNL     1      44.351 -16.544   6.475  1.00  0.00    -0.323 OA
HETATM   31  C   UNL     1      44.083 -15.327   7.173  1.00  0.00     0.213 C 
ENDBRANCH  28  30
ENDBRANCH  10  28
TORSDOF 6
ENDMDL
MODEL 6
REMARK VINA RESULT:      -7.5      3.705      7.386
REMARK  6 active torsions:
REMARK  status: ('A' for Active; 'I' for Inactive)
REMARK    1  A    between atoms: C_7  and  S_8 
REMARK    2  A    between atoms: S_8  and  C_9 
REMARK    3  A    between atoms: C_9  and  C_10 
REMARK    4  A    between atoms: C_18  and  C_19 
REMARK    5  A    between atoms: C_26  and  C_27 
REMARK    6  A    between atoms: C_27  and  O_28 
ROOT
HETATM    1  C   UNL     1      40.323 -15.714   6.141  1.00  0.00     0.070 C 
HETATM    2  C   UNL     1      41.007 -16.014   4.831  1.00  0.00     0.037 C 
HETATM    3  N   UNL     1      40.233 -15.824   3.690  1.00  0.00    -0.192 N 
HETATM    4  C   UNL     1      40.753 -15.795   2.448  1.00  0.00     0.726 A 
HETATM    5  N   UNL     1      42.057 -16.160   2.258  1.00  0.00    -0.082 N 
HETATM    6  N   UNL     1      42.437 -15.974   0.976  1.00  0.00    -0.128 NA
HETATM    7  C   UNL     1      41.295 -15.523   0.440  1.00  0.00     0.226 A 
HETATM    8  N   UNL     1      40.238 -15.413   1.311  1.00  0.00    -0.035 NA
HETATM    9  C   UNL     1      42.948 -16.598   3.338  1.00  0.00     0.203 C 
HETATM   10  C   UNL     1      42.309 -16.379   4.705  1.00  0.00     0.070 C 
HETATM   11  H   UNL     1      39.292 -15.458   3.819  1.00  0.00     0.184 HD
ENDROOT
BRANCH   7  12
HETATM   12  S   UNL     1      41.143 -15.035  -1.223  1.00  0.00    -0.083 SA
BRANCH  12  13
HETATM   13  C   UNL     1      40.408 -13.387  -1.048  1.00  0.00     0.123 C 
BRANCH  13  14
HETATM   14  C   UNL     1      41.422 -12.309  -1.358  1.00  0.00    -0.027 A 
HETATM   15  C   UNL     1      42.182 -11.667  -0.367  1.00  0.00     0.041 A 
HETATM   16 CL   UNL     1      42.051 -12.082   1.305  1.00  0.00    -0.084 Cl
HETATM   17  C   UNL     1      43.081 -10.649  -0.707  1.00  0.00     0.024 A 
HETATM   18  C   UNL     1      43.227 -10.253  -2.035  1.00  0.00     0.002 A 
HETATM   19  C   UNL     1      42.476 -10.874  -3.029  1.00  0.00     0.001 A 
HETATM   20  C   UNL     1      41.581 -11.892  -2.694  1.00  0.00     0.009 A 
ENDBRANCH  13  14
ENDBRANCH  12  13
ENDBRANCH   7  12
BRANCH   9  21
HETATM   21  C   UNL     1      43.354 -18.058   3.127  1.00  0.00    -0.028 A 
HETATM   22  C   UNL     1      42.760 -18.804   2.094  1.00  0.00     0.011 A 
HETATM   23  C   UNL     1      43.136 -20.130   1.866  1.00  0.00     0.024 A 
HETATM   24  C   UNL     1      44.112 -20.722   2.664  1.00  0.00     0.034 A 
HETATM   25 CL   UNL     1      44.578 -22.353   2.379  1.00  0.00    -0.084 Cl
HETATM   26  C   UNL     1      44.717 -19.998   3.687  1.00  0.00     0.024 A 
HETATM   27  C   UNL     1      44.345 -18.672   3.916  1.00  0.00     0.011 A 
ENDBRANCH   9  21
BRANCH  10  28
HETATM   28  C   UNL     1      43.257 -16.540   5.828  1.00  0.00     0.293 C 
HETATM   29  O   UNL     1      44.236 -15.822   5.969  1.00  0.00    -0.259 OA
BRANCH  28  30
HETATM   30  O   UNL     1      42.927 -17.599   6.603  1.00  0.00    -0.323 OA
HETATM   31  C   UNL     1      43.258 -17.435   7.983  1.00  0.00     0.213 C 
ENDBRANCH  28  30
ENDBRANCH  10  28
TORSDOF 6
ENDMDL
MODEL 7
REMARK VINA RESULT:      -7.5      3.048      3.904
REMARK  6 active torsions:
REMARK  status: ('A' for Active; 'I' for Inactive)
REMARK    1  A    between atoms: C_7  and  S_8 
REMARK    2  A    between atoms: S_8  and  C_9 
REMARK    3  A    between atoms: C_9  and  C_10 
REMARK    4  A    between atoms: C_18  and  C_19 
REMARK    5  A    between atoms: C_26  and  C_27 
REMARK    6  A    between atoms: C_27  and  O_28 
ROOT
HETATM    1  C   UNL     1      41.014 -11.059   4.079  1.00  0.00     0.070 C 
HETATM    2  C   UNL     1      41.291 -12.062   2.988  1.00  0.00     0.037 C 
HETATM    3  N   UNL     1      42.382 -12.900   3.204  1.00  0.00    -0.192 N 
HETATM    4  C   UNL     1      42.613 -14.005   2.469  1.00  0.00     0.726 A 
HETATM    5  N   UNL     1      41.876 -14.226   1.339  1.00  0.00    -0.082 N 
HETATM    6  N   UNL     1      42.169 -15.423   0.788  1.00  0.00    -0.128 NA
HETATM    7  C   UNL     1      43.120 -15.858   1.626  1.00  0.00     0.226 A 
HETATM    8  N   UNL     1      43.427 -15.008   2.661  1.00  0.00    -0.035 NA
HETATM    9  C   UNL     1      40.832 -13.316   0.854  1.00  0.00     0.203 C 
HETATM   10  C   UNL     1      40.524 -12.232   1.881  1.00  0.00     0.070 C 
HETATM   11  H   UNL     1      42.875 -12.807   4.089  1.00  0.00     0.184 HD
ENDROOT
BRANCH   7  12
HETATM   12  S   UNL     1      43.885 -17.414   1.484  1.00  0.00    -0.083 SA
BRANCH  12  13
HETATM   13  C   UNL     1      43.505 -18.150   3.096  1.00  0.00     0.123 C 
BRANCH  13  14
HETATM   14  C   UNL     1      43.852 -19.622   3.113  1.00  0.00    -0.027 A 
HETATM   15  C   UNL     1      44.477 -20.247   4.204  1.00  0.00     0.041 A 
HETATM   16 CL   UNL     1      44.875 -19.390   5.651  1.00  0.00    -0.084 Cl
HETATM   17  C   UNL     1      44.809 -21.606   4.150  1.00  0.00     0.024 A 
HETATM   18  C   UNL     1      44.530 -22.355   3.009  1.00  0.00     0.002 A 
HETATM   19  C   UNL     1      43.918 -21.749   1.916  1.00  0.00     0.001 A 
HETATM   20  C   UNL     1      43.582 -20.394   1.966  1.00  0.00     0.009 A 
ENDBRANCH  13  14
ENDBRANCH  12  13
ENDBRANCH   7  12
BRANCH   9  21
HETATM   21  C   UNL     1      41.233 -12.725  -0.498  1.00  0.00    -0.028 A 
HETATM   22  C   UNL     1      42.384 -11.923  -0.594  1.00  0.00     0.011 A 
HETATM   23  C   UNL     1      42.784 -11.395  -1.824  1.00  0.00     0.024 A 
HETATM   24  C   UNL     1      42.041 -11.666  -2.970  1.00  0.00     0.034 A 
HETATM   25 CL   UNL     1      42.537 -11.019  -4.484  1.00  0.00    -0.084 Cl
HETATM   26  C   UNL     1      40.902 -12.462  -2.897  1.00  0.00     0.024 A 
HETATM   27  C   UNL     1      40.501 -12.993  -1.670  1.00  0.00     0.011 A 
ENDBRANCH   9  21
BRANCH  10  28
HETATM   28  C   UNL     1      39.300 -11.462   1.572  1.00  0.00     0.293 C 
HETATM   29  O   UNL     1      39.332 -10.298   1.203  1.00  0.00    -0.259 OA
BRANCH  28  30
HETATM   30  O   UNL     1      38.186 -12.191   1.814  1.00  0.00    -0.323 OA
HETATM   31  C   UNL     1      37.100 -11.904   0.931  1.00  0.00     0.213 C 
ENDBRANCH  28  30
ENDBRANCH  10  28
TORSDOF 6
ENDMDL
MODEL 8
REMARK VINA RESULT:      -7.4      4.511      7.761
REMARK  6 active torsions:
REMARK  status: ('A' for Active; 'I' for Inactive)
REMARK    1  A    between atoms: C_7  and  S_8 
REMARK    2  A    between atoms: S_8  and  C_9 
REMARK    3  A    between atoms: C_9  and  C_10 
REMARK    4  A    between atoms: C_18  and  C_19 
REMARK    5  A    between atoms: C_26  and  C_27 
REMARK    6  A    between atoms: C_27  and  O_28 
ROOT
HETATM    1  C   UNL     1      39.788 -13.783   4.905  1.00  0.00     0.070 C 
HETATM    2  C   UNL     1      40.442 -14.200   3.612  1.00  0.00     0.037 C 
HETATM    3  N   UNL     1      39.665 -14.045   2.467  1.00  0.00    -0.192 N 
HETATM    4  C   UNL     1      40.172 -14.122   1.222  1.00  0.00     0.726 A 
HETATM    5  N   UNL     1      41.454 -14.563   1.046  1.00  0.00    -0.082 N 
HETATM    6  N   UNL     1      41.829 -14.479  -0.249  1.00  0.00    -0.128 NA
HETATM    7  C   UNL     1      40.705 -14.006  -0.804  1.00  0.00     0.226 A 
HETATM    8  N   UNL     1      39.664 -13.788   0.067  1.00  0.00    -0.035 NA
HETATM    9  C   UNL     1      42.334 -14.977   2.145  1.00  0.00     0.203 C 
HETATM   10  C   UNL     1      41.722 -14.638   3.500  1.00  0.00     0.070 C 
HETATM   11  H   UNL     1      38.745 -13.624   2.579  1.00  0.00     0.184 HD
ENDROOT
BRANCH   7  12
HETATM   12  S   UNL     1      40.559 -13.619  -2.494  1.00  0.00    -0.083 SA
BRANCH  12  13
HETATM   13  C   UNL     1      42.271 -13.198  -2.915  1.00  0.00     0.123 C 
BRANCH  13  14
HETATM   14  C   UNL     1      42.398 -11.731  -3.256  1.00  0.00    -0.027 A 
HETATM   15  C   UNL     1      42.634 -10.738  -2.291  1.00  0.00     0.041 A 
HETATM   16 CL   UNL     1      42.838 -11.115  -0.617  1.00  0.00    -0.084 Cl
HETATM   17  C   UNL     1      42.706  -9.390  -2.659  1.00  0.00     0.024 A 
HETATM   18  C   UNL     1      42.537  -9.013  -3.990  1.00  0.00     0.002 A 
HETATM   19  C   UNL     1      42.295  -9.983  -4.959  1.00  0.00     0.001 A 
HETATM   20  C   UNL     1      42.225 -11.330  -4.596  1.00  0.00     0.009 A 
ENDBRANCH  13  14
ENDBRANCH  12  13
ENDBRANCH   7  12
BRANCH   9  21
HETATM   21  C   UNL     1      42.664 -16.465   2.024  1.00  0.00    -0.028 A 
HETATM   22  C   UNL     1      43.993 -16.869   1.807  1.00  0.00     0.011 A 
HETATM   23  C   UNL     1      44.323 -18.224   1.720  1.00  0.00     0.024 A 
HETATM   24  C   UNL     1      43.327 -19.189   1.855  1.00  0.00     0.034 A 
HETATM   25 CL   UNL     1      43.734 -20.857   1.753  1.00  0.00    -0.084 Cl
HETATM   26  C   UNL     1      42.006 -18.811   2.077  1.00  0.00     0.024 A 
HETATM   27  C   UNL     1      41.675 -17.457   2.166  1.00  0.00     0.011 A 
ENDBRANCH   9  21
BRANCH  10  28
HETATM   28  C   UNL     1      42.673 -14.775   4.623  1.00  0.00     0.293 C 
HETATM   29  O   UNL     1      43.616 -14.014   4.781  1.00  0.00    -0.259 OA
BRANCH  28  30
HETATM   30  O   UNL     1      42.392 -15.863   5.377  1.00  0.00    -0.323 OA
HETATM   31  C   UNL     1      43.519 -16.704   5.626  1.00  0.00     0.213 C 
ENDBRANCH  28  30
ENDBRANCH  10  28
TORSDOF 6
ENDMDL
MODEL 9
REMARK VINA RESULT:      -7.3      2.523      3.539
REMARK  6 active torsions:
REMARK  status: ('A' for Active; 'I' for Inactive)
REMARK    1  A    between atoms: C_7  and  S_8 
REMARK    2  A    between atoms: S_8  and  C_9 
REMARK    3  A    between atoms: C_9  and  C_10 
REMARK    4  A    between atoms: C_18  and  C_19 
REMARK    5  A    between atoms: C_26  and  C_27 
REMARK    6  A    between atoms: C_27  and  O_28 
ROOT
HETATM    1  C   UNL     1      38.335 -10.605   3.967  1.00  0.00     0.070 C 
HETATM    2  C   UNL     1      38.918 -11.860   3.369  1.00  0.00     0.037 C 
HETATM    3  N   UNL     1      39.793 -12.567   4.190  1.00  0.00    -0.192 N 
HETATM    4  C   UNL     1      40.196 -13.823   3.920  1.00  0.00     0.726 A 
HETATM    5  N   UNL     1      39.909 -14.373   2.701  1.00  0.00    -0.082 N 
HETATM    6  N   UNL     1      40.297 -15.665   2.642  1.00  0.00    -0.128 NA
HETATM    7  C   UNL     1      40.843 -15.818   3.856  1.00  0.00     0.226 A 
HETATM    8  N   UNL     1      40.811 -14.705   4.661  1.00  0.00    -0.035 NA
HETATM    9  C   UNL     1      39.181 -13.670   1.639  1.00  0.00     0.203 C 
HETATM   10  C   UNL     1      38.598 -12.355   2.146  1.00  0.00     0.070 C 
HETATM   11  H   UNL     1      39.934 -12.216   5.135  1.00  0.00     0.184 HD
ENDROOT
BRANCH   7  12
HETATM   12  S   UNL     1      41.494 -17.325   4.431  1.00  0.00    -0.083 SA
BRANCH  12  13
HETATM   13  C   UNL     1      43.124 -17.339   3.637  1.00  0.00     0.123 C 
BRANCH  13  14
HETATM   14  C   UNL     1      43.576 -18.755   3.358  1.00  0.00    -0.027 A 
HETATM   15  C   UNL     1      44.452 -19.458   4.200  1.00  0.00     0.041 A 
HETATM   16 CL   UNL     1      45.069 -18.774   5.662  1.00  0.00    -0.084 Cl
HETATM   17  C   UNL     1      44.866 -20.754   3.874  1.00  0.00     0.024 A 
HETATM   18  C   UNL     1      44.420 -21.363   2.702  1.00  0.00     0.002 A 
HETATM   19  C   UNL     1      43.557 -20.677   1.852  1.00  0.00     0.001 A 
HETATM   20  C   UNL     1      43.139 -19.384   2.176  1.00  0.00     0.009 A 
ENDBRANCH  13  14
ENDBRANCH  12  13
ENDBRANCH   7  12
BRANCH   9  21
HETATM   21  C   UNL     1      40.089 -13.461   0.426  1.00  0.00    -0.028 A 
HETATM   22  C   UNL     1      41.256 -12.688   0.554  1.00  0.00     0.011 A 
HETATM   23  C   UNL     1      42.114 -12.507  -0.534  1.00  0.00     0.024 A 
HETATM   24  C   UNL     1      41.816 -13.099  -1.758  1.00  0.00     0.034 A 
HETATM   25 CL   UNL     1      42.874 -12.879  -3.096  1.00  0.00    -0.084 Cl
HETATM   26  C   UNL     1      40.668 -13.873  -1.904  1.00  0.00     0.024 A 
HETATM   27  C   UNL     1      39.810 -14.058  -0.818  1.00  0.00     0.011 A 
ENDBRANCH   9  21
BRANCH  10  28
HETATM   28  C   UNL     1      37.629 -11.744   1.212  1.00  0.00     0.293 C 
HETATM   29  O   UNL     1      36.665 -12.353   0.774  1.00  0.00    -0.259 OA
BRANCH  28  30
HETATM   30  O   UNL     1      37.996 -10.485   0.876  1.00  0.00    -0.323 OA
HETATM   31  C   UNL     1      38.517 -10.365  -0.449  1.00  0.00     0.213 C 
ENDBRANCH  28  30
ENDBRANCH  10  28
TORSDOF 6
ENDMDL
MODEL 10
REMARK VINA RESULT:      -7.3      2.987      4.579
REMARK  6 active torsions:
REMARK  status: ('A' for Active; 'I' for Inactive)
REMARK    1  A    between atoms: C_7  and  S_8 
REMARK    2  A    between atoms: S_8  and  C_9 
REMARK    3  A    between atoms: C_9  and  C_10 
REMARK    4  A    between atoms: C_18  and  C_19 
REMARK    5  A    between atoms: C_26  and  C_27 
REMARK    6  A    between atoms: C_27  and  O_28 
ROOT
HETATM    1  C   UNL     1      39.147 -13.547   5.316  1.00  0.00     0.070 C 
HETATM    2  C   UNL     1      40.492 -14.133   5.660  1.00  0.00     0.037 C 
HETATM    3  N   UNL     1      40.467 -15.392   6.253  1.00  0.00    -0.192 N 
HETATM    4  C   UNL     1      41.564 -16.161   6.387  1.00  0.00     0.726 A 
HETATM    5  N   UNL     1      42.794 -15.627   6.119  1.00  0.00    -0.082 N 
HETATM    6  N   UNL     1      43.764 -16.562   6.206  1.00  0.00    -0.128 NA
HETATM    7  C   UNL     1      43.046 -17.635   6.564  1.00  0.00     0.226 A 
HETATM    8  N   UNL     1      41.695 -17.422   6.698  1.00  0.00    -0.035 NA
HETATM    9  C   UNL     1      43.007 -14.240   5.693  1.00  0.00     0.203 C 
HETATM   10  C   UNL     1      41.685 -13.551   5.373  1.00  0.00     0.070 C 
HETATM   11  H   UNL     1      39.558 -15.838   6.366  1.00  0.00     0.184 HD
ENDROOT
BRANCH   7  12
HETATM   12  S   UNL     1      43.733 -19.218   6.787  1.00  0.00    -0.083 SA
BRANCH  12  13
HETATM   13  C   UNL     1      45.038 -19.224   5.529  1.00  0.00     0.123 C 
BRANCH  13  14
HETATM   14  C   UNL     1      44.566 -19.907   4.264  1.00  0.00    -0.027 A 
HETATM   15  C   UNL     1      44.669 -21.292   4.059  1.00  0.00     0.041 A 
HETATM   16 CL   UNL     1      45.317 -22.353   5.260  1.00  0.00    -0.084 Cl
HETATM   17  C   UNL     1      44.248 -21.866   2.854  1.00  0.00     0.024 A 
HETATM   18  C   UNL     1      43.729 -21.068   1.836  1.00  0.00     0.002 A 
HETATM   19  C   UNL     1      43.627 -19.692   2.020  1.00  0.00     0.001 A 
HETATM   20  C   UNL     1      44.042 -19.116   3.223  1.00  0.00     0.009 A 
ENDBRANCH  13  14
ENDBRANCH  12  13
ENDBRANCH   7  12
BRANCH   9  21
HETATM   21  C   UNL     1      43.805 -13.479   6.753  1.00  0.00    -0.028 A 
HETATM   22  C   UNL     1      45.200 -13.636   6.822  1.00  0.00     0.011 A 
HETATM   23  C   UNL     1      45.952 -12.930   7.765  1.00  0.00     0.024 A 
HETATM   24  C   UNL     1      45.317 -12.058   8.646  1.00  0.00     0.034 A 
HETATM   25 CL   UNL     1      46.243 -11.186   9.803  1.00  0.00    -0.084 Cl
HETATM   26  C   UNL     1      43.937 -11.883   8.590  1.00  0.00     0.024 A 
HETATM   27  C   UNL     1      43.183 -12.586   7.647  1.00  0.00     0.011 A 
ENDBRANCH   9  21
BRANCH  10  28
HETATM   28  C   UNL     1      41.851 -12.256   4.679  1.00  0.00     0.293 C 
HETATM   29  O   UNL     1      42.296 -12.171   3.544  1.00  0.00    -0.259 OA
BRANCH  28  30
HETATM   30  O   UNL     1      41.516 -11.220   5.483  1.00  0.00    -0.323 OA
HETATM   31  C   UNL     1      41.070 -10.059   4.779  1.00  0.00     0.213 C 
ENDBRANCH  28  30
ENDBRANCH  10  28
TORSDOF 6
ENDMDL
