MODEL 1
REMARK VINA RESULT:      -8.2      0.000      0.000
REMARK  10 active torsions:
REMARK  status: ('A' for Active; 'I' for Inactive)
REMARK    1  A    between atoms: C_1  and  C_17 
REMARK    2  A    between atoms: C_4  and  C_5 
REMARK    3  A    between atoms: C_5  and  O_18 
REMARK    4  A    between atoms: C_6  and  C_11 
REMARK    5  A    between atoms: C_6  and  C_14 
REMARK    6  A    between atoms: C_6  and  N_15 
REMARK    7  A    between atoms: C_8  and  O_20 
REMARK    8  A    between atoms: C_11  and  O_34 
REMARK    9  A    between atoms: C_13  and  C_14 
REMARK       I    between atoms: N_15  and  C_16 
REMARK   10  A    between atoms: C_16  and  C_17 
ROOT
HETATM    1  C           1      41.649 -14.143   3.111  0.00  0.00     0.056 C 
HETATM    2  C           1      40.983 -13.195   2.052  0.00  0.00    -0.030 C 
HETATM    3  C           1      42.020 -12.888   0.948  0.00  0.00     0.016 C 
HETATM    4  C           1      38.610 -13.037   0.774  0.00  0.00     0.008 C 
HETATM    5  C           1      39.702 -13.899   1.496  0.00  0.00     0.012 C 
HETATM    6  C           1      38.365 -11.755   1.596  0.00  0.00     0.128 C 
HETATM    7  C           1      40.580 -11.877   2.758  0.00  0.00     0.013 C 
HETATM    8  C           1      43.182 -18.582   2.621  0.00  0.00     0.017 A 
HETATM    9  C           1      37.277 -13.837   0.759  0.00  0.00     0.020 C 
HETATM   10  C           1      39.643 -10.997   1.929  0.00  0.00     0.033 C 
HETATM   11  C           1      40.059 -15.205   0.750  0.00  0.00     0.054 C 
HETATM   12  C           1      41.069 -16.009   1.515  0.00  0.00     0.010 A 
HETATM   13  C           1      41.768 -15.535   2.549  0.00  0.00     0.054 A 
HETATM   14  N           1      42.564 -16.403   3.001  0.00  0.00    -0.244 NA
HETATM   15  C           1      42.452 -17.478   2.338  0.00  0.00     0.110 A 
HETATM   16  C           1      44.055 -18.595   3.652  0.00  0.00     0.130 A 
HETATM   17  N           1      44.788 -19.567   3.999  0.00  0.00    -0.272 NA
HETATM   18  C           1      44.705 -20.636   3.330  0.00  0.00     0.116 A 
HETATM   19  C           1      43.881 -20.779   2.283  0.00  0.00     0.020 A 
HETATM   20  C           1      43.112 -19.738   1.930  0.00  0.00     0.017 A 
HETATM   21  S           1      41.470 -17.391   1.242  0.00  0.00    -0.072 SA
ENDROOT
BRANCH   1  22
HETATM   22  C           1      42.996 -13.655   3.691  0.00  0.00     0.114 C 
BRANCH  22  23
HETATM   23  C           1      43.153 -13.741   5.203  0.00  0.00     0.218 C 
HETATM   24  N           1      44.328 -14.323   5.595  0.00  0.00    -0.354 N 
HETATM   25  H           1      44.941 -14.687   4.864  0.00  0.00     0.162 HD
HETATM   26  O           1      42.328 -13.324   5.979  0.00  0.00    -0.274 OA
BRANCH  24  27
HETATM   27  C           1      44.705 -14.574   6.993  0.00  0.00     0.108 C 
BRANCH  27  28
HETATM   28  C           1      44.794 -13.297   7.836  0.00  0.00     0.189 C 
BRANCH  28  29
HETATM   29  O           1      44.300 -13.548   9.136  0.00  0.00    -0.399 OA
HETATM   30  H           1      44.882 -14.165   9.585  0.00  0.00     0.209 HD
ENDBRANCH  28  29
ENDBRANCH  27  28
BRANCH  27  31
HETATM   31  C           1      43.813 -15.643   7.650  0.00  0.00     0.031 C 
BRANCH  31  32
HETATM   32  C           1      43.602 -16.959   6.870  0.00  0.00    -0.021 C 
HETATM   33  C           1      42.124 -17.183   6.505  0.00  0.00     0.009 C 
HETATM   34  C           1      44.169 -18.206   7.567  0.00  0.00     0.009 C 
ENDBRANCH  31  32
ENDBRANCH  27  31
ENDBRANCH  24  27
ENDBRANCH  22  23
ENDBRANCH   1  22
BRANCH   4  35
HETATM   35  C           1      38.951 -12.695  -0.691  0.00  0.00     0.176 C 
BRANCH  35  36
HETATM   36  O           1      37.790 -12.615  -1.496  0.00  0.00    -0.400 OA
HETATM   37  H           1      37.558 -11.697  -1.647  0.00  0.00     0.209 HD
ENDBRANCH  35  36
ENDBRANCH   4  35
BRANCH   6  38
HETATM   38  O           1      37.498 -10.875   0.920  0.00  0.00    -0.395 OA
HETATM   39  H           1      37.934 -10.034   0.771  0.00  0.00     0.210 HD
ENDBRANCH   6  38
TORSDOF 10
ENDMDL
MODEL 2
REMARK VINA RESULT:      -7.7      2.560      6.240
REMARK  10 active torsions:
REMARK  status: ('A' for Active; 'I' for Inactive)
REMARK    1  A    between atoms: C_1  and  C_17 
REMARK    2  A    between atoms: C_4  and  C_5 
REMARK    3  A    between atoms: C_5  and  O_18 
REMARK    4  A    between atoms: C_6  and  C_11 
REMARK    5  A    between atoms: C_6  and  C_14 
REMARK    6  A    between atoms: C_6  and  N_15 
REMARK    7  A    between atoms: C_8  and  O_20 
REMARK    8  A    between atoms: C_11  and  O_34 
REMARK    9  A    between atoms: C_13  and  C_14 
REMARK       I    between atoms: N_15  and  C_16 
REMARK   10  A    between atoms: C_16  and  C_17 
ROOT
HETATM    1  C           1      41.904 -15.017   2.395  0.00  0.00     0.056 C 
HETATM    2  C           1      40.803 -14.042   2.943  0.00  0.00    -0.030 C 
HETATM    3  C           1      39.469 -14.815   3.043  0.00  0.00     0.016 C 
HETATM    4  C           1      40.620 -12.179   4.889  0.00  0.00     0.008 C 
HETATM    5  C           1      41.281 -13.484   4.324  0.00  0.00     0.012 C 
HETATM    6  C           1      40.511 -11.144   3.751  0.00  0.00     0.128 C 
HETATM    7  C           1      40.644 -12.871   1.942  0.00  0.00     0.013 C 
HETATM    8  C           1      43.726 -18.899   4.372  0.00  0.00     0.017 A 
HETATM    9  C           1      41.560 -11.577   5.972  0.00  0.00     0.020 C 
HETATM   10  C           1      39.842 -11.692   2.497  0.00  0.00     0.033 C 
HETATM   11  C           1      41.420 -14.615   5.368  0.00  0.00     0.054 C 
HETATM   12  C           1      42.104 -15.815   4.781  0.00  0.00     0.010 A 
HETATM   13  C           1      42.310 -15.988   3.473  0.00  0.00     0.054 A 
HETATM   14  N           1      42.884 -17.086   3.240  0.00  0.00    -0.244 NA
HETATM   15  C           1      43.105 -17.697   4.329  0.00  0.00     0.110 A 
HETATM   16  C           1      44.166 -19.497   3.243  0.00  0.00     0.130 A 
HETATM   17  N           1      44.750 -20.618   3.169  0.00  0.00    -0.272 NA
HETATM   18  C           1      44.954 -21.248   4.246  0.00  0.00     0.116 A 
HETATM   19  C           1      44.581 -20.783   5.446  0.00  0.00     0.020 A 
HETATM   20  C           1      43.962 -19.594   5.504  0.00  0.00     0.017 A 
HETATM   21  S           1      42.613 -16.975   5.516  0.00  0.00    -0.072 SA
ENDROOT
BRANCH   1  22
HETATM   22  C           1      41.552 -15.752   1.082  0.00  0.00     0.114 C 
BRANCH  22  23
HETATM   23  C           1      41.431 -14.887  -0.166  0.00  0.00     0.218 C 
HETATM   24  N           1      40.308 -15.152  -0.904  0.00  0.00    -0.354 N 
HETATM   25  H           1      39.709 -15.917  -0.593  0.00  0.00     0.162 HD
HETATM   26  O           1      42.238 -14.042  -0.466  0.00  0.00    -0.274 OA
BRANCH  24  27
HETATM   27  C           1      39.978 -14.497  -2.176  0.00  0.00     0.108 C 
BRANCH  27  28
HETATM   28  C           1      40.484 -15.263  -3.403  0.00  0.00     0.189 C 
BRANCH  28  29
HETATM   29  O           1      41.884 -15.105  -3.521  0.00  0.00    -0.399 OA
HETATM   30  H           1      42.251 -14.868  -2.666  0.00  0.00     0.209 HD
ENDBRANCH  28  29
ENDBRANCH  27  28
BRANCH  27  31
HETATM   31  C           1      38.480 -14.156  -2.281  0.00  0.00     0.031 C 
BRANCH  31  32
HETATM   32  C           1      37.938 -13.067  -1.329  0.00  0.00    -0.021 C 
HETATM   33  C           1      38.910 -11.881  -1.197  0.00  0.00     0.009 C 
HETATM   34  C           1      37.541 -13.583   0.063  0.00  0.00     0.009 C 
ENDBRANCH  31  32
ENDBRANCH  27  31
ENDBRANCH  24  27
ENDBRANCH  22  23
ENDBRANCH   1  22
BRANCH   4  35
HETATM   35  C           1      39.249 -12.412   5.556  0.00  0.00     0.176 C 
BRANCH  35  36
HETATM   36  O           1      38.964 -11.425   6.530  0.00  0.00    -0.400 OA
HETATM   37  H           1      38.380 -11.784   7.200  0.00  0.00     0.209 HD
ENDBRANCH  35  36
ENDBRANCH   4  35
BRANCH   6  38
HETATM   38  O           1      39.794 -10.005   4.167  0.00  0.00    -0.395 OA
HETATM   39  H           1      40.311  -9.215   4.005  0.00  0.00     0.210 HD
ENDBRANCH   6  38
TORSDOF 10
ENDMDL
MODEL 3
REMARK VINA RESULT:      -7.6      1.629      2.396
REMARK  10 active torsions:
REMARK  status: ('A' for Active; 'I' for Inactive)
REMARK    1  A    between atoms: C_1  and  C_17 
REMARK    2  A    between atoms: C_4  and  C_5 
REMARK    3  A    between atoms: C_5  and  O_18 
REMARK    4  A    between atoms: C_6  and  C_11 
REMARK    5  A    between atoms: C_6  and  C_14 
REMARK    6  A    between atoms: C_6  and  N_15 
REMARK    7  A    between atoms: C_8  and  O_20 
REMARK    8  A    between atoms: C_11  and  O_34 
REMARK    9  A    between atoms: C_13  and  C_14 
REMARK       I    between atoms: N_15  and  C_16 
REMARK   10  A    between atoms: C_16  and  C_17 
ROOT
HETATM    1  C           1      41.378 -13.522   1.885  0.00  0.00     0.056 C 
HETATM    2  C           1      41.033 -12.751   0.563  0.00  0.00    -0.030 C 
HETATM    3  C           1      42.345 -12.487  -0.208  0.00  0.00     0.016 C 
HETATM    4  C           1      39.165 -12.923  -1.380  0.00  0.00     0.008 C 
HETATM    5  C           1      40.016 -13.612  -0.258  0.00  0.00     0.012 C 
HETATM    6  C           1      38.625 -11.582  -0.842  0.00  0.00     0.128 C 
HETATM    7  C           1      40.377 -11.400   0.939  0.00  0.00     0.013 C 
HETATM    8  C           1      43.171 -17.853   2.455  0.00  0.00     0.017 A 
HETATM    9  C           1      37.936 -13.822  -1.693  0.00  0.00     0.020 C 
HETATM   10  C           1      39.705 -10.693  -0.240  0.00  0.00     0.033 C 
HETATM   11  C           1      40.640 -14.959  -0.688  0.00  0.00     0.054 C 
HETATM   12  C           1      41.397 -15.592   0.443  0.00  0.00     0.010 A 
HETATM   13  C           1      41.723 -14.954   1.570  0.00  0.00     0.054 A 
HETATM   14  N           1      42.376 -15.700   2.348  0.00  0.00    -0.244 NA
HETATM   15  C           1      42.519 -16.847   1.826  0.00  0.00     0.110 A 
HETATM   16  C           1      43.683 -17.683   3.694  0.00  0.00     0.130 A 
HETATM   17  N           1      44.313 -18.550   4.368  0.00  0.00    -0.272 NA
HETATM   18  C           1      44.485 -19.690   3.849  0.00  0.00     0.116 A 
HETATM   19  C           1      44.031 -20.012   2.630  0.00  0.00     0.020 A 
HETATM   20  C           1      43.366 -19.080   1.930  0.00  0.00     0.017 A 
HETATM   21  S           1      41.920 -16.960   0.484  0.00  0.00    -0.072 SA
ENDROOT
BRANCH   1  22
HETATM   22  C           1      42.459 -12.868   2.776  0.00  0.00     0.114 C 
BRANCH  22  23
HETATM   23  C           1      42.349 -13.126   4.273  0.00  0.00     0.218 C 
HETATM   24  N           1      43.462 -13.720   4.805  0.00  0.00    -0.354 N 
HETATM   25  H           1      44.211 -13.980   4.162  0.00  0.00     0.162 HD
HETATM   26  O           1      41.382 -12.822   4.928  0.00  0.00    -0.274 OA
BRANCH  24  27
HETATM   27  C           1      43.596 -14.122   6.211  0.00  0.00     0.108 C 
BRANCH  27  28
HETATM   28  C           1      43.035 -15.518   6.501  0.00  0.00     0.189 C 
BRANCH  28  29
HETATM   29  O           1      41.625 -15.458   6.585  0.00  0.00    -0.399 OA
HETATM   30  H           1      41.372 -15.095   7.437  0.00  0.00     0.209 HD
ENDBRANCH  28  29
ENDBRANCH  27  28
BRANCH  27  31
HETATM   31  C           1      45.038 -13.956   6.726  0.00  0.00     0.031 C 
BRANCH  31  32
HETATM   32  C           1      45.234 -13.130   8.015  0.00  0.00    -0.021 C 
HETATM   33  C           1      44.029 -12.218   8.306  0.00  0.00     0.009 C 
HETATM   34  C           1      46.536 -12.312   8.052  0.00  0.00     0.009 C 
ENDBRANCH  31  32
ENDBRANCH  27  31
ENDBRANCH  24  27
ENDBRANCH  22  23
ENDBRANCH   1  22
BRANCH   4  35
HETATM   35  C           1      39.927 -12.718  -2.705  0.00  0.00     0.176 C 
BRANCH  35  36
HETATM   36  O           1      39.053 -12.717  -3.819  0.00  0.00    -0.400 OA
HETATM   37  H           1      39.554 -12.833  -4.628  0.00  0.00     0.209 HD
ENDBRANCH  35  36
ENDBRANCH   4  35
BRANCH   6  38
HETATM   38  O           1      37.973 -10.853  -1.854  0.00  0.00    -0.395 OA
HETATM   39  H           1      37.161 -11.294  -2.107  0.00  0.00     0.210 HD
ENDBRANCH   6  38
TORSDOF 10
ENDMDL
MODEL 4
REMARK VINA RESULT:      -7.6      1.645      2.401
REMARK  10 active torsions:
REMARK  status: ('A' for Active; 'I' for Inactive)
REMARK    1  A    between atoms: C_1  and  C_17 
REMARK    2  A    between atoms: C_4  and  C_5 
REMARK    3  A    between atoms: C_5  and  O_18 
REMARK    4  A    between atoms: C_6  and  C_11 
REMARK    5  A    between atoms: C_6  and  C_14 
REMARK    6  A    between atoms: C_6  and  N_15 
REMARK    7  A    between atoms: C_8  and  O_20 
REMARK    8  A    between atoms: C_11  and  O_34 
REMARK    9  A    between atoms: C_13  and  C_14 
REMARK       I    between atoms: N_15  and  C_16 
REMARK   10  A    between atoms: C_16  and  C_17 
ROOT
HETATM    1  C           1      40.803 -14.185   2.196  0.00  0.00     0.056 C 
HETATM    2  C           1      40.621 -13.203   0.986  0.00  0.00    -0.030 C 
HETATM    3  C           1      42.007 -12.642   0.597  0.00  0.00     0.016 C 
HETATM    4  C           1      39.240 -13.179  -1.335  0.00  0.00     0.008 C 
HETATM    5  C           1      39.939 -13.985  -0.185  0.00  0.00     0.012 C 
HETATM    6  C           1      38.402 -12.046  -0.709  0.00  0.00     0.128 C 
HETATM    7  C           1      39.703 -12.040   1.432  0.00  0.00     0.013 C 
HETATM    8  C           1      43.085 -18.315   2.395  0.00  0.00     0.017 A 
HETATM    9  C           1      38.255 -14.126  -2.075  0.00  0.00     0.020 C 
HETATM   10  C           1      39.186 -11.185   0.273  0.00  0.00     0.033 C 
HETATM   11  C           1      40.837 -15.137  -0.689  0.00  0.00     0.054 C 
HETATM   12  C           1      41.435 -15.901   0.457  0.00  0.00     0.010 A 
HETATM   13  C           1      41.421 -15.475   1.722  0.00  0.00     0.054 A 
HETATM   14  N           1      42.007 -16.288   2.486  0.00  0.00    -0.244 NA
HETATM   15  C           1      42.429 -17.281   1.819  0.00  0.00     0.110 A 
HETATM   16  C           1      43.300 -18.347   3.728  0.00  0.00     0.130 A 
HETATM   17  N           1      43.905 -19.258   4.366  0.00  0.00    -0.272 NA
HETATM   18  C           1      44.352 -20.241   3.709  0.00  0.00     0.116 A 
HETATM   19  C           1      44.212 -20.354   2.381  0.00  0.00     0.020 A 
HETATM   20  C           1      43.570 -19.378   1.722  0.00  0.00     0.017 A 
HETATM   21  S           1      42.142 -17.181   0.376  0.00  0.00    -0.072 SA
ENDROOT
BRANCH   1  22
HETATM   22  C           1      41.565 -13.612   3.413  0.00  0.00     0.114 C 
BRANCH  22  23
HETATM   23  C           1      41.112 -14.096   4.784  0.00  0.00     0.218 C 
HETATM   24  N           1      41.734 -15.248   5.186  0.00  0.00    -0.354 N 
HETATM   25  H           1      42.376 -15.692   4.529  0.00  0.00     0.162 HD
HETATM   26  O           1      40.297 -13.513   5.455  0.00  0.00    -0.274 OA
BRANCH  24  27
HETATM   27  C           1      41.445 -15.951   6.443  0.00  0.00     0.108 C 
BRANCH  27  28
HETATM   28  C           1      40.378 -17.042   6.297  0.00  0.00     0.189 C 
BRANCH  28  29
HETATM   29  O           1      40.387 -17.544   4.975  0.00  0.00    -0.399 OA
HETATM   30  H           1      41.293 -17.614   4.667  0.00  0.00     0.209 HD
ENDBRANCH  28  29
ENDBRANCH  27  28
BRANCH  27  31
HETATM   31  C           1      42.724 -16.475   7.121  0.00  0.00     0.031 C 
BRANCH  31  32
HETATM   32  C           1      44.073 -16.064   6.492  0.00  0.00    -0.021 C 
HETATM   33  C           1      45.145 -17.155   6.662  0.00  0.00     0.009 C 
HETATM   34  C           1      44.613 -14.711   6.980  0.00  0.00     0.009 C 
ENDBRANCH  31  32
ENDBRANCH  27  31
ENDBRANCH  24  27
ENDBRANCH  22  23
ENDBRANCH   1  22
BRANCH   4  35
HETATM   35  C           1      40.217 -12.623  -2.391  0.00  0.00     0.176 C 
BRANCH  35  36
HETATM   36  O           1      39.660 -12.660  -3.692  0.00  0.00    -0.400 OA
HETATM   37  H           1      38.754 -12.969  -3.652  0.00  0.00     0.209 HD
ENDBRANCH  35  36
ENDBRANCH   4  35
BRANCH   6  38
HETATM   38  O           1      37.867 -11.201  -1.700  0.00  0.00    -0.395 OA
HETATM   39  H           1      37.374 -11.717  -2.340  0.00  0.00     0.210 HD
ENDBRANCH   6  38
TORSDOF 10
ENDMDL
MODEL 5
REMARK VINA RESULT:      -7.5      4.044      7.045
REMARK  10 active torsions:
REMARK  status: ('A' for Active; 'I' for Inactive)
REMARK    1  A    between atoms: C_1  and  C_17 
REMARK    2  A    between atoms: C_4  and  C_5 
REMARK    3  A    between atoms: C_5  and  O_18 
REMARK    4  A    between atoms: C_6  and  C_11 
REMARK    5  A    between atoms: C_6  and  C_14 
REMARK    6  A    between atoms: C_6  and  N_15 
REMARK    7  A    between atoms: C_8  and  O_20 
REMARK    8  A    between atoms: C_11  and  O_34 
REMARK    9  A    between atoms: C_13  and  C_14 
REMARK       I    between atoms: N_15  and  C_16 
REMARK   10  A    between atoms: C_16  and  C_17 
ROOT
HETATM    1  C           1      41.151 -13.514   4.700  0.00  0.00     0.056 C 
HETATM    2  C           1      41.428 -14.274   3.355  0.00  0.00    -0.030 C 
HETATM    3  C           1      42.344 -13.395   2.474  0.00  0.00     0.016 C 
HETATM    4  C           1      42.046 -16.797   2.615  0.00  0.00     0.008 C 
HETATM    5  C           1      42.069 -15.660   3.695  0.00  0.00     0.012 C 
HETATM    6  C           1      40.642 -16.848   1.978  0.00  0.00     0.128 C 
HETATM    7  C           1      40.078 -14.497   2.630  0.00  0.00     0.013 C 
HETATM    8  C           1      44.152 -12.317   8.143  0.00  0.00     0.017 A 
HETATM    9  C           1      42.279 -18.160   3.326  0.00  0.00     0.020 C 
HETATM   10  C           1      40.158 -15.495   1.474  0.00  0.00     0.033 C 
HETATM   11  C           1      43.439 -15.489   4.389  0.00  0.00     0.054 C 
HETATM   12  C           1      43.384 -14.423   5.445  0.00  0.00     0.010 A 
HETATM   13  C           1      42.378 -13.555   5.574  0.00  0.00     0.054 A 
HETATM   14  N           1      42.583 -12.751   6.523  0.00  0.00    -0.244 NA
HETATM   15  C           1      43.690 -13.018   7.082  0.00  0.00     0.110 A 
HETATM   16  C           1      43.433 -11.305   8.676  0.00  0.00     0.130 A 
HETATM   17  N           1      43.773 -10.583   9.660  0.00  0.00    -0.272 NA
HETATM   18  C           1      44.885 -10.822  10.210  0.00  0.00     0.116 A 
HETATM   19  C           1      45.708 -11.797   9.799  0.00  0.00     0.020 A 
HETATM   20  C           1      45.332 -12.551   8.754  0.00  0.00     0.017 A 
HETATM   21  S           1      44.407 -14.143   6.456  0.00  0.00    -0.072 SA
ENDROOT
BRANCH   1  22
HETATM   22  C           1      40.615 -12.072   4.553  0.00  0.00     0.114 C 
BRANCH  22  23
HETATM   23  C           1      39.613 -11.612   5.605  0.00  0.00     0.218 C 
HETATM   24  N           1      40.198 -11.001   6.681  0.00  0.00    -0.354 N 
HETATM   25  H           1      41.218 -10.964   6.707  0.00  0.00     0.162 HD
HETATM   26  O           1      38.421 -11.760   5.493  0.00  0.00    -0.274 OA
BRANCH  24  27
HETATM   27  C           1      39.465 -10.510   7.856  0.00  0.00     0.108 C 
BRANCH  27  28
HETATM   28  C           1      39.095 -11.618   8.848  0.00  0.00     0.189 C 
BRANCH  28  29
HETATM   29  O           1      39.887 -11.501  10.012  0.00  0.00    -0.399 OA
HETATM   30  H           1      40.507 -10.776   9.905  0.00  0.00     0.209 HD
ENDBRANCH  28  29
ENDBRANCH  27  28
BRANCH  27  31
HETATM   31  C           1      40.188  -9.335   8.540  0.00  0.00     0.031 C 
BRANCH  31  32
HETATM   32  C           1      39.375  -8.040   8.757  0.00  0.00    -0.021 C 
HETATM   33  C           1      38.583  -8.070  10.077  0.00  0.00     0.009 C 
HETATM   34  C           1      38.444  -7.673   7.590  0.00  0.00     0.009 C 
ENDBRANCH  31  32
ENDBRANCH  27  31
ENDBRANCH  24  27
ENDBRANCH  22  23
ENDBRANCH   1  22
BRANCH   4  35
HETATM   35  C           1      43.137 -16.655   1.535  0.00  0.00     0.176 C 
BRANCH  35  36
HETATM   36  O           1      43.513 -17.911   0.999  0.00  0.00    -0.400 OA
HETATM   37  H           1      42.805 -18.260   0.455  0.00  0.00     0.209 HD
ENDBRANCH  35  36
ENDBRANCH   4  35
BRANCH   6  38
HETATM   38  O           1      40.605 -17.754   0.901  0.00  0.00    -0.395 OA
HETATM   39  H           1      39.789 -17.649   0.410  0.00  0.00     0.210 HD
ENDBRANCH   6  38
TORSDOF 10
ENDMDL
MODEL 6
REMARK VINA RESULT:      -7.5      2.079      3.305
REMARK  10 active torsions:
REMARK  status: ('A' for Active; 'I' for Inactive)
REMARK    1  A    between atoms: C_1  and  C_17 
REMARK    2  A    between atoms: C_4  and  C_5 
REMARK    3  A    between atoms: C_5  and  O_18 
REMARK    4  A    between atoms: C_6  and  C_11 
REMARK    5  A    between atoms: C_6  and  C_14 
REMARK    6  A    between atoms: C_6  and  N_15 
REMARK    7  A    between atoms: C_8  and  O_20 
REMARK    8  A    between atoms: C_11  and  O_34 
REMARK    9  A    between atoms: C_13  and  C_14 
REMARK       I    between atoms: N_15  and  C_16 
REMARK   10  A    between atoms: C_16  and  C_17 
ROOT
HETATM    1  C           1      39.597 -15.200   1.496  0.00  0.00     0.056 C 
HETATM    2  C           1      39.744 -14.292   0.224  0.00  0.00    -0.030 C 
HETATM    3  C           1      40.765 -13.175   0.534  0.00  0.00     0.016 C 
HETATM    4  C           1      39.982 -14.666  -2.440  0.00  0.00     0.008 C 
HETATM    5  C           1      40.183 -15.194  -0.977  0.00  0.00     0.012 C 
HETATM    6  C           1      38.577 -14.038  -2.553  0.00  0.00     0.128 C 
HETATM    7  C           1      38.366 -13.657  -0.087  0.00  0.00     0.013 C 
HETATM    8  C           1      42.784 -18.002   3.567  0.00  0.00     0.017 A 
HETATM    9  C           1      40.025 -15.877  -3.414  0.00  0.00     0.020 C 
HETATM   10  C           1      38.286 -13.008  -1.470  0.00  0.00     0.033 C 
HETATM   11  C           1      41.572 -15.822  -0.727  0.00  0.00     0.054 C 
HETATM   12  C           1      41.685 -16.354   0.672  0.00  0.00     0.010 A 
HETATM   13  C           1      40.816 -16.073   1.646  0.00  0.00     0.054 A 
HETATM   14  N           1      41.147 -16.624   2.730  0.00  0.00    -0.244 NA
HETATM   15  C           1      42.211 -17.295   2.565  0.00  0.00     0.110 A 
HETATM   16  C           1      42.225 -18.046   4.796  0.00  0.00     0.130 A 
HETATM   17  N           1      42.678 -18.669   5.802  0.00  0.00    -0.272 NA
HETATM   18  C           1      43.752 -19.320   5.657  0.00  0.00     0.116 A 
HETATM   19  C           1      44.419 -19.377   4.497  0.00  0.00     0.020 A 
HETATM   20  C           1      43.925 -18.711   3.443  0.00  0.00     0.017 A 
HETATM   21  S           1      42.750 -17.212   1.196  0.00  0.00    -0.072 SA
ENDROOT
BRANCH   1  22
HETATM   22  C           1      39.272 -14.459   2.812  0.00  0.00     0.114 C 
BRANCH  22  23
HETATM   23  C           1      40.326 -13.481   3.317  0.00  0.00     0.218 C 
HETATM   24  N           1      41.279 -14.070   4.104  0.00  0.00    -0.354 N 
HETATM   25  H           1      41.167 -15.060   4.320  0.00  0.00     0.162 HD
HETATM   26  O           1      40.326 -12.308   3.039  0.00  0.00    -0.274 OA
BRANCH  24  27
HETATM   27  C           1      42.377 -13.345   4.758  0.00  0.00     0.108 C 
BRANCH  27  28
HETATM   28  C           1      41.925 -12.525   5.972  0.00  0.00     0.189 C 
BRANCH  28  29
HETATM   29  O           1      41.562 -11.223   5.560  0.00  0.00    -0.399 OA
HETATM   30  H           1      40.609 -11.176   5.455  0.00  0.00     0.209 HD
ENDBRANCH  28  29
ENDBRANCH  27  28
BRANCH  27  31
HETATM   31  C           1      43.564 -14.268   5.088  0.00  0.00     0.031 C 
BRANCH  31  32
HETATM   32  C           1      44.012 -14.337   6.564  0.00  0.00    -0.021 C 
HETATM   33  C           1      45.416 -13.741   6.770  0.00  0.00     0.009 C 
HETATM   34  C           1      43.938 -15.742   7.184  0.00  0.00     0.009 C 
ENDBRANCH  31  32
ENDBRANCH  27  31
ENDBRANCH  24  27
ENDBRANCH  22  23
ENDBRANCH   1  22
BRANCH   4  35
HETATM   35  C           1      41.068 -13.672  -2.900  0.00  0.00     0.176 C 
BRANCH  35  36
HETATM   36  O           1      41.998 -14.280  -3.778  0.00  0.00    -0.400 OA
HETATM   37  H           1      42.708 -14.683  -3.275  0.00  0.00     0.209 HD
ENDBRANCH  35  36
ENDBRANCH   4  35
BRANCH   6  38
HETATM   38  O           1      38.396 -13.419  -3.805  0.00  0.00    -0.395 OA
HETATM   39  H           1      37.871 -13.982  -4.376  0.00  0.00     0.210 HD
ENDBRANCH   6  38
TORSDOF 10
ENDMDL
MODEL 7
REMARK VINA RESULT:      -7.4      2.696      6.328
REMARK  10 active torsions:
REMARK  status: ('A' for Active; 'I' for Inactive)
REMARK    1  A    between atoms: C_1  and  C_17 
REMARK    2  A    between atoms: C_4  and  C_5 
REMARK    3  A    between atoms: C_5  and  O_18 
REMARK    4  A    between atoms: C_6  and  C_11 
REMARK    5  A    between atoms: C_6  and  C_14 
REMARK    6  A    between atoms: C_6  and  N_15 
REMARK    7  A    between atoms: C_8  and  O_20 
REMARK    8  A    between atoms: C_11  and  O_34 
REMARK    9  A    between atoms: C_13  and  C_14 
REMARK       I    between atoms: N_15  and  C_16 
REMARK   10  A    between atoms: C_16  and  C_17 
ROOT
HETATM    1  C           1      41.511 -14.599   1.899  0.00  0.00     0.056 C 
HETATM    2  C           1      40.442 -13.636   2.526  0.00  0.00    -0.030 C 
HETATM    3  C           1      39.152 -14.443   2.792  0.00  0.00     0.016 C 
HETATM    4  C           1      40.403 -11.709   4.417  0.00  0.00     0.008 C 
HETATM    5  C           1      41.044 -13.014   3.829  0.00  0.00     0.012 C 
HETATM    6  C           1      40.142 -10.720   3.263  0.00  0.00     0.128 C 
HETATM    7  C           1      40.142 -12.508   1.509  0.00  0.00     0.013 C 
HETATM    8  C           1      43.656 -18.350   3.802  0.00  0.00     0.017 A 
HETATM    9  C           1      41.430 -11.041   5.374  0.00  0.00     0.020 C 
HETATM   10  C           1      39.364 -11.333   2.106  0.00  0.00     0.033 C 
HETATM   11  C           1      41.327 -14.102   4.890  0.00  0.00     0.054 C 
HETATM   12  C           1      41.986 -15.302   4.275  0.00  0.00     0.010 A 
HETATM   13  C           1      42.059 -15.518   2.960  0.00  0.00     0.054 A 
HETATM   14  N           1      42.641 -16.606   2.705  0.00  0.00    -0.244 NA
HETATM   15  C           1      42.995 -17.170   3.784  0.00  0.00     0.110 A 
HETATM   16  C           1      43.994 -18.977   2.654  0.00  0.00     0.130 A 
HETATM   17  N           1      44.604 -20.082   2.557  0.00  0.00    -0.272 NA
HETATM   18  C           1      44.940 -20.667   3.626  0.00  0.00     0.116 A 
HETATM   19  C           1      44.679 -20.168   4.843  0.00  0.00     0.020 A 
HETATM   20  C           1      44.031 -18.996   4.926  0.00  0.00     0.017 A 
HETATM   21  S           1      42.605 -16.419   4.992  0.00  0.00    -0.072 SA
ENDROOT
BRANCH   1  22
HETATM   22  C           1      41.048 -15.391   0.655  0.00  0.00     0.114 C 
BRANCH  22  23
HETATM   23  C           1      40.964 -14.613  -0.651  0.00  0.00     0.218 C 
HETATM   24  N           1      42.152 -14.043  -1.022  0.00  0.00    -0.354 N 
HETATM   25  H           1      42.941 -14.139  -0.382  0.00  0.00     0.162 HD
HETATM   26  O           1      39.952 -14.520  -1.301  0.00  0.00    -0.274 OA
BRANCH  24  27
HETATM   27  C           1      42.332 -13.199  -2.211  0.00  0.00     0.108 C 
BRANCH  27  28
HETATM   28  C           1      41.620 -13.743  -3.455  0.00  0.00     0.189 C 
BRANCH  28  29
HETATM   29  O           1      42.018 -15.080  -3.686  0.00  0.00    -0.399 OA
HETATM   30  H           1      41.242 -15.616  -3.867  0.00  0.00     0.209 HD
ENDBRANCH  28  29
ENDBRANCH  27  28
BRANCH  27  31
HETATM   31  C           1      41.977 -11.727  -1.935  0.00  0.00     0.031 C 
BRANCH  31  32
HETATM   32  C           1      42.984 -10.659  -2.415  0.00  0.00    -0.021 C 
HETATM   33  C           1      43.470  -9.763  -1.261  0.00  0.00     0.009 C 
HETATM   34  C           1      42.480  -9.792  -3.581  0.00  0.00     0.009 C 
ENDBRANCH  31  32
ENDBRANCH  27  31
ENDBRANCH  24  27
ENDBRANCH  22  23
ENDBRANCH   1  22
BRANCH   4  35
HETATM   35  C           1      39.117 -11.957   5.232  0.00  0.00     0.176 C 
BRANCH  35  36
HETATM   36  O           1      38.967 -11.012   6.276  0.00  0.00    -0.400 OA
HETATM   37  H           1      38.051 -10.977   6.557  0.00  0.00     0.209 HD
ENDBRANCH  35  36
ENDBRANCH   4  35
BRANCH   6  38
HETATM   38  O           1      39.436  -9.588   3.713  0.00  0.00    -0.395 OA
HETATM   39  H           1      38.563  -9.844   4.017  0.00  0.00     0.210 HD
ENDBRANCH   6  38
TORSDOF 10
ENDMDL
MODEL 8
REMARK VINA RESULT:      -7.3      3.244      7.071
REMARK  10 active torsions:
REMARK  status: ('A' for Active; 'I' for Inactive)
REMARK    1  A    between atoms: C_1  and  C_17 
REMARK    2  A    between atoms: C_4  and  C_5 
REMARK    3  A    between atoms: C_5  and  O_18 
REMARK    4  A    between atoms: C_6  and  C_11 
REMARK    5  A    between atoms: C_6  and  C_14 
REMARK    6  A    between atoms: C_6  and  N_15 
REMARK    7  A    between atoms: C_8  and  O_20 
REMARK    8  A    between atoms: C_11  and  O_34 
REMARK    9  A    between atoms: C_13  and  C_14 
REMARK       I    between atoms: N_15  and  C_16 
REMARK   10  A    between atoms: C_16  and  C_17 
ROOT
HETATM    1  C           1      41.928 -15.429   4.447  0.00  0.00     0.056 C 
HETATM    2  C           1      42.118 -16.663   5.397  0.00  0.00    -0.030 C 
HETATM    3  C           1      40.793 -17.456   5.443  0.00  0.00     0.016 C 
HETATM    4  C           1      44.011 -18.542   5.823  0.00  0.00     0.008 C 
HETATM    5  C           1      43.313 -17.519   4.861  0.00  0.00     0.012 C 
HETATM    6  C           1      44.233 -17.866   7.191  0.00  0.00     0.128 C 
HETATM    7  C           1      42.454 -16.143   6.816  0.00  0.00     0.013 C 
HETATM    8  C           1      41.124 -15.318  -0.204  0.00  0.00     0.017 A 
HETATM    9  C           1      45.413 -18.888   5.247  0.00  0.00     0.020 C 
HETATM   10  C           1      42.973 -17.227   7.762  0.00  0.00     0.033 C 
HETATM   11  C           1      43.008 -18.091   3.458  0.00  0.00     0.054 C 
HETATM   12  C           1      42.390 -17.051   2.570  0.00  0.00     0.010 A 
HETATM   13  C           1      41.913 -15.885   3.011  0.00  0.00     0.054 A 
HETATM   14  N           1      41.427 -15.201   2.069  0.00  0.00    -0.244 NA
HETATM   15  C           1      41.549 -15.829   0.974  0.00  0.00     0.110 A 
HETATM   16  C           1      40.566 -14.089  -0.270  0.00  0.00     0.130 A 
HETATM   17  N           1      40.131 -13.519  -1.314  0.00  0.00    -0.272 NA
HETATM   18  C           1      40.223 -14.145  -2.409  0.00  0.00     0.116 A 
HETATM   19  C           1      40.757 -15.370  -2.505  0.00  0.00     0.020 A 
HETATM   20  C           1      41.212 -15.958  -1.389  0.00  0.00     0.017 A 
HETATM   21  S           1      42.180 -17.153   1.124  0.00  0.00    -0.072 SA
ENDROOT
BRANCH   1  22
HETATM   22  C           1      40.716 -14.524   4.762  0.00  0.00     0.114 C 
BRANCH  22  23
HETATM   23  C           1      41.029 -13.108   5.226  0.00  0.00     0.218 C 
HETATM   24  N           1      40.099 -12.602   6.093  0.00  0.00    -0.354 N 
HETATM   25  H           1      39.280 -13.176   6.295  0.00  0.00     0.162 HD
HETATM   26  O           1      42.009 -12.498   4.874  0.00  0.00    -0.274 OA
BRANCH  24  27
HETATM   27  C           1      40.137 -11.243   6.650  0.00  0.00     0.108 C 
BRANCH  27  28
HETATM   28  C           1      39.449 -10.202   5.760  0.00  0.00     0.189 C 
BRANCH  28  29
HETATM   29  O           1      38.362 -10.798   5.081  0.00  0.00    -0.399 OA
HETATM   30  H           1      38.694 -11.432   4.441  0.00  0.00     0.209 HD
ENDBRANCH  28  29
ENDBRANCH  27  28
BRANCH  27  31
HETATM   31  C           1      39.624 -11.198   8.101  0.00  0.00     0.031 C 
BRANCH  31  32
HETATM   32  C           1      40.521 -10.494   9.143  0.00  0.00    -0.021 C 
HETATM   33  C           1      42.005 -10.518   8.737  0.00  0.00     0.009 C 
HETATM   34  C           1      40.357 -11.020  10.578  0.00  0.00     0.009 C 
ENDBRANCH  31  32
ENDBRANCH  27  31
ENDBRANCH  24  27
ENDBRANCH  22  23
ENDBRANCH   1  22
BRANCH   4  35
HETATM   35  C           1      43.244 -19.871   5.984  0.00  0.00     0.176 C 
BRANCH  35  36
HETATM   36  O           1      44.118 -20.952   6.254  0.00  0.00    -0.400 OA
HETATM   37  H           1      45.021 -20.702   6.049  0.00  0.00     0.209 HD
ENDBRANCH  35  36
ENDBRANCH   4  35
BRANCH   6  38
HETATM   38  O           1      44.725 -18.784   8.139  0.00  0.00    -0.395 OA
HETATM   39  H           1      44.532 -19.680   7.860  0.00  0.00     0.210 HD
ENDBRANCH   6  38
TORSDOF 10
ENDMDL
MODEL 9
REMARK VINA RESULT:      -7.3      3.107      4.220
REMARK  10 active torsions:
REMARK  status: ('A' for Active; 'I' for Inactive)
REMARK    1  A    between atoms: C_1  and  C_17 
REMARK    2  A    between atoms: C_4  and  C_5 
REMARK    3  A    between atoms: C_5  and  O_18 
REMARK    4  A    between atoms: C_6  and  C_11 
REMARK    5  A    between atoms: C_6  and  C_14 
REMARK    6  A    between atoms: C_6  and  N_15 
REMARK    7  A    between atoms: C_8  and  O_20 
REMARK    8  A    between atoms: C_11  and  O_34 
REMARK    9  A    between atoms: C_13  and  C_14 
REMARK       I    between atoms: N_15  and  C_16 
REMARK   10  A    between atoms: C_16  and  C_17 
ROOT
HETATM    1  C           1      40.456 -13.300   4.634  0.00  0.00     0.056 C 
HETATM    2  C           1      40.170 -12.755   3.191  0.00  0.00    -0.030 C 
HETATM    3  C           1      41.522 -12.478   2.495  0.00  0.00     0.016 C 
HETATM    4  C           1      38.507 -13.365   1.153  0.00  0.00     0.008 C 
HETATM    5  C           1      39.305 -13.811   2.427  0.00  0.00     0.012 C 
HETATM    6  C           1      37.814 -12.019   1.447  0.00  0.00     0.128 C 
HETATM    7  C           1      39.376 -11.432   3.314  0.00  0.00     0.013 C 
HETATM    8  C           1      42.533 -17.326   5.966  0.00  0.00     0.017 A 
HETATM    9  C           1      37.388 -14.409   0.878  0.00  0.00     0.020 C 
HETATM   10  C           1      38.759 -10.959   1.996  0.00  0.00     0.033 C 
HETATM   11  C           1      40.073 -15.140   2.247  0.00  0.00     0.054 C 
HETATM   12  C           1      40.773 -15.539   3.514  0.00  0.00     0.010 A 
HETATM   13  C           1      40.942 -14.724   4.558  0.00  0.00     0.054 A 
HETATM   14  N           1      41.580 -15.292   5.485  0.00  0.00    -0.244 NA
HETATM   15  C           1      41.862 -16.482   5.148  0.00  0.00     0.110 A 
HETATM   16  C           1      42.915 -16.940   7.203  0.00  0.00     0.130 A 
HETATM   17  N           1      43.550 -17.644   8.043  0.00  0.00    -0.272 NA
HETATM   18  C           1      43.859 -18.823   7.710  0.00  0.00     0.116 A 
HETATM   19  C           1      43.546 -19.351   6.518  0.00  0.00     0.020 A 
HETATM   20  C           1      42.874 -18.590   5.641  0.00  0.00     0.017 A 
HETATM   21  S           1      41.399 -16.833   3.793  0.00  0.00    -0.072 SA
ENDROOT
BRANCH   1  22
HETATM   22  C           1      41.394 -12.432   5.503  0.00  0.00     0.114 C 
BRANCH  22  23
HETATM   23  C           1      40.771 -11.783   6.732  0.00  0.00     0.218 C 
HETATM   24  N           1      41.684 -11.153   7.535  0.00  0.00    -0.354 N 
HETATM   25  H           1      42.669 -11.225   7.276  0.00  0.00     0.162 HD
HETATM   26  O           1      39.589 -11.810   6.967  0.00  0.00    -0.274 OA
BRANCH  24  27
HETATM   27  C           1      41.356 -10.493   8.805  0.00  0.00     0.108 C 
BRANCH  27  28
HETATM   28  C           1      42.438 -10.664   9.877  0.00  0.00     0.189 C 
BRANCH  28  29
HETATM   29  O           1      42.009 -11.604  10.842  0.00  0.00    -0.399 OA
HETATM   30  H           1      41.553 -12.326  10.404  0.00  0.00     0.209 HD
ENDBRANCH  28  29
ENDBRANCH  27  28
BRANCH  27  31
HETATM   31  C           1      40.963  -9.018   8.606  0.00  0.00     0.031 C 
BRANCH  31  32
HETATM   32  C           1      39.474  -8.654   8.798  0.00  0.00    -0.021 C 
HETATM   33  C           1      38.733  -9.692   9.659  0.00  0.00     0.009 C 
HETATM   34  C           1      38.708  -8.409   7.488  0.00  0.00     0.009 C 
ENDBRANCH  31  32
ENDBRANCH  27  31
ENDBRANCH  24  27
ENDBRANCH  22  23
ENDBRANCH   1  22
BRANCH   4  35
HETATM   35  C           1      39.367 -13.274  -0.124  0.00  0.00     0.176 C 
BRANCH  35  36
HETATM   36  O           1      39.067 -14.316  -1.035  0.00  0.00    -0.400 OA
HETATM   37  H           1      39.232 -15.167  -0.626  0.00  0.00     0.209 HD
ENDBRANCH  35  36
ENDBRANCH   4  35
BRANCH   6  38
HETATM   38  O           1      37.199 -11.500   0.291  0.00  0.00    -0.395 OA
HETATM   39  H           1      37.325 -10.551   0.249  0.00  0.00     0.210 HD
ENDBRANCH   6  38
TORSDOF 10
ENDMDL
MODEL 10
REMARK VINA RESULT:      -7.3      3.195      6.540
REMARK  10 active torsions:
REMARK  status: ('A' for Active; 'I' for Inactive)
REMARK    1  A    between atoms: C_1  and  C_17 
REMARK    2  A    between atoms: C_4  and  C_5 
REMARK    3  A    between atoms: C_5  and  O_18 
REMARK    4  A    between atoms: C_6  and  C_11 
REMARK    5  A    between atoms: C_6  and  C_14 
REMARK    6  A    between atoms: C_6  and  N_15 
REMARK    7  A    between atoms: C_8  and  O_20 
REMARK    8  A    between atoms: C_11  and  O_34 
REMARK    9  A    between atoms: C_13  and  C_14 
REMARK       I    between atoms: N_15  and  C_16 
REMARK   10  A    between atoms: C_16  and  C_17 
ROOT
HETATM    1  C           1      40.567 -13.429   1.652  0.00  0.00     0.056 C 
HETATM    2  C           1      40.192 -13.750   0.162  0.00  0.00    -0.030 C 
HETATM    3  C           1      38.684 -14.077   0.095  0.00  0.00     0.016 C 
HETATM    4  C           1      40.736 -12.707  -2.269  0.00  0.00     0.008 C 
HETATM    5  C           1      40.581 -12.518  -0.721  0.00  0.00     0.012 C 
HETATM    6  C           1      41.538 -13.999  -2.534  0.00  0.00     0.128 C 
HETATM    7  C           1      41.007 -14.985  -0.294  0.00  0.00     0.013 C 
HETATM    8  C           1      39.162  -9.854   4.397  0.00  0.00     0.017 A 
HETATM    9  C           1      41.571 -11.523  -2.832  0.00  0.00     0.020 C 
HETATM   10  C           1      40.981 -15.215  -1.806  0.00  0.00     0.033 C 
HETATM   11  C           1      39.765 -11.266  -0.325  0.00  0.00     0.054 C 
HETATM   12  C           1      39.695 -11.111   1.166  0.00  0.00     0.010 A 
HETATM   13  C           1      40.045 -12.067   2.030  0.00  0.00     0.054 A 
HETATM   14  N           1      39.872 -11.695   3.222  0.00  0.00    -0.244 NA
HETATM   15  C           1      39.424 -10.509   3.242  0.00  0.00     0.110 A 
HETATM   16  C           1      39.392 -10.434   5.595  0.00  0.00     0.130 A 
HETATM   17  N           1      39.178  -9.917   6.731  0.00  0.00    -0.272 NA
HETATM   18  C           1      38.707  -8.744   6.765  0.00  0.00     0.116 A 
HETATM   19  C           1      38.431  -8.037   5.660  0.00  0.00     0.020 A 
HETATM   20  C           1      38.664  -8.602   4.466  0.00  0.00     0.017 A 
HETATM   21  S           1      39.214  -9.938   1.899  0.00  0.00    -0.072 SA
ENDROOT
BRANCH   1  22
HETATM   22  C           1      40.153 -14.497   2.689  0.00  0.00     0.114 C 
BRANCH  22  23
HETATM   23  C           1      41.269 -15.070   3.553  0.00  0.00     0.218 C 
HETATM   24  N           1      40.926 -16.238   4.179  0.00  0.00    -0.354 N 
HETATM   25  H           1      39.969 -16.573   4.061  0.00  0.00     0.162 HD
HETATM   26  O           1      42.353 -14.552   3.662  0.00  0.00    -0.274 OA
BRANCH  24  27
HETATM   27  C           1      41.799 -16.969   5.107  0.00  0.00     0.108 C 
BRANCH  27  28
HETATM   28  C           1      41.254 -17.024   6.539  0.00  0.00     0.189 C 
BRANCH  28  29
HETATM   29  O           1      39.892 -16.647   6.546  0.00  0.00    -0.399 OA
HETATM   30  H           1      39.823 -15.697   6.426  0.00  0.00     0.209 HD
ENDBRANCH  28  29
ENDBRANCH  27  28
BRANCH  27  31
HETATM   31  C           1      42.172 -18.364   4.573  0.00  0.00     0.031 C 
BRANCH  31  32
HETATM   32  C           1      43.332 -18.441   3.556  0.00  0.00    -0.021 C 
HETATM   33  C           1      42.824 -18.496   2.105  0.00  0.00     0.009 C 
HETATM   34  C           1      44.324 -19.587   3.813  0.00  0.00     0.009 C 
ENDBRANCH  31  32
ENDBRANCH  27  31
ENDBRANCH  24  27
ENDBRANCH  22  23
ENDBRANCH   1  22
BRANCH   4  35
HETATM   35  C           1      39.397 -12.724  -3.034  0.00  0.00     0.176 C 
BRANCH  35  36
HETATM   36  O           1      39.541 -12.236  -4.356  0.00  0.00    -0.400 OA
HETATM   37  H           1      39.836 -11.324  -4.339  0.00  0.00     0.209 HD
ENDBRANCH  35  36
ENDBRANCH   4  35
BRANCH   6  38
HETATM   38  O           1      41.585 -14.296  -3.909  0.00  0.00    -0.395 OA
HETATM   39  H           1      42.288 -14.922  -4.086  0.00  0.00     0.210 HD
ENDBRANCH   6  38
TORSDOF 10
ENDMDL
