MODEL 1
REMARK VINA RESULT:      -8.7      0.000      0.000
REMARK  5 active torsions:
REMARK  status: ('A' for Active; 'I' for Inactive)
REMARK    1  A    between atoms: C_9  and  C_10 
REMARK       I    between atoms: C_10  and  N_11 
REMARK    2  A    between atoms: N_11  and  C_12 
REMARK    3  A    between atoms: C_12  and  C_13 
REMARK    4  A    between atoms: C_15  and  O_16 
REMARK    5  A    between atoms: O_16  and  C_17 
ROOT
HETATM    1  C   UNL     1      43.876 -19.141   6.859  1.00  0.00     0.273 C 
HETATM    2  N   UNL     1      42.992 -18.192   6.400  1.00  0.00    -0.351 N 
HETATM    3  O   UNL     1      44.389 -19.107   7.973  1.00  0.00    -0.266 OA
HETATM    4  H   UNL     1      42.653 -18.324   5.450  1.00  0.00     0.163 HD
ENDROOT
BRANCH   2   5
HETATM    5  C   UNL     1      42.534 -17.086   7.198  1.00  0.00     0.161 C 
BRANCH   5   6
HETATM    6  C   UNL     1      43.204 -15.794   6.811  1.00  0.00    -0.035 A 
HETATM    7  C   UNL     1      44.046 -15.113   7.697  1.00  0.00     0.066 A 
HETATM    8  C   UNL     1      44.647 -13.938   7.277  1.00  0.00     0.164 A 
HETATM    9  N   UNL     1      44.498 -13.410   6.045  1.00  0.00    -0.237 NA
HETATM   10  C   UNL     1      43.708 -14.097   5.194  1.00  0.00     0.120 A 
HETATM   11  C   UNL     1      43.051 -15.274   5.523  1.00  0.00     0.028 A 
BRANCH   8  12
HETATM   12  O   UNL     1      45.438 -13.284   8.204  1.00  0.00    -0.329 OA
BRANCH  12  13
HETATM   13  C   UNL     1      44.821 -12.178   8.897  1.00  0.00     0.130 C 
HETATM   14  C   UNL     1      44.378 -12.428  10.364  1.00  0.00     0.032 C 
HETATM   15  C   UNL     1      44.893 -11.016  10.696  1.00  0.00     0.005 C 
HETATM   16  C   UNL     1      45.820 -11.141   9.474  1.00  0.00     0.032 C 
ENDBRANCH  12  13
ENDBRANCH   8  12
ENDBRANCH   5   6
ENDBRANCH   2   5
BRANCH   1  17
HETATM   17  C   UNL     1      44.130 -20.213   5.881  1.00  0.00     0.157 A 
HETATM   18  C   UNL     1      44.091 -20.111   4.459  1.00  0.00     0.029 A 
HETATM   19  C   UNL     1      43.824 -19.093   3.521  1.00  0.00     0.023 A 
HETATM   20  C   UNL     1      44.421 -21.378   3.996  1.00  0.00     0.063 A 
HETATM   21  C   UNL     1      43.897 -19.381   2.148  1.00  0.00    -0.061 A 
HETATM   22  C   UNL     1      43.620 -18.310   1.133  1.00  0.00     0.048 C 
HETATM   23  C   UNL     1      44.234 -20.673   1.724  1.00  0.00     0.009 A 
HETATM   24  C   UNL     1      44.503 -21.698   2.639  1.00  0.00     0.032 A 
HETATM   25  N   UNL     1      44.625 -22.130   5.120  1.00  0.00    -0.277 N 
HETATM   26  H   UNL     1      44.885 -23.109   5.163  1.00  0.00     0.189 HD
HETATM   27  N   UNL     1      44.458 -21.463   6.277  1.00  0.00    -0.168 NA
ENDBRANCH   1  17
TORSDOF 5
ENDMDL
MODEL 2
REMARK VINA RESULT:      -8.6      2.221      4.181
REMARK  5 active torsions:
REMARK  status: ('A' for Active; 'I' for Inactive)
REMARK    1  A    between atoms: C_9  and  C_10 
REMARK       I    between atoms: C_10  and  N_11 
REMARK    2  A    between atoms: N_11  and  C_12 
REMARK    3  A    between atoms: C_12  and  C_13 
REMARK    4  A    between atoms: C_15  and  O_16 
REMARK    5  A    between atoms: O_16  and  C_17 
ROOT
HETATM    1  C   UNL     1      44.251 -19.611   6.698  1.00  0.00     0.273 C 
HETATM    2  N   UNL     1      44.822 -18.384   6.453  1.00  0.00    -0.351 N 
HETATM    3  O   UNL     1      43.682 -19.896   7.747  1.00  0.00    -0.266 OA
HETATM    4  H   UNL     1      45.281 -18.281   5.551  1.00  0.00     0.163 HD
ENDROOT
BRANCH   2   5
HETATM    5  C   UNL     1      44.767 -17.286   7.381  1.00  0.00     0.161 C 
BRANCH   5   6
HETATM    6  C   UNL     1      44.077 -16.083   6.793  1.00  0.00    -0.035 A 
HETATM    7  C   UNL     1      42.855 -16.196   6.121  1.00  0.00     0.066 A 
HETATM    8  C   UNL     1      42.262 -15.052   5.615  1.00  0.00     0.164 A 
HETATM    9  N   UNL     1      42.774 -13.811   5.752  1.00  0.00    -0.237 NA
HETATM   10  C   UNL     1      43.937 -13.717   6.429  1.00  0.00     0.120 A 
HETATM   11  C   UNL     1      44.616 -14.804   6.961  1.00  0.00     0.028 A 
BRANCH   8  12
HETATM   12  O   UNL     1      41.076 -15.224   4.927  1.00  0.00    -0.329 OA
BRANCH  12  13
HETATM   13  C   UNL     1      41.196 -15.582   3.534  1.00  0.00     0.130 C 
HETATM   14  C   UNL     1      40.861 -17.050   3.154  1.00  0.00     0.032 C 
HETATM   15  C   UNL     1      40.166 -16.502   1.896  1.00  0.00     0.005 C 
HETATM   16  C   UNL     1      39.983 -15.177   2.657  1.00  0.00     0.032 C 
ENDBRANCH  12  13
ENDBRANCH   8  12
ENDBRANCH   5   6
ENDBRANCH   2   5
BRANCH   1  17
HETATM   17  C   UNL     1      44.378 -20.542   5.565  1.00  0.00     0.157 A 
HETATM   18  C   UNL     1      44.245 -20.237   4.178  1.00  0.00     0.029 A 
HETATM   19  C   UNL     1      43.969 -19.086   3.414  1.00  0.00     0.023 A 
HETATM   20  C   UNL     1      44.474 -21.439   3.520  1.00  0.00     0.063 A 
HETATM   21  C   UNL     1      43.930 -19.178   2.013  1.00  0.00    -0.061 A 
HETATM   22  C   UNL     1      43.642 -17.962   1.180  1.00  0.00     0.048 C 
HETATM   23  C   UNL     1      44.166 -20.410   1.389  1.00  0.00     0.009 A 
HETATM   24  C   UNL     1      44.443 -21.565   2.129  1.00  0.00     0.032 A 
HETATM   25  N   UNL     1      44.714 -22.351   4.509  1.00  0.00    -0.277 N 
HETATM   26  H   UNL     1      44.922 -23.337   4.395  1.00  0.00     0.189 HD
HETATM   27  N   UNL     1      44.664 -21.850   5.757  1.00  0.00    -0.168 NA
ENDBRANCH   1  17
TORSDOF 5
ENDMDL
MODEL 3
REMARK VINA RESULT:      -8.5      2.868      5.804
REMARK  5 active torsions:
REMARK  status: ('A' for Active; 'I' for Inactive)
REMARK    1  A    between atoms: C_9  and  C_10 
REMARK       I    between atoms: C_10  and  N_11 
REMARK    2  A    between atoms: N_11  and  C_12 
REMARK    3  A    between atoms: C_12  and  C_13 
REMARK    4  A    between atoms: C_15  and  O_16 
REMARK    5  A    between atoms: O_16  and  C_17 
ROOT
HETATM    1  C   UNL     1      44.057 -15.255   6.762  1.00  0.00     0.273 C 
HETATM    2  N   UNL     1      42.874 -14.663   6.383  1.00  0.00    -0.351 N 
HETATM    3  O   UNL     1      45.148 -14.700   6.680  1.00  0.00    -0.266 OA
HETATM    4  H   UNL     1      42.040 -15.236   6.483  1.00  0.00     0.163 HD
ENDROOT
BRANCH   2   5
HETATM    5  C   UNL     1      42.785 -13.310   5.900  1.00  0.00     0.161 C 
BRANCH   5   6
HETATM    6  C   UNL     1      42.376 -13.254   4.452  1.00  0.00    -0.035 A 
HETATM    7  C   UNL     1      42.679 -14.292   3.565  1.00  0.00     0.066 A 
HETATM    8  C   UNL     1      42.261 -14.189   2.249  1.00  0.00     0.164 A 
HETATM    9  N   UNL     1      41.546 -13.155   1.760  1.00  0.00    -0.237 NA
HETATM   10  C   UNL     1      41.236 -12.178   2.638  1.00  0.00     0.120 A 
HETATM   11  C   UNL     1      41.620 -12.181   3.970  1.00  0.00     0.028 A 
BRANCH   8  12
HETATM   12  O   UNL     1      42.620 -15.224   1.405  1.00  0.00    -0.329 OA
BRANCH  12  13
HETATM   13  C   UNL     1      42.811 -16.513   2.026  1.00  0.00     0.130 C 
HETATM   14  C   UNL     1      41.585 -17.466   2.059  1.00  0.00     0.032 C 
HETATM   15  C   UNL     1      42.551 -18.620   1.738  1.00  0.00     0.005 C 
HETATM   16  C   UNL     1      43.492 -17.571   1.119  1.00  0.00     0.032 C 
ENDBRANCH  12  13
ENDBRANCH   8  12
ENDBRANCH   5   6
ENDBRANCH   2   5
BRANCH   1  17
HETATM   17  C   UNL     1      43.876 -16.616   7.292  1.00  0.00     0.157 A 
HETATM   18  C   UNL     1      44.051 -17.847   6.592  1.00  0.00     0.029 A 
HETATM   19  C   UNL     1      44.411 -18.227   5.284  1.00  0.00     0.023 A 
HETATM   20  C   UNL     1      43.785 -18.837   7.529  1.00  0.00     0.063 A 
HETATM   21  C   UNL     1      44.491 -19.591   4.958  1.00  0.00    -0.061 A 
HETATM   22  C   UNL     1      44.877 -20.018   3.570  1.00  0.00     0.048 C 
HETATM   23  C   UNL     1      44.215 -20.558   5.933  1.00  0.00     0.009 A 
HETATM   24  C   UNL     1      43.856 -20.202   7.237  1.00  0.00     0.032 A 
HETATM   25  N   UNL     1      43.476 -18.169   8.681  1.00  0.00    -0.277 N 
HETATM   26  H   UNL     1      43.229 -18.576   9.577  1.00  0.00     0.189 HD
HETATM   27  N   UNL     1      43.519 -16.829   8.580  1.00  0.00    -0.168 NA
ENDBRANCH   1  17
TORSDOF 5
ENDMDL
MODEL 4
REMARK VINA RESULT:      -8.5      2.923      4.568
REMARK  5 active torsions:
REMARK  status: ('A' for Active; 'I' for Inactive)
REMARK    1  A    between atoms: C_9  and  C_10 
REMARK       I    between atoms: C_10  and  N_11 
REMARK    2  A    between atoms: N_11  and  C_12 
REMARK    3  A    between atoms: C_12  and  C_13 
REMARK    4  A    between atoms: C_15  and  O_16 
REMARK    5  A    between atoms: O_16  and  C_17 
ROOT
HETATM    1  C   UNL     1      43.490 -18.485   1.662  1.00  0.00     0.273 C 
HETATM    2  N   UNL     1      42.124 -18.327   1.673  1.00  0.00    -0.351 N 
HETATM    3  O   UNL     1      44.265 -17.645   1.215  1.00  0.00    -0.266 OA
HETATM    4  H   UNL     1      41.591 -19.105   2.054  1.00  0.00     0.163 HD
ENDROOT
BRANCH   2   5
HETATM    5  C   UNL     1      41.460 -17.138   1.209  1.00  0.00     0.161 C 
BRANCH   5   6
HETATM    6  C   UNL     1      41.020 -16.256   2.348  1.00  0.00    -0.035 A 
HETATM    7  C   UNL     1      41.629 -16.326   3.605  1.00  0.00     0.066 A 
HETATM    8  C   UNL     1      41.191 -15.478   4.608  1.00  0.00     0.164 A 
HETATM    9  N   UNL     1      40.220 -14.555   4.448  1.00  0.00    -0.237 NA
HETATM   10  C   UNL     1      39.666 -14.480   3.220  1.00  0.00     0.120 A 
HETATM   11  C   UNL     1      40.024 -15.294   2.155  1.00  0.00     0.028 A 
BRANCH   8  12
HETATM   12  O   UNL     1      41.800 -15.614   5.842  1.00  0.00    -0.329 OA
BRANCH  12  13
HETATM   13  C   UNL     1      43.235 -15.456   5.862  1.00  0.00     0.130 C 
HETATM   14  C   UNL     1      43.782 -14.003   5.853  1.00  0.00     0.032 C 
HETATM   15  C   UNL     1      44.845 -14.462   6.867  1.00  0.00     0.005 C 
HETATM   16  C   UNL     1      43.878 -15.590   7.267  1.00  0.00     0.032 C 
ENDBRANCH  12  13
ENDBRANCH   8  12
ENDBRANCH   5   6
ENDBRANCH   2   5
BRANCH   1  17
HETATM   17  C   UNL     1      43.928 -19.757   2.259  1.00  0.00     0.157 A 
HETATM   18  C   UNL     1      44.053 -20.063   3.647  1.00  0.00     0.029 A 
HETATM   19  C   UNL     1      43.848 -19.375   4.860  1.00  0.00     0.023 A 
HETATM   20  C   UNL     1      44.475 -21.386   3.689  1.00  0.00     0.063 A 
HETATM   21  C   UNL     1      44.075 -20.039   6.077  1.00  0.00    -0.061 A 
HETATM   22  C   UNL     1      43.858 -19.325   7.381  1.00  0.00     0.048 C 
HETATM   23  C   UNL     1      44.500 -21.373   6.075  1.00  0.00     0.009 A 
HETATM   24  C   UNL     1      44.709 -22.074   4.882  1.00  0.00     0.032 A 
HETATM   25  N   UNL     1      44.578 -21.773   2.382  1.00  0.00    -0.277 N 
HETATM   26  H   UNL     1      44.859 -22.683   2.033  1.00  0.00     0.189 HD
HETATM   27  N   UNL     1      44.257 -20.820   1.489  1.00  0.00    -0.168 NA
ENDBRANCH   1  17
TORSDOF 5
ENDMDL
MODEL 5
REMARK VINA RESULT:      -8.5      2.559      4.723
REMARK  5 active torsions:
REMARK  status: ('A' for Active; 'I' for Inactive)
REMARK    1  A    between atoms: C_9  and  C_10 
REMARK       I    between atoms: C_10  and  N_11 
REMARK    2  A    between atoms: N_11  and  C_12 
REMARK    3  A    between atoms: C_12  and  C_13 
REMARK    4  A    between atoms: C_15  and  O_16 
REMARK    5  A    between atoms: O_16  and  C_17 
ROOT
HETATM    1  C   UNL     1      43.469 -17.091   6.732  1.00  0.00     0.273 C 
HETATM    2  N   UNL     1      44.365 -16.082   6.466  1.00  0.00    -0.351 N 
HETATM    3  O   UNL     1      42.471 -16.943   7.430  1.00  0.00    -0.266 OA
HETATM    4  H   UNL     1      45.163 -16.338   5.889  1.00  0.00     0.163 HD
ENDROOT
BRANCH   2   5
HETATM    5  C   UNL     1      44.199 -14.732   6.934  1.00  0.00     0.161 C 
BRANCH   5   6
HETATM    6  C   UNL     1      43.415 -13.890   5.963  1.00  0.00    -0.035 A 
HETATM    7  C   UNL     1      43.515 -14.082   4.581  1.00  0.00     0.066 A 
HETATM    8  C   UNL     1      42.756 -13.287   3.739  1.00  0.00     0.164 A 
HETATM    9  N   UNL     1      41.892 -12.343   4.165  1.00  0.00    -0.237 NA
HETATM   10  C   UNL     1      41.784 -12.193   5.501  1.00  0.00     0.120 A 
HETATM   11  C   UNL     1      42.510 -12.929   6.426  1.00  0.00     0.028 A 
BRANCH   8  12
HETATM   12  O   UNL     1      42.922 -13.491   2.381  1.00  0.00    -0.329 OA
BRANCH  12  13
HETATM   13  C   UNL     1      41.735 -13.851   1.644  1.00  0.00     0.130 C 
HETATM   14  C   UNL     1      41.942 -14.469   0.235  1.00  0.00     0.032 C 
HETATM   15  C   UNL     1      40.797 -15.443   0.560  1.00  0.00     0.005 C 
HETATM   16  C   UNL     1      41.115 -15.215   2.048  1.00  0.00     0.032 C 
ENDBRANCH  12  13
ENDBRANCH   8  12
ENDBRANCH   5   6
ENDBRANCH   2   5
BRANCH   1  17
HETATM   17  C   UNL     1      43.822 -18.362   6.078  1.00  0.00     0.157 A 
HETATM   18  C   UNL     1      43.905 -18.620   4.678  1.00  0.00     0.029 A 
HETATM   19  C   UNL     1      43.706 -17.878   3.496  1.00  0.00     0.023 A 
HETATM   20  C   UNL     1      44.293 -19.949   4.577  1.00  0.00     0.063 A 
HETATM   21  C   UNL     1      43.902 -18.496   2.250  1.00  0.00    -0.061 A 
HETATM   22  C   UNL     1      43.700 -17.722   0.979  1.00  0.00     0.048 C 
HETATM   23  C   UNL     1      44.293 -19.840   2.193  1.00  0.00     0.009 A 
HETATM   24  C   UNL     1      44.496 -20.594   3.354  1.00  0.00     0.032 A 
HETATM   25  N   UNL     1      44.408 -20.390   5.866  1.00  0.00    -0.277 N 
HETATM   26  H   UNL     1      44.677 -21.318   6.174  1.00  0.00     0.189 HD
HETATM   27  N   UNL     1      44.132 -19.463   6.801  1.00  0.00    -0.168 NA
ENDBRANCH   1  17
TORSDOF 5
ENDMDL
MODEL 6
REMARK VINA RESULT:      -8.4      2.719      9.285
REMARK  5 active torsions:
REMARK  status: ('A' for Active; 'I' for Inactive)
REMARK    1  A    between atoms: C_9  and  C_10 
REMARK       I    between atoms: C_10  and  N_11 
REMARK    2  A    between atoms: N_11  and  C_12 
REMARK    3  A    between atoms: C_12  and  C_13 
REMARK    4  A    between atoms: C_15  and  O_16 
REMARK    5  A    between atoms: O_16  and  C_17 
ROOT
HETATM    1  C   UNL     1      44.957 -12.519   8.929  1.00  0.00     0.273 C 
HETATM    2  N   UNL     1      44.392 -13.545   8.208  1.00  0.00    -0.351 N 
HETATM    3  O   UNL     1      45.960 -11.910   8.568  1.00  0.00    -0.266 OA
HETATM    4  H   UNL     1      43.573 -13.981   8.625  1.00  0.00     0.163 HD
ENDROOT
BRANCH   2   5
HETATM    5  C   UNL     1      44.885 -13.978   6.927  1.00  0.00     0.161 C 
BRANCH   5   6
HETATM    6  C   UNL     1      43.870 -14.802   6.181  1.00  0.00    -0.035 A 
HETATM    7  C   UNL     1      43.993 -16.192   6.072  1.00  0.00     0.066 A 
HETATM    8  C   UNL     1      43.019 -16.897   5.386  1.00  0.00     0.164 A 
HETATM    9  N   UNL     1      41.926 -16.333   4.831  1.00  0.00    -0.237 NA
HETATM   10  C   UNL     1      41.808 -14.997   4.973  1.00  0.00     0.120 A 
HETATM   11  C   UNL     1      42.735 -14.201   5.628  1.00  0.00     0.028 A 
BRANCH   8  12
HETATM   12  O   UNL     1      43.208 -18.262   5.275  1.00  0.00    -0.329 OA
BRANCH  12  13
HETATM   13  C   UNL     1      44.168 -18.691   4.286  1.00  0.00     0.130 C 
HETATM   14  C   UNL     1      44.563 -20.192   4.294  1.00  0.00     0.032 C 
HETATM   15  C   UNL     1      44.534 -20.146   2.756  1.00  0.00     0.005 C 
HETATM   16  C   UNL     1      43.571 -18.952   2.878  1.00  0.00     0.032 C 
ENDBRANCH  12  13
ENDBRANCH   8  12
ENDBRANCH   5   6
ENDBRANCH   2   5
BRANCH   1  17
HETATM   17  C   UNL     1      44.225 -12.214  10.169  1.00  0.00     0.157 A 
HETATM   18  C   UNL     1      43.216 -11.224  10.356  1.00  0.00     0.029 A 
HETATM   19  C   UNL     1      42.589 -10.250   9.553  1.00  0.00     0.023 A 
HETATM   20  C   UNL     1      42.828 -11.348  11.684  1.00  0.00     0.063 A 
HETATM   21  C   UNL     1      41.592  -9.433  10.110  1.00  0.00    -0.061 A 
HETATM   22  C   UNL     1      40.907  -8.393   9.270  1.00  0.00     0.048 C 
HETATM   23  C   UNL     1      41.230  -9.592  11.454  1.00  0.00     0.009 A 
HETATM   24  C   UNL     1      41.840 -10.552  12.268  1.00  0.00     0.032 A 
HETATM   25  N   UNL     1      43.598 -12.359  12.191  1.00  0.00    -0.277 N 
HETATM   26  H   UNL     1      43.582 -12.725  13.136  1.00  0.00     0.189 HD
HETATM   27  N   UNL     1      44.453 -12.907  11.309  1.00  0.00    -0.168 NA
ENDBRANCH   1  17
TORSDOF 5
ENDMDL
MODEL 7
REMARK VINA RESULT:      -8.2      5.474      8.298
REMARK  5 active torsions:
REMARK  status: ('A' for Active; 'I' for Inactive)
REMARK    1  A    between atoms: C_9  and  C_10 
REMARK       I    between atoms: C_10  and  N_11 
REMARK    2  A    between atoms: N_11  and  C_12 
REMARK    3  A    between atoms: C_12  and  C_13 
REMARK    4  A    between atoms: C_15  and  O_16 
REMARK    5  A    between atoms: O_16  and  C_17 
ROOT
HETATM    1  C   UNL     1      40.990 -17.065   2.338  1.00  0.00     0.273 C 
HETATM    2  N   UNL     1      40.340 -15.927   2.757  1.00  0.00    -0.351 N 
HETATM    3  O   UNL     1      40.721 -17.653   1.296  1.00  0.00    -0.266 OA
HETATM    4  H   UNL     1      40.644 -15.546   3.650  1.00  0.00     0.163 HD
ENDROOT
BRANCH   2   5
HETATM    5  C   UNL     1      39.311 -15.275   1.990  1.00  0.00     0.161 C 
BRANCH   5   6
HETATM    6  C   UNL     1      39.881 -14.454   0.864  1.00  0.00    -0.035 A 
HETATM    7  C   UNL     1      39.149 -14.201  -0.301  1.00  0.00     0.066 A 
HETATM    8  C   UNL     1      39.722 -13.425  -1.295  1.00  0.00     0.164 A 
HETATM    9  N   UNL     1      40.944 -12.863  -1.205  1.00  0.00    -0.237 NA
HETATM   10  C   UNL     1      41.623 -13.090  -0.062  1.00  0.00     0.120 A 
HETATM   11  C   UNL     1      41.144 -13.865   0.984  1.00  0.00     0.028 A 
BRANCH   8  12
HETATM   12  O   UNL     1      38.971 -13.239  -2.441  1.00  0.00    -0.329 OA
BRANCH  12  13
HETATM   13  C   UNL     1      39.224 -14.161  -3.522  1.00  0.00     0.130 C 
HETATM   14  C   UNL     1      40.078 -15.414  -3.191  1.00  0.00     0.032 C 
HETATM   15  C   UNL     1      39.123 -16.226  -4.084  1.00  0.00     0.005 C 
HETATM   16  C   UNL     1      38.061 -15.146  -3.814  1.00  0.00     0.032 C 
ENDBRANCH  12  13
ENDBRANCH   8  12
ENDBRANCH   5   6
ENDBRANCH   2   5
BRANCH   1  17
HETATM   17  C   UNL     1      42.053 -17.493   3.262  1.00  0.00     0.157 A 
HETATM   18  C   UNL     1      42.889 -18.643   3.143  1.00  0.00     0.029 A 
HETATM   19  C   UNL     1      43.026 -19.708   2.229  1.00  0.00     0.023 A 
HETATM   20  C   UNL     1      43.735 -18.591   4.243  1.00  0.00     0.063 A 
HETATM   21  C   UNL     1      44.010 -20.686   2.450  1.00  0.00    -0.061 A 
HETATM   22  C   UNL     1      44.176 -21.825   1.487  1.00  0.00     0.048 C 
HETATM   23  C   UNL     1      44.843 -20.595   3.573  1.00  0.00     0.009 A 
HETATM   24  C   UNL     1      44.724 -19.547   4.492  1.00  0.00     0.032 A 
HETATM   25  N   UNL     1      43.369 -17.465   4.926  1.00  0.00    -0.277 N 
HETATM   26  H   UNL     1      43.776 -17.110   5.784  1.00  0.00     0.189 HD
HETATM   27  N   UNL     1      42.357 -16.776   4.367  1.00  0.00    -0.168 NA
ENDBRANCH   1  17
TORSDOF 5
ENDMDL
MODEL 8
REMARK VINA RESULT:      -8.2      2.811      7.247
REMARK  5 active torsions:
REMARK  status: ('A' for Active; 'I' for Inactive)
REMARK    1  A    between atoms: C_9  and  C_10 
REMARK       I    between atoms: C_10  and  N_11 
REMARK    2  A    between atoms: N_11  and  C_12 
REMARK    3  A    between atoms: C_12  and  C_13 
REMARK    4  A    between atoms: C_15  and  O_16 
REMARK    5  A    between atoms: O_16  and  C_17 
ROOT
HETATM    1  C   UNL     1      43.175 -13.955   5.289  1.00  0.00     0.273 C 
HETATM    2  N   UNL     1      42.911 -14.728   6.396  1.00  0.00    -0.351 N 
HETATM    3  O   UNL     1      44.306 -13.622   4.951  1.00  0.00    -0.266 OA
HETATM    4  H   UNL     1      41.928 -14.919   6.579  1.00  0.00     0.163 HD
ENDROOT
BRANCH   2   5
HETATM    5  C   UNL     1      43.937 -15.272   7.245  1.00  0.00     0.161 C 
BRANCH   5   6
HETATM    6  C   UNL     1      44.024 -16.771   7.136  1.00  0.00    -0.035 A 
HETATM    7  C   UNL     1      44.499 -17.395   5.977  1.00  0.00     0.066 A 
HETATM    8  C   UNL     1      44.570 -18.777   5.943  1.00  0.00     0.164 A 
HETATM    9  N   UNL     1      44.236 -19.577   6.977  1.00  0.00    -0.237 NA
HETATM   10  C   UNL     1      43.811 -18.958   8.097  1.00  0.00     0.120 A 
HETATM   11  C   UNL     1      43.690 -17.582   8.225  1.00  0.00     0.028 A 
BRANCH   8  12
HETATM   12  O   UNL     1      45.009 -19.344   4.761  1.00  0.00    -0.329 OA
BRANCH  12  13
HETATM   13  C   UNL     1      43.983 -19.713   3.815  1.00  0.00     0.130 C 
HETATM   14  C   UNL     1      43.825 -18.810   2.562  1.00  0.00     0.032 C 
HETATM   15  C   UNL     1      43.609 -20.093   1.740  1.00  0.00     0.005 C 
HETATM   16  C   UNL     1      44.388 -20.844   2.834  1.00  0.00     0.032 C 
ENDBRANCH  12  13
ENDBRANCH   8  12
ENDBRANCH   5   6
ENDBRANCH   2   5
BRANCH   1  17
HETATM   17  C   UNL     1      41.961 -13.584   4.542  1.00  0.00     0.157 A 
HETATM   18  C   UNL     1      41.269 -14.370   3.573  1.00  0.00     0.029 A 
HETATM   19  C   UNL     1      41.434 -15.645   2.996  1.00  0.00     0.023 A 
HETATM   20  C   UNL     1      40.187 -13.592   3.183  1.00  0.00     0.063 A 
HETATM   21  C   UNL     1      40.505 -16.098   2.044  1.00  0.00    -0.061 A 
HETATM   22  C   UNL     1      40.660 -17.455   1.420  1.00  0.00     0.048 C 
HETATM   23  C   UNL     1      39.428 -15.281   1.678  1.00  0.00     0.009 A 
HETATM   24  C   UNL     1      39.246 -14.012   2.239  1.00  0.00     0.032 A 
HETATM   25  N   UNL     1      40.294 -12.437   3.907  1.00  0.00    -0.277 N 
HETATM   26  H   UNL     1      39.670 -11.638   3.880  1.00  0.00     0.189 HD
HETATM   27  N   UNL     1      41.351 -12.393   4.738  1.00  0.00    -0.168 NA
ENDBRANCH   1  17
TORSDOF 5
ENDMDL
MODEL 9
REMARK VINA RESULT:      -8.2      2.586      9.933
REMARK  5 active torsions:
REMARK  status: ('A' for Active; 'I' for Inactive)
REMARK    1  A    between atoms: C_9  and  C_10 
REMARK       I    between atoms: C_10  and  N_11 
REMARK    2  A    between atoms: N_11  and  C_12 
REMARK    3  A    between atoms: C_12  and  C_13 
REMARK    4  A    between atoms: C_15  and  O_16 
REMARK    5  A    between atoms: O_16  and  C_17 
ROOT
HETATM    1  C   UNL     1      44.245 -12.105   8.687  1.00  0.00     0.273 C 
HETATM    2  N   UNL     1      43.859 -13.045   7.760  1.00  0.00    -0.351 N 
HETATM    3  O   UNL     1      45.320 -12.138   9.278  1.00  0.00    -0.266 OA
HETATM    4  H   UNL     1      42.935 -12.914   7.355  1.00  0.00     0.163 HD
ENDROOT
BRANCH   2   5
HETATM    5  C   UNL     1      44.697 -14.138   7.345  1.00  0.00     0.161 C 
BRANCH   5   6
HETATM    6  C   UNL     1      43.893 -15.347   6.947  1.00  0.00    -0.035 A 
HETATM    7  C   UNL     1      43.461 -15.538   5.630  1.00  0.00     0.066 A 
HETATM    8  C   UNL     1      42.738 -16.678   5.323  1.00  0.00     0.164 A 
HETATM    9  N   UNL     1      42.440 -17.648   6.212  1.00  0.00    -0.237 NA
HETATM   10  C   UNL     1      42.891 -17.462   7.470  1.00  0.00     0.120 A 
HETATM   11  C   UNL     1      43.609 -16.349   7.881  1.00  0.00     0.028 A 
BRANCH   8  12
HETATM   12  O   UNL     1      42.303 -16.800   4.016  1.00  0.00    -0.329 OA
BRANCH  12  13
HETATM   13  C   UNL     1      42.494 -18.091   3.400  1.00  0.00     0.130 C 
HETATM   14  C   UNL     1      42.322 -18.168   1.859  1.00  0.00     0.032 C 
HETATM   15  C   UNL     1      43.535 -19.115   1.832  1.00  0.00     0.005 C 
HETATM   16  C   UNL     1      43.978 -18.477   3.160  1.00  0.00     0.032 C 
ENDBRANCH  12  13
ENDBRANCH   8  12
ENDBRANCH   5   6
ENDBRANCH   2   5
BRANCH   1  17
HETATM   17  C   UNL     1      43.243 -11.044   8.884  1.00  0.00     0.157 A 
HETATM   18  C   UNL     1      42.975 -10.321  10.084  1.00  0.00     0.029 A 
HETATM   19  C   UNL     1      43.476 -10.320  11.402  1.00  0.00     0.023 A 
HETATM   20  C   UNL     1      41.968  -9.426   9.750  1.00  0.00     0.063 A 
HETATM   21  C   UNL     1      42.948  -9.420  12.342  1.00  0.00    -0.061 A 
HETATM   22  C   UNL     1      43.472  -9.399  13.749  1.00  0.00     0.048 C 
HETATM   23  C   UNL     1      41.932  -8.533  11.963  1.00  0.00     0.009 A 
HETATM   24  C   UNL     1      41.421  -8.518  10.660  1.00  0.00     0.032 A 
HETATM   25  N   UNL     1      41.701  -9.660   8.429  1.00  0.00    -0.277 N 
HETATM   26  H   UNL     1      41.019  -9.185   7.849  1.00  0.00     0.189 HD
HETATM   27  N   UNL     1      42.450 -10.629   7.871  1.00  0.00    -0.168 NA
ENDBRANCH   1  17
TORSDOF 5
ENDMDL
MODEL 10
REMARK VINA RESULT:      -8.1      2.460      9.931
REMARK  5 active torsions:
REMARK  status: ('A' for Active; 'I' for Inactive)
REMARK    1  A    between atoms: C_9  and  C_10 
REMARK       I    between atoms: C_10  and  N_11 
REMARK    2  A    between atoms: N_11  and  C_12 
REMARK    3  A    between atoms: C_12  and  C_13 
REMARK    4  A    between atoms: C_15  and  O_16 
REMARK    5  A    between atoms: O_16  and  C_17 
ROOT
HETATM    1  C   UNL     1      44.239 -12.042   8.908  1.00  0.00     0.273 C 
HETATM    2  N   UNL     1      43.962 -12.854   7.833  1.00  0.00    -0.351 N 
HETATM    3  O   UNL     1      45.222 -12.183   9.628  1.00  0.00    -0.266 OA
HETATM    4  H   UNL     1      43.104 -12.643   7.328  1.00  0.00     0.163 HD
ENDROOT
BRANCH   2   5
HETATM    5  C   UNL     1      44.824 -13.923   7.405  1.00  0.00     0.161 C 
BRANCH   5   6
HETATM    6  C   UNL     1      44.049 -15.077   6.828  1.00  0.00    -0.035 A 
HETATM    7  C   UNL     1      44.321 -16.399   7.195  1.00  0.00     0.066 A 
HETATM    8  C   UNL     1      43.563 -17.417   6.642  1.00  0.00     0.164 A 
HETATM    9  N   UNL     1      42.544 -17.218   5.781  1.00  0.00    -0.237 NA
HETATM   10  C   UNL     1      42.274 -15.935   5.462  1.00  0.00     0.120 A 
HETATM   11  C   UNL     1      42.984 -14.848   5.950  1.00  0.00     0.028 A 
BRANCH   8  12
HETATM   12  O   UNL     1      43.899 -18.707   7.009  1.00  0.00    -0.329 OA
BRANCH  12  13
HETATM   13  C   UNL     1      43.765 -19.714   5.984  1.00  0.00     0.130 C 
HETATM   14  C   UNL     1      44.969 -19.902   5.021  1.00  0.00     0.032 C 
HETATM   15  C   UNL     1      44.722 -21.418   5.107  1.00  0.00     0.005 C 
HETATM   16  C   UNL     1      44.042 -21.163   6.463  1.00  0.00     0.032 C 
ENDBRANCH  12  13
ENDBRANCH   8  12
ENDBRANCH   5   6
ENDBRANCH   2   5
BRANCH   1  17
HETATM   17  C   UNL     1      43.243 -10.974   9.096  1.00  0.00     0.157 A 
HETATM   18  C   UNL     1      42.966 -10.252  10.295  1.00  0.00     0.029 A 
HETATM   19  C   UNL     1      43.450 -10.259  11.618  1.00  0.00     0.023 A 
HETATM   20  C   UNL     1      41.969  -9.348   9.951  1.00  0.00     0.063 A 
HETATM   21  C   UNL     1      42.917  -9.357  12.554  1.00  0.00    -0.061 A 
HETATM   22  C   UNL     1      43.423  -9.344  13.968  1.00  0.00     0.048 C 
HETATM   23  C   UNL     1      41.913  -8.461  12.165  1.00  0.00     0.009 A 
HETATM   24  C   UNL     1      41.418  -8.438  10.857  1.00  0.00     0.032 A 
HETATM   25  N   UNL     1      41.718  -9.576   8.626  1.00  0.00    -0.277 N 
HETATM   26  H   UNL     1      41.046  -9.094   8.039  1.00  0.00     0.189 HD
HETATM   27  N   UNL     1      42.465 -10.549   8.074  1.00  0.00    -0.168 NA
ENDBRANCH   1  17
TORSDOF 5
ENDMDL
