MODEL 1
REMARK VINA RESULT:      -9.1      0.000      0.000
REMARK  8 active torsions:
REMARK  status: ('A' for Active; 'I' for Inactive)
REMARK    1  A    between atoms: O_2  and  C_3 
REMARK    2  A    between atoms: C_3  and  C_4 
REMARK    3  A    between atoms: C_7  and  C_8 
REMARK    4  A    between atoms: C_8  and  O_9 
REMARK    5  A    between atoms: O_9  and  C_10 
REMARK    6  A    between atoms: C_11  and  C_12 
REMARK    7  A    between atoms: C_13  and  C_14 
REMARK    8  A    between atoms: C_13  and  C_22 
REMARK       I    between atoms: C_14  and  N_15 
ROOT
HETATM    1  C   UNL     1      43.231 -15.761   5.176  1.00  0.00     0.035 C 
HETATM    2  C   UNL     1      43.396 -14.424   5.234  1.00  0.00     0.079 C 
ENDROOT
BRANCH   1   3
HETATM    3  C   UNL     1      43.589 -16.783   6.176  1.00  0.00    -0.002 A 
HETATM    4  C   UNL     1      44.167 -17.998   5.784  1.00  0.00     0.079 A 
HETATM    5  C   UNL     1      44.413 -19.007   6.723  1.00  0.00     0.037 A 
HETATM    6  C   UNL     1      44.120 -18.792   8.068  1.00  0.00     0.003 A 
HETATM    7  C   UNL     1      43.560 -17.582   8.473  1.00  0.00     0.001 A 
HETATM    8  C   UNL     1      43.283 -16.589   7.530  1.00  0.00     0.014 A 
BRANCH   4   9
HETATM    9  O   UNL     1      44.395 -18.219   4.450  1.00  0.00    -0.346 OA
BRANCH   9  10
HETATM   10  C   UNL     1      43.300 -18.879   3.801  1.00  0.00     0.214 C 
BRANCH  10  11
HETATM   11  C   UNL     1      42.687 -17.988   2.740  1.00  0.00    -0.034 A 
HETATM   12  C   UNL     1      43.454 -17.617   1.626  1.00  0.00     0.010 A 
HETATM   13  C   UNL     1      42.911 -16.809   0.623  1.00  0.00     0.018 A 
HETATM   14  C   UNL     1      41.588 -16.360   0.715  1.00  0.00     0.039 A 
HETATM   15  C   UNL     1      40.812 -16.738   1.815  1.00  0.00     0.018 A 
HETATM   16  C   UNL     1      41.356 -17.549   2.816  1.00  0.00     0.010 A 
BRANCH  14  17
HETATM   17  C   UNL     1      41.060 -15.491  -0.372  1.00  0.00     0.292 C 
HETATM   18  O   UNL     1      40.565 -14.393  -0.178  1.00  0.00    -0.259 OA
BRANCH  17  19
HETATM   19  O   UNL     1      41.198 -16.097  -1.579  1.00  0.00    -0.323 OA
HETATM   20  C   UNL     1      40.536 -15.421  -2.648  1.00  0.00     0.213 C 
ENDBRANCH  17  19
ENDBRANCH  14  17
ENDBRANCH  10  11
ENDBRANCH   9  10
ENDBRANCH   4   9
ENDBRANCH   1   3
BRANCH   2  21
HETATM   21  C   UNL     1      42.935 -13.608   4.054  1.00  0.00     0.257 C 
HETATM   22  N   UNL     1      41.841 -12.770   4.167  1.00  0.00    -0.344 N 
HETATM   23  C   UNL     1      41.379 -12.035   2.985  1.00  0.00     0.152 C 
HETATM   24  C   UNL     1      40.943 -12.590   5.316  1.00  0.00     0.152 C 
HETATM   25  C   UNL     1      39.947 -12.458   2.644  1.00  0.00     0.187 C 
HETATM   26  O   UNL     1      39.069 -12.272   3.769  1.00  0.00    -0.388 OA
HETATM   27  C   UNL     1      39.524 -13.017   4.914  1.00  0.00     0.187 C 
HETATM   28  O   UNL     1      43.603 -13.660   3.015  1.00  0.00    -0.267 OA
ENDBRANCH   2  21
BRANCH   2  29
HETATM   29  C   UNL     1      44.172 -13.790   6.257  1.00  0.00     0.144 A 
HETATM   30  N   UNL     1      45.470 -13.562   6.371  1.00  0.00    -0.228 NA
HETATM   31  C   UNL     1      45.633 -12.803   7.503  1.00  0.00     0.086 A 
HETATM   32  C   UNL     1      44.417 -12.583   8.130  1.00  0.00     0.062 A 
HETATM   33  C   UNL     1      46.797 -12.248   8.053  1.00  0.00     0.034 A 
HETATM   34  N   UNL     1      43.510 -13.229   7.333  1.00  0.00    -0.338 N 
HETATM   35  C   UNL     1      44.275 -11.834   9.300  1.00  0.00     0.032 A 
HETATM   36  H   UNL     1      42.504 -13.236   7.455  1.00  0.00     0.167 HD
HETATM   37  C   UNL     1      45.447 -11.286   9.835  1.00  0.00     0.002 A 
HETATM   38  C   UNL     1      46.687 -11.485   9.223  1.00  0.00     0.002 A 
ENDBRANCH   2  29
TORSDOF 8
ENDMDL
MODEL 2
REMARK VINA RESULT:      -8.9      2.863      6.306
REMARK  8 active torsions:
REMARK  status: ('A' for Active; 'I' for Inactive)
REMARK    1  A    between atoms: O_2  and  C_3 
REMARK    2  A    between atoms: C_3  and  C_4 
REMARK    3  A    between atoms: C_7  and  C_8 
REMARK    4  A    between atoms: C_8  and  O_9 
REMARK    5  A    between atoms: O_9  and  C_10 
REMARK    6  A    between atoms: C_11  and  C_12 
REMARK    7  A    between atoms: C_13  and  C_14 
REMARK    8  A    between atoms: C_13  and  C_22 
REMARK       I    between atoms: C_14  and  N_15 
ROOT
HETATM    1  C   UNL     1      40.943 -16.005   4.017  1.00  0.00     0.035 C 
HETATM    2  C   UNL     1      41.226 -15.493   5.232  1.00  0.00     0.079 C 
ENDROOT
BRANCH   1   3
HETATM    3  C   UNL     1      40.668 -15.296   2.755  1.00  0.00    -0.002 A 
HETATM    4  C   UNL     1      41.609 -15.288   1.717  1.00  0.00     0.079 A 
HETATM    5  C   UNL     1      41.390 -14.530   0.561  1.00  0.00     0.037 A 
HETATM    6  C   UNL     1      40.206 -13.808   0.416  1.00  0.00     0.003 A 
HETATM    7  C   UNL     1      39.255 -13.822   1.433  1.00  0.00     0.001 A 
HETATM    8  C   UNL     1      39.490 -14.550   2.602  1.00  0.00     0.014 A 
BRANCH   4   9
HETATM    9  O   UNL     1      42.794 -15.953   1.897  1.00  0.00    -0.346 OA
BRANCH   9  10
HETATM   10  C   UNL     1      42.931 -17.089   1.033  1.00  0.00     0.214 C 
BRANCH  10  11
HETATM   11  C   UNL     1      43.392 -18.305   1.810  1.00  0.00    -0.034 A 
HETATM   12  C   UNL     1      43.287 -19.575   1.224  1.00  0.00     0.010 A 
HETATM   13  C   UNL     1      43.718 -20.714   1.910  1.00  0.00     0.018 A 
HETATM   14  C   UNL     1      44.265 -20.604   3.194  1.00  0.00     0.039 A 
HETATM   15  C   UNL     1      44.387 -19.338   3.778  1.00  0.00     0.018 A 
HETATM   16  C   UNL     1      43.958 -18.200   3.089  1.00  0.00     0.010 A 
BRANCH  14  17
HETATM   17  C   UNL     1      44.699 -21.847   3.888  1.00  0.00     0.292 C 
HETATM   18  O   UNL     1      44.646 -22.955   3.382  1.00  0.00    -0.259 OA
BRANCH  17  19
HETATM   19  O   UNL     1      45.139 -21.567   5.141  1.00  0.00    -0.323 OA
HETATM   20  C   UNL     1      44.199 -21.877   6.170  1.00  0.00     0.213 C 
ENDBRANCH  17  19
ENDBRANCH  14  17
ENDBRANCH  10  11
ENDBRANCH   9  10
ENDBRANCH   4   9
ENDBRANCH   1   3
BRANCH   2  21
HETATM   21  C   UNL     1      41.466 -16.460   6.363  1.00  0.00     0.257 C 
HETATM   22  N   UNL     1      42.709 -16.542   6.963  1.00  0.00    -0.344 N 
HETATM   23  C   UNL     1      42.928 -17.534   8.019  1.00  0.00     0.152 C 
HETATM   24  C   UNL     1      43.946 -15.839   6.600  1.00  0.00     0.152 C 
HETATM   25  C   UNL     1      44.018 -18.518   7.584  1.00  0.00     0.187 C 
HETATM   26  O   UNL     1      45.231 -17.826   7.236  1.00  0.00    -0.388 OA
HETATM   27  C   UNL     1      45.005 -16.871   6.183  1.00  0.00     0.187 C 
HETATM   28  O   UNL     1      40.505 -17.119   6.777  1.00  0.00    -0.267 OA
ENDBRANCH   2  21
BRANCH   2  29
HETATM   29  C   UNL     1      41.098 -14.098   5.527  1.00  0.00     0.144 A 
HETATM   30  N   UNL     1      41.664 -13.026   4.998  1.00  0.00    -0.228 NA
HETATM   31  C   UNL     1      41.070 -11.940   5.591  1.00  0.00     0.086 A 
HETATM   32  C   UNL     1      40.140 -12.341   6.538  1.00  0.00     0.062 A 
HETATM   33  C   UNL     1      41.264 -10.571   5.361  1.00  0.00     0.034 A 
HETATM   34  N   UNL     1      40.187 -13.708   6.490  1.00  0.00    -0.338 N 
HETATM   35  C   UNL     1      39.375 -11.451   7.294  1.00  0.00     0.032 A 
HETATM   36  H   UNL     1      39.597 -14.346   7.013  1.00  0.00     0.167 HD
HETATM   37  C   UNL     1      39.580 -10.089   7.049  1.00  0.00     0.002 A 
HETATM   38  C   UNL     1      40.506  -9.652   6.098  1.00  0.00     0.002 A 
ENDBRANCH   2  29
TORSDOF 8
ENDMDL
MODEL 3
REMARK VINA RESULT:      -8.9      2.547      7.825
REMARK  8 active torsions:
REMARK  status: ('A' for Active; 'I' for Inactive)
REMARK    1  A    between atoms: O_2  and  C_3 
REMARK    2  A    between atoms: C_3  and  C_4 
REMARK    3  A    between atoms: C_7  and  C_8 
REMARK    4  A    between atoms: C_8  and  O_9 
REMARK    5  A    between atoms: O_9  and  C_10 
REMARK    6  A    between atoms: C_11  and  C_12 
REMARK    7  A    between atoms: C_13  and  C_14 
REMARK    8  A    between atoms: C_13  and  C_22 
REMARK       I    between atoms: C_14  and  N_15 
ROOT
HETATM    1  C   UNL     1      42.252 -14.388   1.879  1.00  0.00     0.035 C 
HETATM    2  C   UNL     1      41.801 -13.571   0.905  1.00  0.00     0.079 C 
ENDROOT
BRANCH   1   3
HETATM    3  C   UNL     1      42.403 -15.854   1.861  1.00  0.00    -0.002 A 
HETATM    4  C   UNL     1      41.616 -16.666   2.689  1.00  0.00     0.079 A 
HETATM    5  C   UNL     1      41.832 -18.048   2.746  1.00  0.00     0.037 A 
HETATM    6  C   UNL     1      42.810 -18.634   1.944  1.00  0.00     0.003 A 
HETATM    7  C   UNL     1      43.588 -17.839   1.105  1.00  0.00     0.001 A 
HETATM    8  C   UNL     1      43.395 -16.455   1.074  1.00  0.00     0.014 A 
BRANCH   4   9
HETATM    9  O   UNL     1      40.699 -16.071   3.516  1.00  0.00    -0.346 OA
BRANCH   9  10
HETATM   10  C   UNL     1      40.862 -16.448   4.890  1.00  0.00     0.214 C 
BRANCH  10  11
HETATM   11  C   UNL     1      42.041 -15.726   5.510  1.00  0.00    -0.034 A 
HETATM   12  C   UNL     1      42.046 -14.324   5.548  1.00  0.00     0.010 A 
HETATM   13  C   UNL     1      43.112 -13.630   6.127  1.00  0.00     0.018 A 
HETATM   14  C   UNL     1      44.193 -14.326   6.682  1.00  0.00     0.039 A 
HETATM   15  C   UNL     1      44.188 -15.726   6.661  1.00  0.00     0.018 A 
HETATM   16  C   UNL     1      43.119 -16.417   6.084  1.00  0.00     0.010 A 
BRANCH  14  17
HETATM   17  C   UNL     1      45.310 -13.543   7.276  1.00  0.00     0.292 C 
HETATM   18  O   UNL     1      46.270 -13.145   6.637  1.00  0.00    -0.259 OA
BRANCH  17  19
HETATM   19  O   UNL     1      45.107 -13.352   8.604  1.00  0.00    -0.323 OA
HETATM   20  C   UNL     1      44.828 -11.998   8.962  1.00  0.00     0.213 C 
ENDBRANCH  17  19
ENDBRANCH  14  17
ENDBRANCH  10  11
ENDBRANCH   9  10
ENDBRANCH   4   9
ENDBRANCH   1   3
BRANCH   2  21
HETATM   21  C   UNL     1      41.748 -12.093   1.197  1.00  0.00     0.257 C 
HETATM   22  N   UNL     1      40.832 -11.592   2.103  1.00  0.00    -0.344 N 
HETATM   23  C   UNL     1      40.763 -10.143   2.321  1.00  0.00     0.152 C 
HETATM   24  C   UNL     1      39.774 -12.310   2.825  1.00  0.00     0.152 C 
HETATM   25  C   UNL     1      39.374  -9.629   1.929  1.00  0.00     0.187 C 
HETATM   26  O   UNL     1      38.341 -10.331   2.645  1.00  0.00    -0.388 OA
HETATM   27  C   UNL     1      38.409 -11.749   2.403  1.00  0.00     0.187 C 
HETATM   28  O   UNL     1      42.588 -11.364   0.657  1.00  0.00    -0.267 OA
ENDBRANCH   2  21
BRANCH   2  29
HETATM   29  C   UNL     1      41.185 -14.066  -0.289  1.00  0.00     0.144 A 
HETATM   30  N   UNL     1      41.581 -14.951  -1.188  1.00  0.00    -0.228 NA
HETATM   31  C   UNL     1      40.528 -15.125  -2.052  1.00  0.00     0.086 A 
HETATM   32  C   UNL     1      39.466 -14.305  -1.708  1.00  0.00     0.062 A 
HETATM   33  C   UNL     1      40.401 -15.985  -3.152  1.00  0.00     0.034 A 
HETATM   34  N   UNL     1      39.910 -13.633  -0.601  1.00  0.00    -0.338 N 
HETATM   35  C   UNL     1      38.256 -14.275  -2.404  1.00  0.00     0.032 A 
HETATM   36  H   UNL     1      39.373 -12.981  -0.041  1.00  0.00     0.167 HD
HETATM   37  C   UNL     1      38.145 -15.140  -3.498  1.00  0.00     0.002 A 
HETATM   38  C   UNL     1      39.196 -15.984  -3.867  1.00  0.00     0.002 A 
ENDBRANCH   2  29
TORSDOF 8
ENDMDL
MODEL 4
REMARK VINA RESULT:      -8.7      2.758      8.029
REMARK  8 active torsions:
REMARK  status: ('A' for Active; 'I' for Inactive)
REMARK    1  A    between atoms: O_2  and  C_3 
REMARK    2  A    between atoms: C_3  and  C_4 
REMARK    3  A    between atoms: C_7  and  C_8 
REMARK    4  A    between atoms: C_8  and  O_9 
REMARK    5  A    between atoms: O_9  and  C_10 
REMARK    6  A    between atoms: C_11  and  C_12 
REMARK    7  A    between atoms: C_13  and  C_14 
REMARK    8  A    between atoms: C_13  and  C_22 
REMARK       I    between atoms: C_14  and  N_15 
ROOT
HETATM    1  C   UNL     1      40.376 -14.380   3.179  1.00  0.00     0.035 C 
HETATM    2  C   UNL     1      40.614 -15.099   2.062  1.00  0.00     0.079 C 
ENDROOT
BRANCH   1   3
HETATM    3  C   UNL     1      40.177 -12.927   3.320  1.00  0.00    -0.002 A 
HETATM    4  C   UNL     1      41.173 -12.117   3.881  1.00  0.00     0.079 A 
HETATM    5  C   UNL     1      40.942 -10.755   4.108  1.00  0.00     0.037 A 
HETATM    6  C   UNL     1      39.726 -10.184   3.737  1.00  0.00     0.003 A 
HETATM    7  C   UNL     1      38.733 -10.975   3.165  1.00  0.00     0.001 A 
HETATM    8  C   UNL     1      38.952 -12.342   2.970  1.00  0.00     0.014 A 
BRANCH   4   9
HETATM    9  O   UNL     1      42.342 -12.703   4.295  1.00  0.00    -0.346 OA
BRANCH   9  10
HETATM   10  C   UNL     1      42.397 -12.889   5.716  1.00  0.00     0.214 C 
BRANCH  10  11
HETATM   11  C   UNL     1      42.702 -14.333   6.058  1.00  0.00    -0.034 A 
HETATM   12  C   UNL     1      44.002 -14.687   6.450  1.00  0.00     0.010 A 
HETATM   13  C   UNL     1      44.310 -16.008   6.787  1.00  0.00     0.018 A 
HETATM   14  C   UNL     1      43.323 -17.000   6.740  1.00  0.00     0.039 A 
HETATM   15  C   UNL     1      42.021 -16.651   6.365  1.00  0.00     0.018 A 
HETATM   16  C   UNL     1      41.714 -15.329   6.031  1.00  0.00     0.010 A 
BRANCH  14  17
HETATM   17  C   UNL     1      43.703 -18.394   7.096  1.00  0.00     0.292 C 
HETATM   18  O   UNL     1      44.120 -18.720   8.195  1.00  0.00    -0.259 OA
BRANCH  17  19
HETATM   19  O   UNL     1      43.531 -19.223   6.036  1.00  0.00    -0.323 OA
HETATM   20  C   UNL     1      44.715 -19.442   5.269  1.00  0.00     0.213 C 
ENDBRANCH  17  19
ENDBRANCH  14  17
ENDBRANCH  10  11
ENDBRANCH   9  10
ENDBRANCH   4   9
ENDBRANCH   1   3
BRANCH   2  21
HETATM   21  C   UNL     1      40.783 -16.589   2.209  1.00  0.00     0.257 C 
HETATM   22  N   UNL     1      42.004 -17.122   2.578  1.00  0.00    -0.344 N 
HETATM   23  C   UNL     1      42.153 -18.578   2.653  1.00  0.00     0.152 C 
HETATM   24  C   UNL     1      43.277 -16.423   2.795  1.00  0.00     0.152 C 
HETATM   25  C   UNL     1      43.218 -19.039   1.652  1.00  0.00     0.187 C 
HETATM   26  O   UNL     1      44.466 -18.357   1.873  1.00  0.00    -0.388 OA
HETATM   27  C   UNL     1      44.307 -16.930   1.775  1.00  0.00     0.187 C 
HETATM   28  O   UNL     1      39.785 -17.304   2.057  1.00  0.00    -0.267 OA
ENDBRANCH   2  21
BRANCH   2  29
HETATM   29  C   UNL     1      40.918 -14.485   0.805  1.00  0.00     0.144 A 
HETATM   30  N   UNL     1      41.808 -13.571   0.458  1.00  0.00    -0.228 NA
HETATM   31  C   UNL     1      41.736 -13.457  -0.908  1.00  0.00     0.086 A 
HETATM   32  C   UNL     1      40.754 -14.289  -1.422  1.00  0.00     0.062 A 
HETATM   33  C   UNL     1      42.493 -12.668  -1.786  1.00  0.00     0.034 A 
HETATM   34  N   UNL     1      40.240 -14.916  -0.320  1.00  0.00    -0.338 N 
HETATM   35  C   UNL     1      40.462 -14.388  -2.784  1.00  0.00     0.032 A 
HETATM   36  H   UNL     1      39.532 -15.642  -0.320  1.00  0.00     0.167 HD
HETATM   37  C   UNL     1      41.228 -13.596  -3.646  1.00  0.00     0.002 A 
HETATM   38  C   UNL     1      42.229 -12.752  -3.159  1.00  0.00     0.002 A 
ENDBRANCH   2  29
TORSDOF 8
ENDMDL
MODEL 5
REMARK VINA RESULT:      -8.6      2.261      5.794
REMARK  8 active torsions:
REMARK  status: ('A' for Active; 'I' for Inactive)
REMARK    1  A    between atoms: O_2  and  C_3 
REMARK    2  A    between atoms: C_3  and  C_4 
REMARK    3  A    between atoms: C_7  and  C_8 
REMARK    4  A    between atoms: C_8  and  O_9 
REMARK    5  A    between atoms: O_9  and  C_10 
REMARK    6  A    between atoms: C_11  and  C_12 
REMARK    7  A    between atoms: C_13  and  C_14 
REMARK    8  A    between atoms: C_13  and  C_22 
REMARK       I    between atoms: C_14  and  N_15 
ROOT
HETATM    1  C   UNL     1      43.089 -13.231   5.838  1.00  0.00     0.035 C 
HETATM    2  C   UNL     1      43.962 -14.059   6.448  1.00  0.00     0.079 C 
ENDROOT
BRANCH   1   3
HETATM    3  C   UNL     1      41.777 -13.544   5.243  1.00  0.00    -0.002 A 
HETATM    4  C   UNL     1      41.680 -14.007   3.924  1.00  0.00     0.079 A 
HETATM    5  C   UNL     1      40.429 -14.206   3.328  1.00  0.00     0.037 A 
HETATM    6  C   UNL     1      39.265 -13.983   4.062  1.00  0.00     0.003 A 
HETATM    7  C   UNL     1      39.349 -13.539   5.379  1.00  0.00     0.001 A 
HETATM    8  C   UNL     1      40.597 -13.307   5.962  1.00  0.00     0.014 A 
BRANCH   4   9
HETATM    9  O   UNL     1      42.830 -14.165   3.195  1.00  0.00    -0.346 OA
BRANCH   9  10
HETATM   10  C   UNL     1      42.591 -14.717   1.893  1.00  0.00     0.214 C 
BRANCH  10  11
HETATM   11  C   UNL     1      42.780 -16.220   1.902  1.00  0.00    -0.034 A 
HETATM   12  C   UNL     1      44.077 -16.749   1.966  1.00  0.00     0.010 A 
HETATM   13  C   UNL     1      44.283 -18.132   1.992  1.00  0.00     0.018 A 
HETATM   14  C   UNL     1      43.193 -19.011   1.957  1.00  0.00     0.039 A 
HETATM   15  C   UNL     1      41.895 -18.489   1.908  1.00  0.00     0.018 A 
HETATM   16  C   UNL     1      41.693 -17.106   1.886  1.00  0.00     0.010 A 
BRANCH  14  17
HETATM   17  C   UNL     1      43.464 -20.474   1.973  1.00  0.00     0.292 C 
HETATM   18  O   UNL     1      42.673 -21.311   1.571  1.00  0.00    -0.259 OA
BRANCH  17  19
HETATM   19  O   UNL     1      44.688 -20.729   2.501  1.00  0.00    -0.323 OA
HETATM   20  C   UNL     1      44.789 -21.997   3.150  1.00  0.00     0.213 C 
ENDBRANCH  17  19
ENDBRANCH  14  17
ENDBRANCH  10  11
ENDBRANCH   9  10
ENDBRANCH   4   9
ENDBRANCH   1   3
BRANCH   2  21
HETATM   21  C   UNL     1      45.246 -13.465   6.968  1.00  0.00     0.257 C 
HETATM   22  N   UNL     1      45.310 -12.948   8.249  1.00  0.00    -0.344 N 
HETATM   23  C   UNL     1      46.555 -12.322   8.704  1.00  0.00     0.152 C 
HETATM   24  C   UNL     1      44.228 -12.806   9.232  1.00  0.00     0.152 C 
HETATM   25  C   UNL     1      46.299 -10.850   9.040  1.00  0.00     0.187 C 
HETATM   26  O   UNL     1      45.243 -10.716  10.010  1.00  0.00    -0.388 OA
HETATM   27  C   UNL     1      44.022 -11.316   9.539  1.00  0.00     0.187 C 
HETATM   28  O   UNL     1      46.246 -13.519   6.242  1.00  0.00    -0.267 OA
ENDBRANCH   2  21
BRANCH   2  29
HETATM   29  C   UNL     1      43.813 -15.483   6.429  1.00  0.00     0.144 A 
HETATM   30  N   UNL     1      43.766 -16.354   5.435  1.00  0.00    -0.228 NA
HETATM   31  C   UNL     1      43.740 -17.600   6.012  1.00  0.00     0.086 A 
HETATM   32  C   UNL     1      43.732 -17.504   7.394  1.00  0.00     0.062 A 
HETATM   33  C   UNL     1      43.737 -18.867   5.414  1.00  0.00     0.034 A 
HETATM   34  N   UNL     1      43.762 -16.157   7.634  1.00  0.00    -0.338 N 
HETATM   35  C   UNL     1      43.715 -18.611   8.245  1.00  0.00     0.032 A 
HETATM   36  H   UNL     1      43.821 -15.712   8.543  1.00  0.00     0.167 HD
HETATM   37  C   UNL     1      43.715 -19.869   7.631  1.00  0.00     0.002 A 
HETATM   38  C   UNL     1      43.728 -19.999   6.240  1.00  0.00     0.002 A 
ENDBRANCH   2  29
TORSDOF 8
ENDMDL
MODEL 6
REMARK VINA RESULT:      -8.6      2.626      7.256
REMARK  8 active torsions:
REMARK  status: ('A' for Active; 'I' for Inactive)
REMARK    1  A    between atoms: O_2  and  C_3 
REMARK    2  A    between atoms: C_3  and  C_4 
REMARK    3  A    between atoms: C_7  and  C_8 
REMARK    4  A    between atoms: C_8  and  O_9 
REMARK    5  A    between atoms: O_9  and  C_10 
REMARK    6  A    between atoms: C_11  and  C_12 
REMARK    7  A    between atoms: C_13  and  C_14 
REMARK    8  A    between atoms: C_13  and  C_22 
REMARK       I    between atoms: C_14  and  N_15 
ROOT
HETATM    1  C   UNL     1      40.129 -13.424   1.531  1.00  0.00     0.035 C 
HETATM    2  C   UNL     1      41.024 -12.548   2.031  1.00  0.00     0.079 C 
ENDROOT
BRANCH   1   3
HETATM    3  C   UNL     1      39.812 -13.723   0.123  1.00  0.00    -0.002 A 
HETATM    4  C   UNL     1      40.593 -14.624  -0.612  1.00  0.00     0.079 A 
HETATM    5  C   UNL     1      40.354 -14.829  -1.976  1.00  0.00     0.037 A 
HETATM    6  C   UNL     1      39.303 -14.163  -2.606  1.00  0.00     0.003 A 
HETATM    7  C   UNL     1      38.510 -13.276  -1.882  1.00  0.00     0.001 A 
HETATM    8  C   UNL     1      38.771 -13.047  -0.529  1.00  0.00     0.014 A 
BRANCH   4   9
HETATM    9  O   UNL     1      41.660 -15.227   0.004  1.00  0.00    -0.346 OA
BRANCH   9  10
HETATM   10  C   UNL     1      41.667 -16.651  -0.165  1.00  0.00     0.214 C 
BRANCH  10  11
HETATM   11  C   UNL     1      42.267 -17.334   1.048  1.00  0.00    -0.034 A 
HETATM   12  C   UNL     1      43.596 -17.777   0.999  1.00  0.00     0.010 A 
HETATM   13  C   UNL     1      44.182 -18.397   2.107  1.00  0.00     0.018 A 
HETATM   14  C   UNL     1      43.448 -18.582   3.285  1.00  0.00     0.039 A 
HETATM   15  C   UNL     1      42.126 -18.128   3.346  1.00  0.00     0.018 A 
HETATM   16  C   UNL     1      41.544 -17.506   2.237  1.00  0.00     0.010 A 
BRANCH  14  17
HETATM   17  C   UNL     1      44.112 -19.258   4.433  1.00  0.00     0.292 C 
HETATM   18  O   UNL     1      44.746 -20.295   4.331  1.00  0.00    -0.259 OA
BRANCH  17  19
HETATM   19  O   UNL     1      43.899 -18.569   5.583  1.00  0.00    -0.323 OA
HETATM   20  C   UNL     1      45.096 -18.151   6.241  1.00  0.00     0.213 C 
ENDBRANCH  17  19
ENDBRANCH  14  17
ENDBRANCH  10  11
ENDBRANCH   9  10
ENDBRANCH   4   9
ENDBRANCH   1   3
BRANCH   2  21
HETATM   21  C   UNL     1      41.142 -12.443   3.530  1.00  0.00     0.257 C 
HETATM   22  N   UNL     1      42.261 -12.929   4.180  1.00  0.00    -0.344 N 
HETATM   23  C   UNL     1      42.320 -12.868   5.643  1.00  0.00     0.152 C 
HETATM   24  C   UNL     1      43.407 -13.651   3.610  1.00  0.00     0.152 C 
HETATM   25  C   UNL     1      42.423 -14.285   6.215  1.00  0.00     0.187 C 
HETATM   26  O   UNL     1      43.551 -14.987   5.660  1.00  0.00    -0.388 OA
HETATM   27  C   UNL     1      43.468 -15.058   4.224  1.00  0.00     0.187 C 
HETATM   28  O   UNL     1      40.245 -11.853   4.143  1.00  0.00    -0.267 OA
ENDBRANCH   2  21
BRANCH   2  29
HETATM   29  C   UNL     1      41.695 -11.585   1.212  1.00  0.00     0.144 A 
HETATM   30  N   UNL     1      42.581 -11.713   0.239  1.00  0.00    -0.228 NA
HETATM   31  C   UNL     1      42.781 -10.456  -0.274  1.00  0.00     0.086 A 
HETATM   32  C   UNL     1      42.034  -9.516   0.418  1.00  0.00     0.062 A 
HETATM   33  C   UNL     1      43.581 -10.039  -1.347  1.00  0.00     0.034 A 
HETATM   34  N   UNL     1      41.369 -10.250   1.363  1.00  0.00    -0.338 N 
HETATM   35  C   UNL     1      42.032  -8.154   0.112  1.00  0.00     0.032 A 
HETATM   36  H   UNL     1      40.682  -9.898   2.020  1.00  0.00     0.167 HD
HETATM   37  C   UNL     1      42.834  -7.755  -0.964  1.00  0.00     0.002 A 
HETATM   38  C   UNL     1      43.594  -8.679  -1.684  1.00  0.00     0.002 A 
ENDBRANCH   2  29
TORSDOF 8
ENDMDL
MODEL 7
REMARK VINA RESULT:      -8.4      3.825      7.597
REMARK  8 active torsions:
REMARK  status: ('A' for Active; 'I' for Inactive)
REMARK    1  A    between atoms: O_2  and  C_3 
REMARK    2  A    between atoms: C_3  and  C_4 
REMARK    3  A    between atoms: C_7  and  C_8 
REMARK    4  A    between atoms: C_8  and  O_9 
REMARK    5  A    between atoms: O_9  and  C_10 
REMARK    6  A    between atoms: C_11  and  C_12 
REMARK    7  A    between atoms: C_13  and  C_14 
REMARK    8  A    between atoms: C_13  and  C_22 
REMARK       I    between atoms: C_14  and  N_15 
ROOT
HETATM    1  C   UNL     1      40.422 -14.268   0.738  1.00  0.00     0.035 C 
HETATM    2  C   UNL     1      40.633 -13.786  -0.503  1.00  0.00     0.079 C 
ENDROOT
BRANCH   1   3
HETATM    3  C   UNL     1      40.408 -13.545   2.023  1.00  0.00    -0.002 A 
HETATM    4  C   UNL     1      41.509 -13.598   2.887  1.00  0.00     0.079 A 
HETATM    5  C   UNL     1      41.455 -12.996   4.150  1.00  0.00     0.037 A 
HETATM    6  C   UNL     1      40.312 -12.300   4.541  1.00  0.00     0.003 A 
HETATM    7  C   UNL     1      39.217 -12.227   3.684  1.00  0.00     0.001 A 
HETATM    8  C   UNL     1      39.259 -12.857   2.438  1.00  0.00     0.014 A 
BRANCH   4   9
HETATM    9  O   UNL     1      42.604 -14.336   2.516  1.00  0.00    -0.346 OA
BRANCH   9  10
HETATM   10  C   UNL     1      43.232 -14.995   3.623  1.00  0.00     0.214 C 
BRANCH  10  11
HETATM   11  C   UNL     1      43.479 -16.457   3.311  1.00  0.00    -0.034 A 
HETATM   12  C   UNL     1      43.439 -17.398   4.350  1.00  0.00     0.010 A 
HETATM   13  C   UNL     1      43.648 -18.755   4.091  1.00  0.00     0.018 A 
HETATM   14  C   UNL     1      43.898 -19.197   2.786  1.00  0.00     0.039 A 
HETATM   15  C   UNL     1      43.924 -18.266   1.742  1.00  0.00     0.018 A 
HETATM   16  C   UNL     1      43.712 -16.909   2.004  1.00  0.00     0.010 A 
BRANCH  14  17
HETATM   17  C   UNL     1      44.126 -20.651   2.563  1.00  0.00     0.292 C 
HETATM   18  O   UNL     1      43.804 -21.235   1.541  1.00  0.00    -0.259 OA
BRANCH  17  19
HETATM   19  O   UNL     1      44.720 -21.214   3.645  1.00  0.00    -0.323 OA
HETATM   20  C   UNL     1      44.658 -22.640   3.666  1.00  0.00     0.213 C 
ENDBRANCH  17  19
ENDBRANCH  14  17
ENDBRANCH  10  11
ENDBRANCH   9  10
ENDBRANCH   4   9
ENDBRANCH   1   3
BRANCH   2  21
HETATM   21  C   UNL     1      40.593 -14.761  -1.652  1.00  0.00     0.257 C 
HETATM   22  N   UNL     1      39.818 -14.498  -2.766  1.00  0.00    -0.344 N 
HETATM   23  C   UNL     1      39.752 -15.494  -3.840  1.00  0.00     0.152 C 
HETATM   24  C   UNL     1      38.902 -13.373  -2.998  1.00  0.00     0.152 C 
HETATM   25  C   UNL     1      38.308 -15.978  -4.005  1.00  0.00     0.187 C 
HETATM   26  O   UNL     1      37.415 -14.874  -4.239  1.00  0.00    -0.388 OA
HETATM   27  C   UNL     1      37.475 -13.916  -3.166  1.00  0.00     0.187 C 
HETATM   28  O   UNL     1      41.321 -15.758  -1.592  1.00  0.00    -0.267 OA
ENDBRANCH   2  21
BRANCH   2  29
HETATM   29  C   UNL     1      41.096 -12.451  -0.741  1.00  0.00     0.144 A 
HETATM   30  N   UNL     1      40.481 -11.281  -0.702  1.00  0.00    -0.228 NA
HETATM   31  C   UNL     1      41.449 -10.327  -0.892  1.00  0.00     0.086 A 
HETATM   32  C   UNL     1      42.689 -10.914  -1.091  1.00  0.00     0.062 A 
HETATM   33  C   UNL     1      41.346  -8.929  -0.892  1.00  0.00     0.034 A 
HETATM   34  N   UNL     1      42.438 -12.257  -1.008  1.00  0.00    -0.338 N 
HETATM   35  C   UNL     1      43.862 -10.188  -1.302  1.00  0.00     0.032 A 
HETATM   36  H   UNL     1      43.127 -12.998  -1.051  1.00  0.00     0.167 HD
HETATM   37  C   UNL     1      43.742  -8.793  -1.297  1.00  0.00     0.002 A 
HETATM   38  C   UNL     1      42.507  -8.171  -1.093  1.00  0.00     0.002 A 
ENDBRANCH   2  29
TORSDOF 8
ENDMDL
MODEL 8
REMARK VINA RESULT:      -8.3      3.146      7.178
REMARK  8 active torsions:
REMARK  status: ('A' for Active; 'I' for Inactive)
REMARK    1  A    between atoms: O_2  and  C_3 
REMARK    2  A    between atoms: C_3  and  C_4 
REMARK    3  A    between atoms: C_7  and  C_8 
REMARK    4  A    between atoms: C_8  and  O_9 
REMARK    5  A    between atoms: O_9  and  C_10 
REMARK    6  A    between atoms: C_11  and  C_12 
REMARK    7  A    between atoms: C_13  and  C_14 
REMARK    8  A    between atoms: C_13  and  C_22 
REMARK       I    between atoms: C_14  and  N_15 
ROOT
HETATM    1  C   UNL     1      40.316 -13.664   1.567  1.00  0.00     0.035 C 
HETATM    2  C   UNL     1      41.098 -12.681   2.060  1.00  0.00     0.079 C 
ENDROOT
BRANCH   1   3
HETATM    3  C   UNL     1      40.098 -14.058   0.164  1.00  0.00    -0.002 A 
HETATM    4  C   UNL     1      40.980 -14.937  -0.479  1.00  0.00     0.079 A 
HETATM    5  C   UNL     1      40.830 -15.229  -1.840  1.00  0.00     0.037 A 
HETATM    6  C   UNL     1      39.771 -14.676  -2.558  1.00  0.00     0.003 A 
HETATM    7  C   UNL     1      38.879 -13.814  -1.926  1.00  0.00     0.001 A 
HETATM    8  C   UNL     1      39.049 -13.495  -0.577  1.00  0.00     0.014 A 
BRANCH   4   9
HETATM    9  O   UNL     1      42.051 -15.427   0.223  1.00  0.00    -0.346 OA
BRANCH   9  10
HETATM   10  C   UNL     1      41.939 -16.829   0.501  1.00  0.00     0.214 C 
BRANCH  10  11
HETATM   11  C   UNL     1      42.572 -17.166   1.835  1.00  0.00    -0.034 A 
HETATM   12  C   UNL     1      42.646 -16.179   2.829  1.00  0.00     0.010 A 
HETATM   13  C   UNL     1      43.210 -16.464   4.076  1.00  0.00     0.018 A 
HETATM   14  C   UNL     1      43.708 -17.743   4.353  1.00  0.00     0.039 A 
HETATM   15  C   UNL     1      43.623 -18.737   3.371  1.00  0.00     0.018 A 
HETATM   16  C   UNL     1      43.056 -18.450   2.126  1.00  0.00     0.010 A 
BRANCH  14  17
HETATM   17  C   UNL     1      44.310 -17.994   5.691  1.00  0.00     0.292 C 
HETATM   18  O   UNL     1      45.086 -18.907   5.921  1.00  0.00    -0.259 OA
BRANCH  17  19
HETATM   19  O   UNL     1      43.867 -17.083   6.594  1.00  0.00    -0.323 OA
HETATM   20  C   UNL     1      43.068 -17.640   7.638  1.00  0.00     0.213 C 
ENDBRANCH  17  19
ENDBRANCH  14  17
ENDBRANCH  10  11
ENDBRANCH   9  10
ENDBRANCH   4   9
ENDBRANCH   1   3
BRANCH   2  21
HETATM   21  C   UNL     1      41.132 -12.495   3.555  1.00  0.00     0.257 C 
HETATM   22  N   UNL     1      40.007 -12.062   4.232  1.00  0.00    -0.344 N 
HETATM   23  C   UNL     1      40.089 -11.831   5.678  1.00  0.00     0.152 C 
HETATM   24  C   UNL     1      38.709 -11.652   3.680  1.00  0.00     0.152 C 
HETATM   25  C   UNL     1      39.794 -10.359   5.982  1.00  0.00     0.187 C 
HETATM   26  O   UNL     1      38.518  -9.964   5.446  1.00  0.00    -0.388 OA
HETATM   27  C   UNL     1      38.462 -10.176   4.023  1.00  0.00     0.187 C 
HETATM   28  O   UNL     1      42.167 -12.805   4.156  1.00  0.00    -0.267 OA
ENDBRANCH   2  21
BRANCH   2  29
HETATM   29  C   UNL     1      41.713 -11.696   1.223  1.00  0.00     0.144 A 
HETATM   30  N   UNL     1      42.650 -11.784   0.294  1.00  0.00    -0.228 NA
HETATM   31  C   UNL     1      42.755 -10.537  -0.271  1.00  0.00     0.086 A 
HETATM   32  C   UNL     1      41.892  -9.642   0.342  1.00  0.00     0.062 A 
HETATM   33  C   UNL     1      43.559 -10.095  -1.330  1.00  0.00     0.034 A 
HETATM   34  N   UNL     1      41.256 -10.393   1.294  1.00  0.00    -0.338 N 
HETATM   35  C   UNL     1      41.777  -8.302  -0.031  1.00  0.00     0.032 A 
HETATM   36  H   UNL     1      40.511 -10.079   1.904  1.00  0.00     0.167 HD
HETATM   37  C   UNL     1      42.586  -7.878  -1.091  1.00  0.00     0.002 A 
HETATM   38  C   UNL     1      43.461  -8.757  -1.734  1.00  0.00     0.002 A 
ENDBRANCH   2  29
TORSDOF 8
ENDMDL
MODEL 9
REMARK VINA RESULT:      -8.1      2.780      5.175
REMARK  8 active torsions:
REMARK  status: ('A' for Active; 'I' for Inactive)
REMARK    1  A    between atoms: O_2  and  C_3 
REMARK    2  A    between atoms: C_3  and  C_4 
REMARK    3  A    between atoms: C_7  and  C_8 
REMARK    4  A    between atoms: C_8  and  O_9 
REMARK    5  A    between atoms: O_9  and  C_10 
REMARK    6  A    between atoms: C_11  and  C_12 
REMARK    7  A    between atoms: C_13  and  C_14 
REMARK    8  A    between atoms: C_13  and  C_22 
REMARK       I    between atoms: C_14  and  N_15 
ROOT
HETATM    1  C   UNL     1      42.393 -14.418   3.593  1.00  0.00     0.035 C 
HETATM    2  C   UNL     1      42.265 -14.570   4.927  1.00  0.00     0.079 C 
ENDROOT
BRANCH   1   3
HETATM    3  C   UNL     1      42.622 -15.446   2.562  1.00  0.00    -0.002 A 
HETATM    4  C   UNL     1      41.576 -15.878   1.736  1.00  0.00     0.079 A 
HETATM    5  C   UNL     1      41.770 -16.925   0.827  1.00  0.00     0.037 A 
HETATM    6  C   UNL     1      43.025 -17.520   0.709  1.00  0.00     0.003 A 
HETATM    7  C   UNL     1      44.076 -17.089   1.513  1.00  0.00     0.001 A 
HETATM    8  C   UNL     1      43.873 -16.067   2.444  1.00  0.00     0.014 A 
BRANCH   4   9
HETATM    9  O   UNL     1      40.332 -15.325   1.903  1.00  0.00    -0.346 OA
BRANCH   9  10
HETATM   10  C   UNL     1      39.805 -14.766   0.693  1.00  0.00     0.214 C 
BRANCH  10  11
HETATM   11  C   UNL     1      40.703 -13.662   0.173  1.00  0.00    -0.034 A 
HETATM   12  C   UNL     1      41.401 -13.853  -1.029  1.00  0.00     0.010 A 
HETATM   13  C   UNL     1      42.225 -12.848  -1.542  1.00  0.00     0.018 A 
HETATM   14  C   UNL     1      42.365 -11.631  -0.863  1.00  0.00     0.039 A 
HETATM   15  C   UNL     1      41.661 -11.428   0.328  1.00  0.00     0.018 A 
HETATM   16  C   UNL     1      40.834 -12.434   0.838  1.00  0.00     0.010 A 
BRANCH  14  17
HETATM   17  C   UNL     1      43.264 -10.596  -1.444  1.00  0.00     0.292 C 
HETATM   18  O   UNL     1      44.174 -10.070  -0.825  1.00  0.00    -0.259 OA
BRANCH  17  19
HETATM   19  O   UNL     1      42.919 -10.328  -2.728  1.00  0.00    -0.323 OA
HETATM   20  C   UNL     1      42.279  -9.064  -2.907  1.00  0.00     0.213 C 
ENDBRANCH  17  19
ENDBRANCH  14  17
ENDBRANCH  10  11
ENDBRANCH   9  10
ENDBRANCH   4   9
ENDBRANCH   1   3
BRANCH   2  21
HETATM   21  C   UNL     1      42.037 -13.333   5.756  1.00  0.00     0.257 C 
HETATM   22  N   UNL     1      40.764 -12.813   5.902  1.00  0.00    -0.344 N 
HETATM   23  C   UNL     1      40.582 -11.574   6.664  1.00  0.00     0.152 C 
HETATM   24  C   UNL     1      39.516 -13.263   5.272  1.00  0.00     0.152 C 
HETATM   25  C   UNL     1      39.997 -10.490   5.753  1.00  0.00     0.187 C 
HETATM   26  O   UNL     1      38.770 -10.932   5.144  1.00  0.00    -0.388 OA
HETATM   27  C   UNL     1      38.970 -12.137   4.381  1.00  0.00     0.187 C 
HETATM   28  O   UNL     1      43.005 -12.845   6.350  1.00  0.00    -0.267 OA
ENDBRANCH   2  21
BRANCH   2  29
HETATM   29  C   UNL     1      42.546 -15.808   5.590  1.00  0.00     0.144 A 
HETATM   30  N   UNL     1      42.553 -17.060   5.162  1.00  0.00    -0.228 NA
HETATM   31  C   UNL     1      43.021 -17.823   6.202  1.00  0.00     0.086 A 
HETATM   32  C   UNL     1      43.276 -17.038   7.316  1.00  0.00     0.062 A 
HETATM   33  C   UNL     1      43.271 -19.201   6.265  1.00  0.00     0.034 A 
HETATM   34  N   UNL     1      42.954 -15.772   6.910  1.00  0.00    -0.338 N 
HETATM   35  C   UNL     1      43.769 -17.544   8.520  1.00  0.00     0.032 A 
HETATM   36  H   UNL     1      43.067 -14.923   7.452  1.00  0.00     0.167 HD
HETATM   37  C   UNL     1      44.015 -18.921   8.565  1.00  0.00     0.002 A 
HETATM   38  C   UNL     1      43.773 -19.738   7.457  1.00  0.00     0.002 A 
ENDBRANCH   2  29
TORSDOF 8
ENDMDL
MODEL 10
REMARK VINA RESULT:      -8.0      2.989      8.074
REMARK  8 active torsions:
REMARK  status: ('A' for Active; 'I' for Inactive)
REMARK    1  A    between atoms: O_2  and  C_3 
REMARK    2  A    between atoms: C_3  and  C_4 
REMARK    3  A    between atoms: C_7  and  C_8 
REMARK    4  A    between atoms: C_8  and  O_9 
REMARK    5  A    between atoms: O_9  and  C_10 
REMARK    6  A    between atoms: C_11  and  C_12 
REMARK    7  A    between atoms: C_13  and  C_14 
REMARK    8  A    between atoms: C_13  and  C_22 
REMARK       I    between atoms: C_14  and  N_15 
ROOT
HETATM    1  C   UNL     1      40.418 -13.636   1.998  1.00  0.00     0.035 C 
HETATM    2  C   UNL     1      41.625 -13.655   1.395  1.00  0.00     0.079 C 
ENDROOT
BRANCH   1   3
HETATM    3  C   UNL     1      39.211 -12.875   1.631  1.00  0.00    -0.002 A 
HETATM    4  C   UNL     1      38.833 -11.738   2.358  1.00  0.00     0.079 A 
HETATM    5  C   UNL     1      37.632 -11.076   2.073  1.00  0.00     0.037 A 
HETATM    6  C   UNL     1      36.822 -11.522   1.030  1.00  0.00     0.003 A 
HETATM    7  C   UNL     1      37.195 -12.642   0.291  1.00  0.00     0.001 A 
HETATM    8  C   UNL     1      38.376 -13.323   0.598  1.00  0.00     0.014 A 
BRANCH   4   9
HETATM    9  O   UNL     1      39.608 -11.345   3.418  1.00  0.00    -0.346 OA
BRANCH   9  10
HETATM   10  C   UNL     1      39.172 -11.905   4.664  1.00  0.00     0.214 C 
BRANCH  10  11
HETATM   11  C   UNL     1      40.144 -12.961   5.149  1.00  0.00    -0.034 A 
HETATM   12  C   UNL     1      41.478 -12.606   5.398  1.00  0.00     0.010 A 
HETATM   13  C   UNL     1      42.394 -13.554   5.860  1.00  0.00     0.018 A 
HETATM   14  C   UNL     1      41.992 -14.877   6.085  1.00  0.00     0.039 A 
HETATM   15  C   UNL     1      40.659 -15.235   5.853  1.00  0.00     0.018 A 
HETATM   16  C   UNL     1      39.744 -14.283   5.393  1.00  0.00     0.010 A 
BRANCH  14  17
HETATM   17  C   UNL     1      43.007 -15.853   6.566  1.00  0.00     0.292 C 
HETATM   18  O   UNL     1      44.205 -15.733   6.369  1.00  0.00    -0.259 OA
BRANCH  17  19
HETATM   19  O   UNL     1      42.412 -16.875   7.231  1.00  0.00    -0.323 OA
HETATM   20  C   UNL     1      43.136 -18.104   7.177  1.00  0.00     0.213 C 
ENDBRANCH  17  19
ENDBRANCH  14  17
ENDBRANCH  10  11
ENDBRANCH   9  10
ENDBRANCH   4   9
ENDBRANCH   1   3
BRANCH   2  21
HETATM   21  C   UNL     1      42.694 -14.534   1.991  1.00  0.00     0.257 C 
HETATM   22  N   UNL     1      42.825 -15.849   1.585  1.00  0.00    -0.344 N 
HETATM   23  C   UNL     1      43.835 -16.697   2.226  1.00  0.00     0.152 C 
HETATM   24  C   UNL     1      41.981 -16.605   0.651  1.00  0.00     0.152 C 
HETATM   25  C   UNL     1      43.150 -17.875   2.925  1.00  0.00     0.187 C 
HETATM   26  O   UNL     1      42.330 -18.618   2.005  1.00  0.00    -0.388 OA
HETATM   27  C   UNL     1      41.330 -17.777   1.400  1.00  0.00     0.187 C 
HETATM   28  O   UNL     1      43.483 -14.024   2.795  1.00  0.00    -0.267 OA
ENDBRANCH   2  21
BRANCH   2  29
HETATM   29  C   UNL     1      41.982 -12.728   0.364  1.00  0.00     0.144 A 
HETATM   30  N   UNL     1      41.928 -12.808  -0.955  1.00  0.00    -0.228 NA
HETATM   31  C   UNL     1      42.280 -11.571  -1.434  1.00  0.00     0.086 A 
HETATM   32  C   UNL     1      42.597 -10.711  -0.394  1.00  0.00     0.062 A 
HETATM   33  C   UNL     1      42.337 -11.100  -2.753  1.00  0.00     0.034 A 
HETATM   34  N   UNL     1      42.417 -11.469   0.731  1.00  0.00    -0.338 N 
HETATM   35  C   UNL     1      42.983  -9.382  -0.582  1.00  0.00     0.032 A 
HETATM   36  H   UNL     1      42.506 -11.149   1.688  1.00  0.00     0.167 HD
HETATM   37  C   UNL     1      43.033  -8.928  -1.905  1.00  0.00     0.002 A 
HETATM   38  C   UNL     1      42.714  -9.769  -2.974  1.00  0.00     0.002 A 
ENDBRANCH   2  29
TORSDOF 8
ENDMDL
