MODEL 1
REMARK VINA RESULT:      -9.6      0.000      0.000
REMARK  7 active torsions:
REMARK  status: ('A' for Active; 'I' for Inactive)
REMARK    1  A    between atoms: C_6  and  N_7 
REMARK    2  A    between atoms: C_10  and  C_11 
REMARK       I    between atoms: C_11  and  N_12 
REMARK    3  A    between atoms: N_12  and  C_13 
REMARK    4  A    between atoms: C_16  and  C_17 
REMARK    5  A    between atoms: C_17  and  N_18 
REMARK    6  A    between atoms: C_21  and  C_22 
REMARK       I    between atoms: C_22  and  N_23 
REMARK    7  A    between atoms: C_31  and  C_32 
ROOT
HETATM    1  C   UNL     1      41.535 -15.078   3.819  1.00  0.00     0.278 C 
HETATM    2  N   UNL     1      41.890 -14.444   4.996  1.00  0.00    -0.322 N 
HETATM    3  O   UNL     1      40.567 -14.811   3.119  1.00  0.00    -0.265 OA
HETATM    4  H   UNL     1      42.704 -14.830   5.468  1.00  0.00     0.169 HD
ENDROOT
BRANCH   2   5
HETATM    5  C   UNL     1      41.242 -13.354   5.607  1.00  0.00     0.035 A 
HETATM    6  C   UNL     1      39.966 -13.425   6.166  1.00  0.00     0.030 A 
HETATM    7  C   UNL     1      39.378 -12.303   6.757  1.00  0.00     0.011 A 
HETATM    8  C   UNL     1      40.066 -11.084   6.820  1.00  0.00    -0.032 A 
HETATM    9  C   UNL     1      41.342 -11.006   6.247  1.00  0.00     0.011 A 
HETATM   10  C   UNL     1      41.919 -12.130   5.641  1.00  0.00     0.030 A 
BRANCH   8  11
HETATM   11  C   UNL     1      39.441  -9.890   7.489  1.00  0.00     0.273 C 
BRANCH  11  12
HETATM   12  N   UNL     1      39.204 -10.099   8.974  1.00  0.00    -0.066 N 
HETATM   13  H   UNL     1      38.533 -10.872   9.045  1.00  0.00     0.280 HD
HETATM   14  C   UNL     1      40.467 -10.531   9.700  1.00  0.00     0.249 C 
HETATM   15  C   UNL     1      40.150 -10.851  11.163  1.00  0.00     0.103 C 
HETATM   16  C   UNL     1      39.455  -9.672  11.849  1.00  0.00     0.017 C 
HETATM   17  C   UNL     1      38.235  -9.204  11.060  1.00  0.00     0.029 C 
HETATM   18  C   UNL     1      38.579  -8.886   9.612  1.00  0.00     0.235 C 
BRANCH  15  19
HETATM   19  C   UNL     1      41.451 -11.202  11.857  1.00  0.00     0.221 C 
HETATM   20  N   UNL     1      42.462 -11.628  11.053  1.00  0.00    -0.370 N 
HETATM   21  H   UNL     1      43.354 -11.840  11.490  1.00  0.00     0.159 HD
HETATM   22  H   UNL     1      42.434 -11.629  10.042  1.00  0.00     0.159 HD
HETATM   23  O   UNL     1      41.599 -11.105  13.068  1.00  0.00    -0.273 OA
ENDBRANCH  15  19
ENDBRANCH  11  12
ENDBRANCH   8  11
ENDBRANCH   2   5
BRANCH   1  24
HETATM   24  C   UNL     1      42.458 -16.144   3.448  1.00  0.00     0.175 C 
HETATM   25  N   UNL     1      43.395 -16.011   2.464  1.00  0.00    -0.152 NA
HETATM   26  N   UNL     1      44.038 -17.162   2.359  1.00  0.00     0.011 NA
HETATM   27  N   UNL     1      43.447 -18.073   3.185  1.00  0.00    -0.231 N 
HETATM   28  C   UNL     1      42.571 -17.402   4.010  1.00  0.00     0.174 C 
BRANCH  27  29
HETATM   29  C   UNL     1      43.754 -19.454   3.037  1.00  0.00     0.058 A 
HETATM   30  C   UNL     1      44.537 -20.084   4.018  1.00  0.00     0.073 A 
HETATM   31  C   UNL     1      44.865 -21.431   3.886  1.00  0.00     0.118 A 
HETATM   32  C   UNL     1      44.444 -22.168   2.788  1.00  0.00     0.042 A 
HETATM   33  F   UNL     1      45.599 -22.024   4.836  1.00  0.00    -0.206 F 
HETATM   34  C   UNL     1      43.691 -21.547   1.797  1.00  0.00     0.005 A 
HETATM   35  C   UNL     1      43.351 -20.192   1.914  1.00  0.00     0.031 A 
ENDBRANCH  27  29
BRANCH  28  36
HETATM   36  C   UNL     1      41.981 -17.933   5.234  1.00  0.00     0.436 C 
HETATM   37  F   UNL     1      40.633 -18.059   5.147  1.00  0.00    -0.165 F 
HETATM   38  F   UNL     1      42.437 -19.176   5.523  1.00  0.00    -0.165 F 
HETATM   39  F   UNL     1      42.240 -17.145   6.304  1.00  0.00    -0.165 F 
ENDBRANCH  28  36
ENDBRANCH   1  24
TORSDOF 7
ENDMDL
MODEL 2
REMARK VINA RESULT:      -9.5      3.706     10.474
REMARK  7 active torsions:
REMARK  status: ('A' for Active; 'I' for Inactive)
REMARK    1  A    between atoms: C_6  and  N_7 
REMARK    2  A    between atoms: C_10  and  C_11 
REMARK       I    between atoms: C_11  and  N_12 
REMARK    3  A    between atoms: N_12  and  C_13 
REMARK    4  A    between atoms: C_16  and  C_17 
REMARK    5  A    between atoms: C_17  and  N_18 
REMARK    6  A    between atoms: C_21  and  C_22 
REMARK       I    between atoms: C_22  and  N_23 
REMARK    7  A    between atoms: C_31  and  C_32 
ROOT
HETATM    1  C   UNL     1      40.907 -11.530   6.183  1.00  0.00     0.278 C 
HETATM    2  N   UNL     1      41.806 -12.561   6.386  1.00  0.00    -0.322 N 
HETATM    3  O   UNL     1      40.052 -11.478   5.308  1.00  0.00    -0.265 OA
HETATM    4  H   UNL     1      42.474 -12.414   7.138  1.00  0.00     0.169 HD
ENDROOT
BRANCH   2   5
HETATM    5  C   UNL     1      41.902 -13.764   5.660  1.00  0.00     0.035 A 
HETATM    6  C   UNL     1      40.932 -14.767   5.692  1.00  0.00     0.030 A 
HETATM    7  C   UNL     1      41.090 -15.941   4.949  1.00  0.00     0.011 A 
HETATM    8  C   UNL     1      42.216 -16.128   4.138  1.00  0.00    -0.032 A 
HETATM    9  C   UNL     1      43.198 -15.129   4.115  1.00  0.00     0.011 A 
HETATM   10  C   UNL     1      43.042 -13.963   4.876  1.00  0.00     0.030 A 
BRANCH   8  11
HETATM   11  C   UNL     1      42.362 -17.378   3.312  1.00  0.00     0.273 C 
BRANCH  11  12
HETATM   12  N   UNL     1      43.416 -18.327   3.855  1.00  0.00    -0.066 N 
HETATM   13  H   UNL     1      44.284 -17.781   3.907  1.00  0.00     0.280 HD
HETATM   14  C   UNL     1      43.093 -18.795   5.264  1.00  0.00     0.249 C 
HETATM   15  C   UNL     1      44.243 -19.644   5.814  1.00  0.00     0.103 C 
HETATM   16  C   UNL     1      44.572 -20.805   4.872  1.00  0.00     0.017 C 
HETATM   17  C   UNL     1      44.814 -20.319   3.446  1.00  0.00     0.029 C 
HETATM   18  C   UNL     1      43.654 -19.485   2.921  1.00  0.00     0.235 C 
BRANCH  15  19
HETATM   19  C   UNL     1      43.838 -20.145   7.186  1.00  0.00     0.221 C 
HETATM   20  N   UNL     1      43.834 -19.221   8.183  1.00  0.00    -0.370 N 
HETATM   21  H   UNL     1      43.537 -19.525   9.105  1.00  0.00     0.159 HD
HETATM   22  H   UNL     1      43.981 -18.229   8.052  1.00  0.00     0.159 HD
HETATM   23  O   UNL     1      43.525 -21.310   7.396  1.00  0.00    -0.273 OA
ENDBRANCH  15  19
ENDBRANCH  11  12
ENDBRANCH   8  11
ENDBRANCH   2   5
BRANCH   1  24
HETATM   24  C   UNL     1      41.055 -10.451   7.153  1.00  0.00     0.175 C 
HETATM   25  N   UNL     1      41.773  -9.317   6.902  1.00  0.00    -0.152 NA
HETATM   26  N   UNL     1      41.735  -8.565   7.990  1.00  0.00     0.011 NA
HETATM   27  N   UNL     1      41.100  -9.255   8.980  1.00  0.00    -0.231 N 
HETATM   28  C   UNL     1      40.507 -10.365   8.419  1.00  0.00     0.174 C 
BRANCH  27  29
HETATM   29  C   UNL     1      41.192  -8.797  10.323  1.00  0.00     0.058 A 
HETATM   30  C   UNL     1      42.282  -9.208  11.108  1.00  0.00     0.073 A 
HETATM   31  C   UNL     1      42.384  -8.787  12.430  1.00  0.00     0.118 A 
HETATM   32  C   UNL     1      41.416  -7.974  13.002  1.00  0.00     0.042 A 
HETATM   33  F   UNL     1      43.436  -9.173  13.164  1.00  0.00    -0.206 F 
HETATM   34  C   UNL     1      40.318  -7.583  12.243  1.00  0.00     0.005 A 
HETATM   35  C   UNL     1      40.200  -7.997  10.909  1.00  0.00     0.031 A 
ENDBRANCH  27  29
BRANCH  28  36
HETATM   36  C   UNL     1      39.478 -11.188   9.046  1.00  0.00     0.436 C 
HETATM   37  F   UNL     1      39.129 -12.253   8.282  1.00  0.00    -0.165 F 
HETATM   38  F   UNL     1      39.894 -11.714  10.224  1.00  0.00    -0.165 F 
HETATM   39  F   UNL     1      38.348 -10.485   9.291  1.00  0.00    -0.165 F 
ENDBRANCH  28  36
ENDBRANCH   1  24
TORSDOF 7
ENDMDL
MODEL 3
REMARK VINA RESULT:      -9.2      1.609      2.097
REMARK  7 active torsions:
REMARK  status: ('A' for Active; 'I' for Inactive)
REMARK    1  A    between atoms: C_6  and  N_7 
REMARK    2  A    between atoms: C_10  and  C_11 
REMARK       I    between atoms: C_11  and  N_12 
REMARK    3  A    between atoms: N_12  and  C_13 
REMARK    4  A    between atoms: C_16  and  C_17 
REMARK    5  A    between atoms: C_17  and  N_18 
REMARK    6  A    between atoms: C_21  and  C_22 
REMARK       I    between atoms: C_22  and  N_23 
REMARK    7  A    between atoms: C_31  and  C_32 
ROOT
HETATM    1  C   UNL     1      42.308 -15.856   5.821  1.00  0.00     0.278 C 
HETATM    2  N   UNL     1      41.791 -14.748   5.174  1.00  0.00    -0.322 N 
HETATM    3  O   UNL     1      42.448 -15.986   7.031  1.00  0.00    -0.265 OA
HETATM    4  H   UNL     1      41.790 -14.800   4.158  1.00  0.00     0.169 HD
ENDROOT
BRANCH   2   5
HETATM    5  C   UNL     1      41.294 -13.570   5.763  1.00  0.00     0.035 A 
HETATM    6  C   UNL     1      42.067 -12.429   5.984  1.00  0.00     0.030 A 
HETATM    7  C   UNL     1      41.512 -11.291   6.577  1.00  0.00     0.011 A 
HETATM    8  C   UNL     1      40.160 -11.262   6.943  1.00  0.00    -0.032 A 
HETATM    9  C   UNL     1      39.386 -12.411   6.735  1.00  0.00     0.011 A 
HETATM   10  C   UNL     1      39.952 -13.555   6.157  1.00  0.00     0.030 A 
BRANCH   8  11
HETATM   11  C   UNL     1      39.560 -10.022   7.548  1.00  0.00     0.273 C 
BRANCH  11  12
HETATM   12  N   UNL     1      39.243 -10.176   9.025  1.00  0.00    -0.066 N 
HETATM   13  H   UNL     1      38.558 -10.938   9.086  1.00  0.00     0.280 HD
HETATM   14  C   UNL     1      40.460 -10.598   9.830  1.00  0.00     0.249 C 
HETATM   15  C   UNL     1      40.063 -10.863  11.285  1.00  0.00     0.103 C 
HETATM   16  C   UNL     1      39.350  -9.652  11.892  1.00  0.00     0.017 C 
HETATM   17  C   UNL     1      38.180  -9.196  11.025  1.00  0.00     0.029 C 
HETATM   18  C   UNL     1      38.603  -8.933   9.587  1.00  0.00     0.235 C 
BRANCH  15  19
HETATM   19  C   UNL     1      41.321 -11.205  12.057  1.00  0.00     0.221 C 
HETATM   20  N   UNL     1      42.349 -11.719  11.330  1.00  0.00    -0.370 N 
HETATM   21  H   UNL     1      43.214 -11.928  11.819  1.00  0.00     0.159 HD
HETATM   22  H   UNL     1      42.363 -11.791  10.321  1.00  0.00     0.159 HD
HETATM   23  O   UNL     1      41.422 -11.029  13.265  1.00  0.00    -0.273 OA
ENDBRANCH  15  19
ENDBRANCH  11  12
ENDBRANCH   8  11
ENDBRANCH   2   5
BRANCH   1  24
HETATM   24  C   UNL     1      42.687 -16.924   4.903  1.00  0.00     0.175 C 
HETATM   25  N   UNL     1      42.108 -17.094   3.678  1.00  0.00    -0.152 NA
HETATM   26  N   UNL     1      42.652 -18.163   3.119  1.00  0.00     0.011 NA
HETATM   27  N   UNL     1      43.490 -18.752   4.019  1.00  0.00    -0.231 N 
HETATM   28  C   UNL     1      43.664 -17.886   5.077  1.00  0.00     0.174 C 
BRANCH  27  29
HETATM   29  C   UNL     1      43.963 -20.071   3.777  1.00  0.00     0.058 A 
HETATM   30  C   UNL     1      43.929 -20.575   2.466  1.00  0.00     0.073 A 
HETATM   31  C   UNL     1      44.371 -21.869   2.207  1.00  0.00     0.118 A 
HETATM   32  C   UNL     1      44.833 -22.688   3.228  1.00  0.00     0.042 A 
HETATM   33  F   UNL     1      44.348 -22.332   0.951  1.00  0.00    -0.206 F 
HETATM   34  C   UNL     1      44.844 -22.210   4.535  1.00  0.00     0.005 A 
HETATM   35  C   UNL     1      44.405 -20.908   4.813  1.00  0.00     0.031 A 
ENDBRANCH  27  29
BRANCH  28  36
HETATM   36  C   UNL     1      44.712 -17.978   6.088  1.00  0.00     0.436 C 
HETATM   37  F   UNL     1      44.330 -18.705   7.167  1.00  0.00    -0.165 F 
HETATM   38  F   UNL     1      45.823 -18.596   5.616  1.00  0.00    -0.165 F 
HETATM   39  F   UNL     1      45.086 -16.758   6.540  1.00  0.00    -0.165 F 
ENDBRANCH  28  36
ENDBRANCH   1  24
TORSDOF 7
ENDMDL
MODEL 4
REMARK VINA RESULT:      -9.0      3.652     10.869
REMARK  7 active torsions:
REMARK  status: ('A' for Active; 'I' for Inactive)
REMARK    1  A    between atoms: C_6  and  N_7 
REMARK    2  A    between atoms: C_10  and  C_11 
REMARK       I    between atoms: C_11  and  N_12 
REMARK    3  A    between atoms: N_12  and  C_13 
REMARK    4  A    between atoms: C_16  and  C_17 
REMARK    5  A    between atoms: C_17  and  N_18 
REMARK    6  A    between atoms: C_21  and  C_22 
REMARK       I    between atoms: C_22  and  N_23 
REMARK    7  A    between atoms: C_31  and  C_32 
ROOT
HETATM    1  C   UNL     1      40.818 -11.686   6.199  1.00  0.00     0.278 C 
HETATM    2  N   UNL     1      41.849 -12.608   6.172  1.00  0.00    -0.322 N 
HETATM    3  O   UNL     1      39.804 -11.716   5.515  1.00  0.00    -0.265 OA
HETATM    4  H   UNL     1      42.636 -12.399   6.781  1.00  0.00     0.169 HD
ENDROOT
BRANCH   2   5
HETATM    5  C   UNL     1      41.928 -13.776   5.389  1.00  0.00     0.035 A 
HETATM    6  C   UNL     1      42.668 -13.868   4.209  1.00  0.00     0.030 A 
HETATM    7  C   UNL     1      42.703 -15.058   3.476  1.00  0.00     0.011 A 
HETATM    8  C   UNL     1      42.014 -16.193   3.921  1.00  0.00    -0.032 A 
HETATM    9  C   UNL     1      41.259 -16.099   5.098  1.00  0.00     0.011 A 
HETATM   10  C   UNL     1      41.213 -14.898   5.818  1.00  0.00     0.030 A 
BRANCH   8  11
HETATM   11  C   UNL     1      42.086 -17.481   3.146  1.00  0.00     0.273 C 
BRANCH  11  12
HETATM   12  N   UNL     1      42.893 -18.555   3.855  1.00  0.00    -0.066 N 
HETATM   13  H   UNL     1      42.279 -18.928   4.589  1.00  0.00     0.280 HD
HETATM   14  C   UNL     1      43.244 -19.709   2.932  1.00  0.00     0.249 C 
HETATM   15  C   UNL     1      43.944 -20.819   3.720  1.00  0.00     0.103 C 
HETATM   16  C   UNL     1      45.163 -20.279   4.472  1.00  0.00     0.017 C 
HETATM   17  C   UNL     1      44.802 -19.070   5.332  1.00  0.00     0.029 C 
HETATM   18  C   UNL     1      44.114 -17.980   4.523  1.00  0.00     0.235 C 
BRANCH  15  19
HETATM   19  C   UNL     1      44.339 -21.908   2.742  1.00  0.00     0.221 C 
HETATM   20  N   UNL     1      44.201 -21.606   1.424  1.00  0.00    -0.370 N 
HETATM   21  H   UNL     1      44.488 -22.308   0.748  1.00  0.00     0.159 HD
HETATM   22  H   UNL     1      43.955 -20.694   1.062  1.00  0.00     0.159 HD
HETATM   23  O   UNL     1      44.765 -22.997   3.105  1.00  0.00    -0.273 OA
ENDBRANCH  15  19
ENDBRANCH  11  12
ENDBRANCH   8  11
ENDBRANCH   2   5
BRANCH   1  24
HETATM   24  C   UNL     1      41.040 -10.617   7.166  1.00  0.00     0.175 C 
HETATM   25  N   UNL     1      41.800  -9.515   6.898  1.00  0.00    -0.152 NA
HETATM   26  N   UNL     1      41.825  -8.766   7.989  1.00  0.00     0.011 NA
HETATM   27  N   UNL     1      41.185  -9.430   8.994  1.00  0.00    -0.231 N 
HETATM   28  C   UNL     1      40.529 -10.511   8.446  1.00  0.00     0.174 C 
BRANCH  27  29
HETATM   29  C   UNL     1      41.333  -8.981  10.335  1.00  0.00     0.058 A 
HETATM   30  C   UNL     1      42.424  -9.441  11.090  1.00  0.00     0.073 A 
HETATM   31  C   UNL     1      42.580  -9.028  12.410  1.00  0.00     0.118 A 
HETATM   32  C   UNL     1      41.663  -8.176  13.009  1.00  0.00     0.042 A 
HETATM   33  F   UNL     1      43.633  -9.462  13.114  1.00  0.00    -0.206 F 
HETATM   34  C   UNL     1      40.562  -7.736  12.279  1.00  0.00     0.005 A 
HETATM   35  C   UNL     1      40.391  -8.140  10.948  1.00  0.00     0.031 A 
ENDBRANCH  27  29
BRANCH  28  36
HETATM   36  C   UNL     1      39.481 -11.289   9.099  1.00  0.00     0.436 C 
HETATM   37  F   UNL     1      38.331 -10.586   9.250  1.00  0.00    -0.165 F 
HETATM   38  F   UNL     1      39.137 -12.386   8.379  1.00  0.00    -0.165 F 
HETATM   39  F   UNL     1      39.857 -11.711  10.328  1.00  0.00    -0.165 F 
ENDBRANCH  28  36
ENDBRANCH   1  24
TORSDOF 7
ENDMDL
MODEL 5
REMARK VINA RESULT:      -8.9      6.137      9.509
REMARK  7 active torsions:
REMARK  status: ('A' for Active; 'I' for Inactive)
REMARK    1  A    between atoms: C_6  and  N_7 
REMARK    2  A    between atoms: C_10  and  C_11 
REMARK       I    between atoms: C_11  and  N_12 
REMARK    3  A    between atoms: N_12  and  C_13 
REMARK    4  A    between atoms: C_16  and  C_17 
REMARK    5  A    between atoms: C_17  and  N_18 
REMARK    6  A    between atoms: C_21  and  C_22 
REMARK       I    between atoms: C_22  and  N_23 
REMARK    7  A    between atoms: C_31  and  C_32 
ROOT
HETATM    1  C   UNL     1      41.041 -14.513   0.582  1.00  0.00     0.278 C 
HETATM    2  N   UNL     1      40.869 -15.870   0.785  1.00  0.00    -0.322 N 
HETATM    3  O   UNL     1      41.964 -13.830   1.007  1.00  0.00    -0.265 OA
HETATM    4  H   UNL     1      40.018 -16.264   0.391  1.00  0.00     0.169 HD
ENDROOT
BRANCH   2   5
HETATM    5  C   UNL     1      41.725 -16.744   1.483  1.00  0.00     0.035 A 
HETATM    6  C   UNL     1      42.987 -17.122   1.024  1.00  0.00     0.030 A 
HETATM    7  C   UNL     1      43.787 -17.997   1.765  1.00  0.00     0.011 A 
HETATM    8  C   UNL     1      43.348 -18.498   2.997  1.00  0.00    -0.032 A 
HETATM    9  C   UNL     1      42.075 -18.131   3.453  1.00  0.00     0.011 A 
HETATM   10  C   UNL     1      41.271 -17.268   2.697  1.00  0.00     0.030 A 
BRANCH   8  11
HETATM   11  C   UNL     1      44.229 -19.411   3.807  1.00  0.00     0.273 C 
BRANCH  11  12
HETATM   12  N   UNL     1      44.398 -18.950   5.244  1.00  0.00    -0.066 N 
HETATM   13  H   UNL     1      45.394 -19.070   5.461  1.00  0.00     0.280 HD
HETATM   14  C   UNL     1      44.075 -17.475   5.413  1.00  0.00     0.249 C 
HETATM   15  C   UNL     1      44.382 -17.030   6.846  1.00  0.00     0.103 C 
HETATM   16  C   UNL     1      43.655 -17.910   7.866  1.00  0.00     0.017 C 
HETATM   17  C   UNL     1      43.931 -19.392   7.626  1.00  0.00     0.029 C 
HETATM   18  C   UNL     1      43.611 -19.809   6.198  1.00  0.00     0.235 C 
BRANCH  15  19
HETATM   19  C   UNL     1      43.972 -15.577   6.981  1.00  0.00     0.221 C 
HETATM   20  N   UNL     1      42.701 -15.277   6.603  1.00  0.00    -0.370 N 
HETATM   21  H   UNL     1      42.392 -14.315   6.712  1.00  0.00     0.159 HD
HETATM   22  H   UNL     1      42.000 -15.957   6.341  1.00  0.00     0.159 HD
HETATM   23  O   UNL     1      44.729 -14.716   7.410  1.00  0.00    -0.273 OA
ENDBRANCH  15  19
ENDBRANCH  11  12
ENDBRANCH   8  11
ENDBRANCH   2   5
BRANCH   1  24
HETATM   24  C   UNL     1      39.984 -13.923  -0.231  1.00  0.00     0.175 C 
HETATM   25  N   UNL     1      38.985 -13.153   0.290  1.00  0.00    -0.152 NA
HETATM   26  N   UNL     1      38.180 -12.808  -0.703  1.00  0.00     0.011 NA
HETATM   27  N   UNL     1      38.586 -13.445  -1.839  1.00  0.00    -0.231 N 
HETATM   28  C   UNL     1      39.823 -14.003  -1.602  1.00  0.00     0.174 C 
BRANCH  27  29
HETATM   29  C   UNL     1      37.721 -13.481  -2.967  1.00  0.00     0.058 A 
HETATM   30  C   UNL     1      37.285 -12.270  -3.529  1.00  0.00     0.073 A 
HETATM   31  C   UNL     1      36.425 -12.281  -4.623  1.00  0.00     0.118 A 
HETATM   32  C   UNL     1      35.970 -13.474  -5.167  1.00  0.00     0.042 A 
HETATM   33  F   UNL     1      36.029 -11.119  -5.160  1.00  0.00    -0.206 F 
HETATM   34  C   UNL     1      36.372 -14.680  -4.601  1.00  0.00     0.005 A 
HETATM   35  C   UNL     1      37.240 -14.687  -3.500  1.00  0.00     0.031 A 
ENDBRANCH  27  29
BRANCH  28  36
HETATM   36  C   UNL     1      40.745 -14.490  -2.622  1.00  0.00     0.436 C 
HETATM   37  F   UNL     1      40.360 -14.145  -3.876  1.00  0.00    -0.165 F 
HETATM   38  F   UNL     1      41.989 -13.971  -2.475  1.00  0.00    -0.165 F 
HETATM   39  F   UNL     1      40.861 -15.838  -2.596  1.00  0.00    -0.165 F 
ENDBRANCH  28  36
ENDBRANCH   1  24
TORSDOF 7
ENDMDL
MODEL 6
REMARK VINA RESULT:      -8.9      3.730     10.728
REMARK  7 active torsions:
REMARK  status: ('A' for Active; 'I' for Inactive)
REMARK    1  A    between atoms: C_6  and  N_7 
REMARK    2  A    between atoms: C_10  and  C_11 
REMARK       I    between atoms: C_11  and  N_12 
REMARK    3  A    between atoms: N_12  and  C_13 
REMARK    4  A    between atoms: C_16  and  C_17 
REMARK    5  A    between atoms: C_17  and  N_18 
REMARK    6  A    between atoms: C_21  and  C_22 
REMARK       I    between atoms: C_22  and  N_23 
REMARK    7  A    between atoms: C_31  and  C_32 
ROOT
HETATM    1  C   UNL     1      41.285 -10.823   7.270  1.00  0.00     0.278 C 
HETATM    2  N   UNL     1      41.090 -12.177   7.063  1.00  0.00    -0.322 N 
HETATM    3  O   UNL     1      41.611 -10.003   6.422  1.00  0.00    -0.265 OA
HETATM    4  H   UNL     1      40.862 -12.715   7.896  1.00  0.00     0.169 HD
ENDROOT
BRANCH   2   5
HETATM    5  C   UNL     1      41.189 -12.877   5.846  1.00  0.00     0.035 A 
HETATM    6  C   UNL     1      42.331 -12.877   5.044  1.00  0.00     0.030 A 
HETATM    7  C   UNL     1      42.363 -13.593   3.843  1.00  0.00     0.011 A 
HETATM    8  C   UNL     1      41.256 -14.344   3.428  1.00  0.00    -0.032 A 
HETATM    9  C   UNL     1      40.104 -14.334   4.224  1.00  0.00     0.011 A 
HETATM   10  C   UNL     1      40.071 -13.601   5.418  1.00  0.00     0.030 A 
BRANCH   8  11
HETATM   11  C   UNL     1      41.311 -15.141   2.152  1.00  0.00     0.273 C 
BRANCH  11  12
HETATM   12  N   UNL     1      42.456 -16.138   2.124  1.00  0.00    -0.066 N 
HETATM   13  H   UNL     1      43.316 -15.578   2.142  1.00  0.00     0.280 HD
HETATM   14  C   UNL     1      42.471 -17.026   3.357  1.00  0.00     0.249 C 
HETATM   15  C   UNL     1      43.712 -17.924   3.344  1.00  0.00     0.103 C 
HETATM   16  C   UNL     1      43.799 -18.726   2.043  1.00  0.00     0.017 C 
HETATM   17  C   UNL     1      43.702 -17.821   0.818  1.00  0.00     0.029 C 
HETATM   18  C   UNL     1      42.458 -16.945   0.852  1.00  0.00     0.235 C 
BRANCH  15  19
HETATM   19  C   UNL     1      43.638 -18.838   4.551  1.00  0.00     0.221 C 
HETATM   20  N   UNL     1      44.592 -19.804   4.628  1.00  0.00    -0.370 N 
HETATM   21  H   UNL     1      44.582 -20.410   5.443  1.00  0.00     0.159 HD
HETATM   22  H   UNL     1      45.383 -19.886   4.004  1.00  0.00     0.159 HD
HETATM   23  O   UNL     1      42.780 -18.720   5.416  1.00  0.00    -0.273 OA
ENDBRANCH  15  19
ENDBRANCH  11  12
ENDBRANCH   8  11
ENDBRANCH   2   5
BRANCH   1  24
HETATM   24  C   UNL     1      41.052 -10.422   8.652  1.00  0.00     0.175 C 
HETATM   25  N   UNL     1      39.839  -9.996   9.111  1.00  0.00    -0.152 NA
HETATM   26  N   UNL     1      39.977  -9.680  10.388  1.00  0.00     0.011 NA
HETATM   27  N   UNL     1      41.293  -9.786  10.728  1.00  0.00    -0.231 N 
HETATM   28  C   UNL     1      41.953 -10.427   9.701  1.00  0.00     0.174 C 
BRANCH  27  29
HETATM   29  C   UNL     1      41.749  -9.218  11.950  1.00  0.00     0.058 A 
HETATM   30  C   UNL     1      41.864 -10.042  13.081  1.00  0.00     0.073 A 
HETATM   31  C   UNL     1      42.292  -9.505  14.292  1.00  0.00     0.118 A 
HETATM   32  C   UNL     1      42.595  -8.156  14.412  1.00  0.00     0.042 A 
HETATM   33  F   UNL     1      42.411 -10.304  15.360  1.00  0.00    -0.206 F 
HETATM   34  C   UNL     1      42.459  -7.325  13.304  1.00  0.00     0.005 A 
HETATM   35  C   UNL     1      42.031  -7.850  12.077  1.00  0.00     0.031 A 
ENDBRANCH  27  29
BRANCH  28  36
HETATM   36  C   UNL     1      43.283 -11.021   9.785  1.00  0.00     0.436 C 
HETATM   37  F   UNL     1      43.347 -12.020  10.700  1.00  0.00    -0.165 F 
HETATM   38  F   UNL     1      43.664 -11.585   8.613  1.00  0.00    -0.165 F 
HETATM   39  F   UNL     1      44.224 -10.108  10.123  1.00  0.00    -0.165 F 
ENDBRANCH  28  36
ENDBRANCH   1  24
TORSDOF 7
ENDMDL
MODEL 7
REMARK VINA RESULT:      -8.8      5.722      9.295
REMARK  7 active torsions:
REMARK  status: ('A' for Active; 'I' for Inactive)
REMARK    1  A    between atoms: C_6  and  N_7 
REMARK    2  A    between atoms: C_10  and  C_11 
REMARK       I    between atoms: C_11  and  N_12 
REMARK    3  A    between atoms: N_12  and  C_13 
REMARK    4  A    between atoms: C_16  and  C_17 
REMARK    5  A    between atoms: C_17  and  N_18 
REMARK    6  A    between atoms: C_21  and  C_22 
REMARK       I    between atoms: C_22  and  N_23 
REMARK    7  A    between atoms: C_31  and  C_32 
ROOT
HETATM    1  C   UNL     1      41.489 -15.333   0.010  1.00  0.00     0.278 C 
HETATM    2  N   UNL     1      41.511 -16.690   0.275  1.00  0.00    -0.322 N 
HETATM    3  O   UNL     1      42.110 -14.469   0.614  1.00  0.00    -0.265 OA
HETATM    4  H   UNL     1      40.896 -17.257  -0.304  1.00  0.00     0.169 HD
ENDROOT
BRANCH   2   5
HETATM    5  C   UNL     1      42.269 -17.355   1.259  1.00  0.00     0.035 A 
HETATM    6  C   UNL     1      43.609 -17.709   1.096  1.00  0.00     0.030 A 
HETATM    7  C   UNL     1      44.304 -18.372   2.112  1.00  0.00     0.011 A 
HETATM    8  C   UNL     1      43.677 -18.676   3.327  1.00  0.00    -0.032 A 
HETATM    9  C   UNL     1      42.327 -18.334   3.487  1.00  0.00     0.011 A 
HETATM   10  C   UNL     1      41.631 -17.686   2.459  1.00  0.00     0.030 A 
BRANCH   8  11
HETATM   11  C   UNL     1      44.441 -19.357   4.430  1.00  0.00     0.273 C 
BRANCH  11  12
HETATM   12  N   UNL     1      44.498 -18.535   5.706  1.00  0.00    -0.066 N 
HETATM   13  H   UNL     1      45.489 -18.503   5.975  1.00  0.00     0.280 HD
HETATM   14  C   UNL     1      44.045 -17.102   5.485  1.00  0.00     0.249 C 
HETATM   15  C   UNL     1      44.240 -16.284   6.764  1.00  0.00     0.103 C 
HETATM   16  C   UNL     1      43.539 -16.943   7.954  1.00  0.00     0.017 C 
HETATM   17  C   UNL     1      43.949 -18.405   8.109  1.00  0.00     0.029 C 
HETATM   18  C   UNL     1      43.738 -19.197   6.826  1.00  0.00     0.235 C 
BRANCH  15  19
HETATM   19  C   UNL     1      43.704 -14.889   6.512  1.00  0.00     0.221 C 
HETATM   20  N   UNL     1      42.360 -14.788   6.333  1.00  0.00    -0.370 N 
HETATM   21  H   UNL     1      41.972 -13.860   6.192  1.00  0.00     0.159 HD
HETATM   22  H   UNL     1      41.702 -15.547   6.453  1.00  0.00     0.159 HD
HETATM   23  O   UNL     1      44.427 -13.901   6.477  1.00  0.00    -0.273 OA
ENDBRANCH  15  19
ENDBRANCH  11  12
ENDBRANCH   8  11
ENDBRANCH   2   5
BRANCH   1  24
HETATM   24  C   UNL     1      40.627 -14.990  -1.115  1.00  0.00     0.175 C 
HETATM   25  N   UNL     1      40.909 -15.340  -2.405  1.00  0.00    -0.152 NA
HETATM   26  N   UNL     1      39.951 -14.850  -3.175  1.00  0.00     0.011 NA
HETATM   27  N   UNL     1      39.116 -14.089  -2.410  1.00  0.00    -0.231 N 
HETATM   28  C   UNL     1      39.421 -14.315  -1.085  1.00  0.00     0.174 C 
BRANCH  27  29
HETATM   29  C   UNL     1      38.189 -13.215  -3.042  1.00  0.00     0.058 A 
HETATM   30  C   UNL     1      37.169 -13.766  -3.835  1.00  0.00     0.073 A 
HETATM   31  C   UNL     1      36.260 -12.930  -4.477  1.00  0.00     0.118 A 
HETATM   32  C   UNL     1      36.350 -11.550  -4.365  1.00  0.00     0.042 A 
HETATM   33  F   UNL     1      35.282 -13.467  -5.217  1.00  0.00    -0.206 F 
HETATM   34  C   UNL     1      37.374 -10.992  -3.605  1.00  0.00     0.005 A 
HETATM   35  C   UNL     1      38.297 -11.819  -2.950  1.00  0.00     0.031 A 
ENDBRANCH  27  29
BRANCH  28  36
HETATM   36  C   UNL     1      38.580 -13.959   0.053  1.00  0.00     0.436 C 
HETATM   37  F   UNL     1      38.692 -12.650   0.390  1.00  0.00    -0.165 F 
HETATM   38  F   UNL     1      37.263 -14.149  -0.207  1.00  0.00    -0.165 F 
HETATM   39  F   UNL     1      38.886 -14.684   1.154  1.00  0.00    -0.165 F 
ENDBRANCH  28  36
ENDBRANCH   1  24
TORSDOF 7
ENDMDL
MODEL 8
REMARK VINA RESULT:      -8.8      4.734      5.818
REMARK  7 active torsions:
REMARK  status: ('A' for Active; 'I' for Inactive)
REMARK    1  A    between atoms: C_6  and  N_7 
REMARK    2  A    between atoms: C_10  and  C_11 
REMARK       I    between atoms: C_11  and  N_12 
REMARK    3  A    between atoms: N_12  and  C_13 
REMARK    4  A    between atoms: C_16  and  C_17 
REMARK    5  A    between atoms: C_17  and  N_18 
REMARK    6  A    between atoms: C_21  and  C_22 
REMARK       I    between atoms: C_22  and  N_23 
REMARK    7  A    between atoms: C_31  and  C_32 
ROOT
HETATM    1  C   UNL     1      39.948 -15.316   2.031  1.00  0.00     0.278 C 
HETATM    2  N   UNL     1      40.303 -13.980   2.073  1.00  0.00    -0.322 N 
HETATM    3  O   UNL     1      38.811 -15.764   2.105  1.00  0.00    -0.265 OA
HETATM    4  H   UNL     1      41.303 -13.795   2.041  1.00  0.00     0.169 HD
ENDROOT
BRANCH   2   5
HETATM    5  C   UNL     1      39.441 -12.871   2.171  1.00  0.00     0.035 A 
HETATM    6  C   UNL     1      39.283 -12.115   3.333  1.00  0.00     0.030 A 
HETATM    7  C   UNL     1      38.408 -11.025   3.366  1.00  0.00     0.011 A 
HETATM    8  C   UNL     1      37.685 -10.654   2.225  1.00  0.00    -0.032 A 
HETATM    9  C   UNL     1      37.831 -11.420   1.061  1.00  0.00     0.011 A 
HETATM   10  C   UNL     1      38.697 -12.522   1.040  1.00  0.00     0.030 A 
BRANCH   8  11
HETATM   11  C   UNL     1      36.772  -9.458   2.256  1.00  0.00     0.273 C 
BRANCH  11  12
HETATM   12  N   UNL     1      35.384  -9.785   2.778  1.00  0.00    -0.066 N 
HETATM   13  H   UNL     1      35.460 -10.711   3.216  1.00  0.00     0.280 HD
HETATM   14  C   UNL     1      34.934  -8.813   3.855  1.00  0.00     0.249 C 
HETATM   15  C   UNL     1      33.589  -9.258   4.437  1.00  0.00     0.103 C 
HETATM   16  C   UNL     1      32.542  -9.438   3.335  1.00  0.00     0.017 C 
HETATM   17  C   UNL     1      33.047 -10.355   2.225  1.00  0.00     0.029 C 
HETATM   18  C   UNL     1      34.380  -9.887   1.659  1.00  0.00     0.235 C 
BRANCH  15  19
HETATM   19  C   UNL     1      33.151  -8.217   5.448  1.00  0.00     0.221 C 
HETATM   20  N   UNL     1      31.904  -8.373   5.967  1.00  0.00    -0.370 N 
HETATM   21  H   UNL     1      31.599  -7.706   6.669  1.00  0.00     0.159 HD
HETATM   22  H   UNL     1      31.306  -9.172   5.802  1.00  0.00     0.159 HD
HETATM   23  O   UNL     1      33.872  -7.288   5.792  1.00  0.00    -0.273 OA
ENDBRANCH  15  19
ENDBRANCH  11  12
ENDBRANCH   8  11
ENDBRANCH   2   5
BRANCH   1  24
HETATM   24  C   UNL     1      41.096 -16.203   1.876  1.00  0.00     0.175 C 
HETATM   25  N   UNL     1      41.757 -16.366   0.692  1.00  0.00    -0.152 NA
HETATM   26  N   UNL     1      42.717 -17.256   0.885  1.00  0.00     0.011 NA
HETATM   27  N   UNL     1      42.608 -17.755   2.150  1.00  0.00    -0.231 N 
HETATM   28  C   UNL     1      41.711 -16.973   2.845  1.00  0.00     0.174 C 
BRANCH  27  29
HETATM   29  C   UNL     1      43.324 -18.932   2.503  1.00  0.00     0.058 A 
HETATM   30  C   UNL     1      43.178 -20.080   1.707  1.00  0.00     0.073 A 
HETATM   31  C   UNL     1      43.855 -21.248   2.043  1.00  0.00     0.118 A 
HETATM   32  C   UNL     1      44.668 -21.311   3.166  1.00  0.00     0.042 A 
HETATM   33  F   UNL     1      43.720 -22.332   1.268  1.00  0.00    -0.206 F 
HETATM   34  C   UNL     1      44.799 -20.187   3.977  1.00  0.00     0.005 A 
HETATM   35  C   UNL     1      44.125 -19.002   3.653  1.00  0.00     0.031 A 
ENDBRANCH  27  29
BRANCH  28  36
HETATM   36  C   UNL     1      41.543 -16.956   4.295  1.00  0.00     0.436 C 
HETATM   37  F   UNL     1      41.109 -18.146   4.780  1.00  0.00    -0.165 F 
HETATM   38  F   UNL     1      42.710 -16.711   4.940  1.00  0.00    -0.165 F 
HETATM   39  F   UNL     1      40.655 -16.015   4.689  1.00  0.00    -0.165 F 
ENDBRANCH  28  36
ENDBRANCH   1  24
TORSDOF 7
ENDMDL
MODEL 9
REMARK VINA RESULT:      -8.8      4.507      5.948
REMARK  7 active torsions:
REMARK  status: ('A' for Active; 'I' for Inactive)
REMARK    1  A    between atoms: C_6  and  N_7 
REMARK    2  A    between atoms: C_10  and  C_11 
REMARK       I    between atoms: C_11  and  N_12 
REMARK    3  A    between atoms: N_12  and  C_13 
REMARK    4  A    between atoms: C_16  and  C_17 
REMARK    5  A    between atoms: C_17  and  N_18 
REMARK    6  A    between atoms: C_21  and  C_22 
REMARK       I    between atoms: C_22  and  N_23 
REMARK    7  A    between atoms: C_31  and  C_32 
ROOT
HETATM    1  C   UNL     1      41.947 -12.753   2.688  1.00  0.00     0.278 C 
HETATM    2  N   UNL     1      40.978 -11.970   3.288  1.00  0.00    -0.322 N 
HETATM    3  O   UNL     1      42.957 -13.190   3.224  1.00  0.00    -0.265 OA
HETATM    4  H   UNL     1      40.227 -11.662   2.675  1.00  0.00     0.169 HD
ENDROOT
BRANCH   2   5
HETATM    5  C   UNL     1      40.933 -11.548   4.631  1.00  0.00     0.035 A 
HETATM    6  C   UNL     1      41.386 -10.301   5.066  1.00  0.00     0.030 A 
HETATM    7  C   UNL     1      41.315  -9.944   6.416  1.00  0.00     0.011 A 
HETATM    8  C   UNL     1      40.768 -10.822   7.361  1.00  0.00    -0.032 A 
HETATM    9  C   UNL     1      40.326 -12.079   6.928  1.00  0.00     0.011 A 
HETATM   10  C   UNL     1      40.416 -12.438   5.577  1.00  0.00     0.030 A 
BRANCH   8  11
HETATM   11  C   UNL     1      40.662 -10.417   8.806  1.00  0.00     0.273 C 
BRANCH  11  12
HETATM   12  N   UNL     1      41.744 -11.033   9.675  1.00  0.00    -0.066 N 
HETATM   13  H   UNL     1      41.506 -12.029   9.756  1.00  0.00     0.280 HD
HETATM   14  C   UNL     1      43.115 -10.950   9.026  1.00  0.00     0.249 C 
HETATM   15  C   UNL     1      44.147 -11.695   9.879  1.00  0.00     0.103 C 
HETATM   16  C   UNL     1      44.149 -11.180  11.320  1.00  0.00     0.017 C 
HETATM   17  C   UNL     1      42.747 -11.197  11.924  1.00  0.00     0.029 C 
HETATM   18  C   UNL     1      41.744 -10.445  11.062  1.00  0.00     0.235 C 
BRANCH  15  19
HETATM   19  C   UNL     1      45.505 -11.517   9.229  1.00  0.00     0.221 C 
HETATM   20  N   UNL     1      45.969 -12.576   8.513  1.00  0.00    -0.370 N 
HETATM   21  H   UNL     1      46.863 -12.470   8.043  1.00  0.00     0.159 HD
HETATM   22  H   UNL     1      45.439 -13.412   8.309  1.00  0.00     0.159 HD
HETATM   23  O   UNL     1      46.153 -10.483   9.329  1.00  0.00    -0.273 OA
ENDBRANCH  15  19
ENDBRANCH  11  12
ENDBRANCH   8  11
ENDBRANCH   2   5
BRANCH   1  24
HETATM   24  C   UNL     1      41.654 -13.043   1.289  1.00  0.00     0.175 C 
HETATM   25  N   UNL     1      42.258 -12.395   0.251  1.00  0.00    -0.152 NA
HETATM   26  N   UNL     1      41.747 -12.868  -0.874  1.00  0.00     0.011 NA
HETATM   27  N   UNL     1      40.736 -13.731  -0.570  1.00  0.00    -0.231 N 
HETATM   28  C   UNL     1      40.785 -13.992   0.782  1.00  0.00     0.174 C 
BRANCH  27  29
HETATM   29  C   UNL     1      39.833 -14.141  -1.590  1.00  0.00     0.058 A 
HETATM   30  C   UNL     1      40.231 -15.149  -2.483  1.00  0.00     0.073 A 
HETATM   31  C   UNL     1      39.372 -15.554  -3.500  1.00  0.00     0.118 A 
HETATM   32  C   UNL     1      38.125 -14.968  -3.664  1.00  0.00     0.042 A 
HETATM   33  F   UNL     1      39.756 -16.527  -4.336  1.00  0.00    -0.206 F 
HETATM   34  C   UNL     1      37.731 -13.949  -2.801  1.00  0.00     0.005 A 
HETATM   35  C   UNL     1      38.583 -13.530  -1.771  1.00  0.00     0.031 A 
ENDBRANCH  27  29
BRANCH  28  36
HETATM   36  C   UNL     1      40.103 -15.088   1.462  1.00  0.00     0.436 C 
HETATM   37  F   UNL     1      40.331 -15.091   2.799  1.00  0.00    -0.165 F 
HETATM   38  F   UNL     1      38.756 -15.012   1.330  1.00  0.00    -0.165 F 
HETATM   39  F   UNL     1      40.491 -16.295   0.988  1.00  0.00    -0.165 F 
ENDBRANCH  28  36
ENDBRANCH   1  24
TORSDOF 7
ENDMDL
MODEL 10
REMARK VINA RESULT:      -8.7      6.071      9.489
REMARK  7 active torsions:
REMARK  status: ('A' for Active; 'I' for Inactive)
REMARK    1  A    between atoms: C_6  and  N_7 
REMARK    2  A    between atoms: C_10  and  C_11 
REMARK       I    between atoms: C_11  and  N_12 
REMARK    3  A    between atoms: N_12  and  C_13 
REMARK    4  A    between atoms: C_16  and  C_17 
REMARK    5  A    between atoms: C_17  and  N_18 
REMARK    6  A    between atoms: C_21  and  C_22 
REMARK       I    between atoms: C_22  and  N_23 
REMARK    7  A    between atoms: C_31  and  C_32 
ROOT
HETATM    1  C   UNL     1      41.038 -15.425  -0.122  1.00  0.00     0.278 C 
HETATM    2  N   UNL     1      42.110 -16.299  -0.103  1.00  0.00    -0.322 N 
HETATM    3  O   UNL     1      40.263 -15.213   0.802  1.00  0.00    -0.265 OA
HETATM    4  H   UNL     1      42.620 -16.379  -0.979  1.00  0.00     0.169 HD
ENDROOT
BRANCH   2   5
HETATM    5  C   UNL     1      42.547 -17.090   0.976  1.00  0.00     0.035 A 
HETATM    6  C   UNL     1      41.704 -17.558   1.985  1.00  0.00     0.030 A 
HETATM    7  C   UNL     1      42.203 -18.338   3.032  1.00  0.00     0.011 A 
HETATM    8  C   UNL     1      43.559 -18.687   3.081  1.00  0.00    -0.032 A 
HETATM    9  C   UNL     1      44.410 -18.207   2.077  1.00  0.00     0.011 A 
HETATM   10  C   UNL     1      43.907 -17.411   1.040  1.00  0.00     0.030 A 
BRANCH   8  11
HETATM   11  C   UNL     1      44.083 -19.557   4.192  1.00  0.00     0.273 C 
BRANCH  11  12
HETATM   12  N   UNL     1      44.305 -18.796   5.487  1.00  0.00    -0.066 N 
HETATM   13  H   UNL     1      45.320 -18.795   5.641  1.00  0.00     0.280 HD
HETATM   14  C   UNL     1      43.865 -17.346   5.381  1.00  0.00     0.249 C 
HETATM   15  C   UNL     1      44.225 -16.591   6.664  1.00  0.00     0.103 C 
HETATM   16  C   UNL     1      43.646 -17.290   7.897  1.00  0.00     0.017 C 
HETATM   17  C   UNL     1      44.036 -18.765   7.940  1.00  0.00     0.029 C 
HETATM   18  C   UNL     1      43.661 -19.493   6.657  1.00  0.00     0.235 C 
BRANCH  15  19
HETATM   19  C   UNL     1      43.698 -15.176   6.535  1.00  0.00     0.221 C 
HETATM   20  N   UNL     1      44.057 -14.312   7.522  1.00  0.00    -0.370 N 
HETATM   21  H   UNL     1      43.741 -13.350   7.443  1.00  0.00     0.159 HD
HETATM   22  H   UNL     1      44.715 -14.520   8.261  1.00  0.00     0.159 HD
HETATM   23  O   UNL     1      42.995 -14.817   5.599  1.00  0.00    -0.273 OA
ENDBRANCH  15  19
ENDBRANCH  11  12
ENDBRANCH   8  11
ENDBRANCH   2   5
BRANCH   1  24
HETATM   24  C   UNL     1      40.898 -14.728  -1.395  1.00  0.00     0.175 C 
HETATM   25  N   UNL     1      40.862 -15.372  -2.598  1.00  0.00    -0.152 NA
HETATM   26  N   UNL     1      40.763 -14.453  -3.546  1.00  0.00     0.011 NA
HETATM   27  N   UNL     1      40.853 -13.219  -2.973  1.00  0.00    -0.231 N 
HETATM   28  C   UNL     1      40.754 -13.369  -1.607  1.00  0.00     0.174 C 
BRANCH  27  29
HETATM   29  C   UNL     1      41.075 -12.080  -3.796  1.00  0.00     0.058 A 
HETATM   30  C   UNL     1      39.977 -11.469  -4.422  1.00  0.00     0.073 A 
HETATM   31  C   UNL     1      40.172 -10.364  -5.245  1.00  0.00     0.118 A 
HETATM   32  C   UNL     1      41.443  -9.857  -5.477  1.00  0.00     0.042 A 
HETATM   33  F   UNL     1      39.115  -9.780  -5.824  1.00  0.00    -0.206 F 
HETATM   34  C   UNL     1      42.542 -10.471  -4.884  1.00  0.00     0.005 A 
HETATM   35  C   UNL     1      42.363 -11.584  -4.051  1.00  0.00     0.031 A 
ENDBRANCH  27  29
BRANCH  28  36
HETATM   36  C   UNL     1      40.484 -12.300  -0.651  1.00  0.00     0.436 C 
HETATM   37  F   UNL     1      39.264 -12.419  -0.071  1.00  0.00    -0.165 F 
HETATM   38  F   UNL     1      41.370 -12.298   0.376  1.00  0.00    -0.165 F 
HETATM   39  F   UNL     1      40.533 -11.079  -1.232  1.00  0.00    -0.165 F 
ENDBRANCH  28  36
ENDBRANCH   1  24
TORSDOF 7
ENDMDL
