MODEL 1
REMARK VINA RESULT:      -9.5      0.000      0.000
REMARK  9 active torsions:
REMARK  status: ('A' for Active; 'I' for Inactive)
REMARK    1  A    between atoms: C_7  and  C_8 
REMARK    2  A    between atoms: C_9  and  O_10 
REMARK    3  A    between atoms: C_13  and  N_14 
REMARK    4  A    between atoms: N_14  and  C_15 
REMARK    5  A    between atoms: C_15  and  N_16 
REMARK       I    between atoms: N_16  and  C_17 
REMARK    6  A    between atoms: C_17  and  C_18 
REMARK    7  A    between atoms: C_20  and  O_21 
REMARK    8  A    between atoms: O_21  and  C_22 
REMARK    9  A    between atoms: C_22  and  C_23 
ROOT
HETATM    1  C   UNL     1      41.284 -14.192   0.949  1.00  0.00     0.052 A 
HETATM    2  C   UNL     1      41.386 -15.507   0.479  1.00  0.00     0.080 A 
HETATM    3  C   UNL     1      40.928 -16.582   1.249  1.00  0.00     0.040 A 
HETATM    4  C   UNL     1      40.360 -16.352   2.505  1.00  0.00     0.032 A 
HETATM    5  C   UNL     1      40.179 -15.049   2.962  1.00  0.00     0.035 A 
HETATM    6  C   UNL     1      40.641 -13.983   2.184  1.00  0.00     0.048 A 
ENDROOT
BRANCH   5   7
HETATM    7  N   UNL     1      39.663 -14.848   4.256  1.00  0.00    -0.333 N 
HETATM    8  H   UNL     1      38.728 -15.217   4.430  1.00  0.00     0.168 HD
BRANCH   7   9
HETATM    9  C   UNL     1      40.306 -14.327   5.349  1.00  0.00     0.179 C 
HETATM   10  S   UNL     1      39.967 -12.880   6.124  1.00  0.00    -0.040 SA
BRANCH   9  11
HETATM   11  N   UNL     1      41.339 -15.076   5.859  1.00  0.00    -0.299 N 
HETATM   12  C   UNL     1      41.306 -16.418   6.208  1.00  0.00     0.257 C 
HETATM   13  O   UNL     1      40.308 -17.026   6.573  1.00  0.00    -0.267 OA
HETATM   14  H   UNL     1      42.236 -14.672   5.623  1.00  0.00     0.171 HD
BRANCH  12  15
HETATM   15  C   UNL     1      42.618 -17.103   6.104  1.00  0.00     0.035 A 
HETATM   16  C   UNL     1      42.730 -18.352   5.479  1.00  0.00     0.053 A 
HETATM   17  C   UNL     1      43.942 -19.040   5.517  1.00  0.00     0.069 A 
HETATM   18  C   UNL     1      45.041 -18.456   6.157  1.00  0.00     0.037 A 
HETATM   19  C   UNL     1      44.939 -17.195   6.749  1.00  0.00     0.004 A 
HETATM   20  C   UNL     1      43.724 -16.513   6.722  1.00  0.00     0.017 A 
BRANCH  17  21
HETATM   21  O   UNL     1      44.175 -20.283   4.999  1.00  0.00    -0.351 OA
BRANCH  21  22
HETATM   22  C   UNL     1      44.821 -20.355   3.726  1.00  0.00     0.179 C 
BRANCH  22  23
HETATM   23  C   UNL     1      43.783 -20.604   2.621  1.00  0.00     0.002 C 
HETATM   24  C   UNL     1      43.505 -19.338   1.813  1.00  0.00     0.011 C 
HETATM   25  C   UNL     1      44.231 -21.734   1.692  1.00  0.00     0.011 C 
ENDBRANCH  22  23
ENDBRANCH  21  22
ENDBRANCH  17  21
ENDBRANCH  12  15
ENDBRANCH   9  11
ENDBRANCH   7   9
ENDBRANCH   5   7
BRANCH   1  26
HETATM   26  C   UNL     1      41.912 -13.053   0.275  1.00  0.00     0.183 A 
HETATM   27  O   UNL     1      41.821 -13.055  -1.100  1.00  0.00    -0.288 OA
HETATM   28  C   UNL     1      42.276 -11.826  -1.475  1.00  0.00     0.112 A 
HETATM   29  C   UNL     1      42.645 -11.152  -0.324  1.00  0.00     0.094 A 
HETATM   30  C   UNL     1      42.331 -11.307  -2.767  1.00  0.00    -0.025 A 
HETATM   31  C   UNL     1      43.112  -9.836  -0.428  1.00  0.00     0.041 A 
HETATM   32  N   UNL     1      42.428 -11.943   0.775  1.00  0.00    -0.221 NA
HETATM   33  C   UNL     1      43.181  -9.246  -1.705  1.00  0.00    -0.059 A 
HETATM   34  C   UNL     1      43.602  -7.812  -1.846  1.00  0.00     0.048 C 
HETATM   35  C   UNL     1      42.785  -9.975  -2.842  1.00  0.00     0.016 A 
HETATM   36  C   UNL     1      41.886 -12.048  -3.986  1.00  0.00     0.051 C 
ENDBRANCH   1  26
BRANCH   2  37
HETATM   37  O   UNL     1      41.940 -15.758  -0.745  1.00  0.00    -0.360 OA
HETATM   38  H   UNL     1      41.395 -15.360  -1.442  1.00  0.00     0.217 HD
ENDBRANCH   2  37
TORSDOF 9
ENDMDL
MODEL 2
REMARK VINA RESULT:      -9.4      1.967      2.743
REMARK  9 active torsions:
REMARK  status: ('A' for Active; 'I' for Inactive)
REMARK    1  A    between atoms: C_7  and  C_8 
REMARK    2  A    between atoms: C_9  and  O_10 
REMARK    3  A    between atoms: C_13  and  N_14 
REMARK    4  A    between atoms: N_14  and  C_15 
REMARK    5  A    between atoms: C_15  and  N_16 
REMARK       I    between atoms: N_16  and  C_17 
REMARK    6  A    between atoms: C_17  and  C_18 
REMARK    7  A    between atoms: C_20  and  O_21 
REMARK    8  A    between atoms: O_21  and  C_22 
REMARK    9  A    between atoms: C_22  and  C_23 
ROOT
HETATM    1  C   UNL     1      41.606 -15.106   2.610  1.00  0.00     0.052 A 
HETATM    2  C   UNL     1      40.912 -16.322   2.582  1.00  0.00     0.080 A 
HETATM    3  C   UNL     1      40.790 -17.105   3.735  1.00  0.00     0.040 A 
HETATM    4  C   UNL     1      41.363 -16.678   4.936  1.00  0.00     0.032 A 
HETATM    5  C   UNL     1      41.993 -15.438   5.007  1.00  0.00     0.035 A 
HETATM    6  C   UNL     1      42.110 -14.665   3.849  1.00  0.00     0.048 A 
ENDROOT
BRANCH   5   7
HETATM    7  N   UNL     1      42.617 -15.061   6.212  1.00  0.00    -0.333 N 
HETATM    8  H   UNL     1      42.001 -14.725   6.952  1.00  0.00     0.168 HD
BRANCH   7   9
HETATM    9  C   UNL     1      43.936 -15.203   6.560  1.00  0.00     0.179 C 
HETATM   10  S   UNL     1      45.038 -13.976   6.856  1.00  0.00    -0.040 SA
BRANCH   9  11
HETATM   11  N   UNL     1      44.397 -16.492   6.674  1.00  0.00    -0.299 N 
HETATM   12  C   UNL     1      43.907 -17.484   7.510  1.00  0.00     0.257 C 
HETATM   13  O   UNL     1      43.344 -17.288   8.579  1.00  0.00    -0.267 OA
HETATM   14  H   UNL     1      44.892 -16.780   5.840  1.00  0.00     0.171 HD
BRANCH  12  15
HETATM   15  C   UNL     1      44.118 -18.863   7.003  1.00  0.00     0.035 A 
HETATM   16  C   UNL     1      44.728 -19.087   5.762  1.00  0.00     0.053 A 
HETATM   17  C   UNL     1      44.787 -20.379   5.242  1.00  0.00     0.069 A 
HETATM   18  C   UNL     1      44.261 -21.441   5.986  1.00  0.00     0.037 A 
HETATM   19  C   UNL     1      43.684 -21.222   7.239  1.00  0.00     0.004 A 
HETATM   20  C   UNL     1      43.613 -19.929   7.753  1.00  0.00     0.017 A 
BRANCH  17  21
HETATM   21  O   UNL     1      45.303 -20.732   4.027  1.00  0.00    -0.351 OA
BRANCH  21  22
HETATM   22  C   UNL     1      45.019 -19.876   2.918  1.00  0.00     0.179 C 
BRANCH  22  23
HETATM   23  C   UNL     1      43.599 -20.145   2.394  1.00  0.00     0.002 C 
HETATM   24  C   UNL     1      43.120 -19.030   1.467  1.00  0.00     0.011 C 
HETATM   25  C   UNL     1      43.526 -21.494   1.677  1.00  0.00     0.011 C 
ENDBRANCH  22  23
ENDBRANCH  21  22
ENDBRANCH  17  21
ENDBRANCH  12  15
ENDBRANCH   9  11
ENDBRANCH   7   9
ENDBRANCH   5   7
BRANCH   1  26
HETATM   26  C   UNL     1      41.926 -14.342   1.402  1.00  0.00     0.183 A 
HETATM   27  O   UNL     1      41.597 -14.952   0.212  1.00  0.00    -0.288 OA
HETATM   28  C   UNL     1      41.787 -13.987  -0.732  1.00  0.00     0.112 A 
HETATM   29  C   UNL     1      42.246 -12.855  -0.081  1.00  0.00     0.094 A 
HETATM   30  C   UNL     1      41.536 -14.085  -2.100  1.00  0.00    -0.025 A 
HETATM   31  C   UNL     1      42.483 -11.693  -0.825  1.00  0.00     0.041 A 
HETATM   32  N   UNL     1      42.349 -13.096   1.265  1.00  0.00    -0.221 NA
HETATM   33  C   UNL     1      42.237 -11.720  -2.210  1.00  0.00    -0.059 A 
HETATM   34  C   UNL     1      42.404 -10.470  -3.025  1.00  0.00     0.048 C 
HETATM   35  C   UNL     1      41.762 -12.897  -2.821  1.00  0.00     0.016 A 
HETATM   36  C   UNL     1      41.001 -15.310  -2.766  1.00  0.00     0.051 C 
ENDBRANCH   1  26
BRANCH   2  37
HETATM   37  O   UNL     1      40.345 -16.762   1.420  1.00  0.00    -0.360 OA
HETATM   38  H   UNL     1      40.895 -16.503   0.664  1.00  0.00     0.217 HD
ENDBRANCH   2  37
TORSDOF 9
ENDMDL
MODEL 3
REMARK VINA RESULT:      -9.1      2.266      8.466
REMARK  9 active torsions:
REMARK  status: ('A' for Active; 'I' for Inactive)
REMARK    1  A    between atoms: C_7  and  C_8 
REMARK    2  A    between atoms: C_9  and  O_10 
REMARK    3  A    between atoms: C_13  and  N_14 
REMARK    4  A    between atoms: N_14  and  C_15 
REMARK    5  A    between atoms: C_15  and  N_16 
REMARK       I    between atoms: N_16  and  C_17 
REMARK    6  A    between atoms: C_17  and  C_18 
REMARK    7  A    between atoms: C_20  and  O_21 
REMARK    8  A    between atoms: O_21  and  C_22 
REMARK    9  A    between atoms: C_22  and  C_23 
ROOT
HETATM    1  C   UNL     1      41.046 -15.735   4.121  1.00  0.00     0.052 A 
HETATM    2  C   UNL     1      40.766 -15.535   5.478  1.00  0.00     0.080 A 
HETATM    3  C   UNL     1      40.102 -14.382   5.912  1.00  0.00     0.040 A 
HETATM    4  C   UNL     1      39.707 -13.411   4.988  1.00  0.00     0.032 A 
HETATM    5  C   UNL     1      39.908 -13.621   3.626  1.00  0.00     0.035 A 
HETATM    6  C   UNL     1      40.573 -14.775   3.204  1.00  0.00     0.048 A 
ENDROOT
BRANCH   5   7
HETATM    7  N   UNL     1      39.559 -12.599   2.722  1.00  0.00    -0.333 N 
HETATM    8  H   UNL     1      38.685 -12.727   2.214  1.00  0.00     0.168 HD
BRANCH   7   9
HETATM    9  C   UNL     1      40.185 -11.395   2.529  1.00  0.00     0.179 C 
HETATM   10  S   UNL     1      40.195 -10.084   3.574  1.00  0.00    -0.040 SA
BRANCH   9  11
HETATM   11  N   UNL     1      40.874 -11.252   1.349  1.00  0.00    -0.299 N 
HETATM   12  C   UNL     1      41.921 -12.039   0.892  1.00  0.00     0.257 C 
HETATM   13  O   UNL     1      42.703 -12.653   1.606  1.00  0.00    -0.267 OA
HETATM   14  H   UNL     1      40.326 -10.750   0.662  1.00  0.00     0.171 HD
BRANCH  12  15
HETATM   15  C   UNL     1      42.036 -12.095  -0.586  1.00  0.00     0.035 A 
HETATM   16  C   UNL     1      41.723 -13.266  -1.289  1.00  0.00     0.053 A 
HETATM   17  C   UNL     1      41.973 -13.340  -2.658  1.00  0.00     0.069 A 
HETATM   18  C   UNL     1      42.507 -12.229  -3.318  1.00  0.00     0.037 A 
HETATM   19  C   UNL     1      42.786 -11.049  -2.624  1.00  0.00     0.004 A 
HETATM   20  C   UNL     1      42.548 -10.978  -1.253  1.00  0.00     0.017 A 
BRANCH  17  21
HETATM   21  O   UNL     1      41.767 -14.433  -3.453  1.00  0.00    -0.351 OA
BRANCH  21  22
HETATM   22  C   UNL     1      40.783 -15.378  -3.030  1.00  0.00     0.179 C 
BRANCH  22  23
HETATM   23  C   UNL     1      39.436 -15.076  -3.706  1.00  0.00     0.002 C 
HETATM   24  C   UNL     1      38.830 -16.328  -4.340  1.00  0.00     0.011 C 
HETATM   25  C   UNL     1      38.450 -14.460  -2.712  1.00  0.00     0.011 C 
ENDBRANCH  22  23
ENDBRANCH  21  22
ENDBRANCH  17  21
ENDBRANCH  12  15
ENDBRANCH   9  11
ENDBRANCH   7   9
ENDBRANCH   5   7
BRANCH   1  26
HETATM   26  C   UNL     1      41.898 -16.822   3.633  1.00  0.00     0.183 A 
HETATM   27  O   UNL     1      42.898 -17.220   4.492  1.00  0.00    -0.288 OA
HETATM   28  C   UNL     1      43.405 -18.352   3.926  1.00  0.00     0.112 A 
HETATM   29  C   UNL     1      42.714 -18.571   2.747  1.00  0.00     0.094 A 
HETATM   30  C   UNL     1      44.406 -19.175   4.440  1.00  0.00    -0.025 A 
HETATM   31  C   UNL     1      43.016 -19.706   1.985  1.00  0.00     0.041 A 
HETATM   32  N   UNL     1      41.777 -17.587   2.562  1.00  0.00    -0.221 NA
HETATM   33  C   UNL     1      44.009 -20.586   2.454  1.00  0.00    -0.059 A 
HETATM   34  C   UNL     1      44.302 -21.853   1.703  1.00  0.00     0.048 C 
HETATM   35  C   UNL     1      44.675 -20.319   3.665  1.00  0.00     0.016 A 
HETATM   36  C   UNL     1      45.104 -18.931   5.738  1.00  0.00     0.051 C 
ENDBRANCH   1  26
BRANCH   2  37
HETATM   37  O   UNL     1      41.143 -16.469   6.402  1.00  0.00    -0.360 OA
HETATM   38  H   UNL     1      42.088 -16.377   6.599  1.00  0.00     0.217 HD
ENDBRANCH   2  37
TORSDOF 9
ENDMDL
MODEL 4
REMARK VINA RESULT:      -9.1      4.859      7.764
REMARK  9 active torsions:
REMARK  status: ('A' for Active; 'I' for Inactive)
REMARK    1  A    between atoms: C_7  and  C_8 
REMARK    2  A    between atoms: C_9  and  O_10 
REMARK    3  A    between atoms: C_13  and  N_14 
REMARK    4  A    between atoms: N_14  and  C_15 
REMARK    5  A    between atoms: C_15  and  N_16 
REMARK       I    between atoms: N_16  and  C_17 
REMARK    6  A    between atoms: C_17  and  C_18 
REMARK    7  A    between atoms: C_20  and  O_21 
REMARK    8  A    between atoms: O_21  and  C_22 
REMARK    9  A    between atoms: C_22  and  C_23 
ROOT
HETATM    1  C   UNL     1      41.417 -10.529   6.813  1.00  0.00     0.052 A 
HETATM    2  C   UNL     1      41.489  -9.403   5.982  1.00  0.00     0.080 A 
HETATM    3  C   UNL     1      41.282  -9.515   4.603  1.00  0.00     0.040 A 
HETATM    4  C   UNL     1      40.999 -10.760   4.035  1.00  0.00     0.032 A 
HETATM    5  C   UNL     1      40.850 -11.881   4.849  1.00  0.00     0.035 A 
HETATM    6  C   UNL     1      41.059 -11.758   6.224  1.00  0.00     0.048 A 
ENDROOT
BRANCH   5   7
HETATM    7  N   UNL     1      40.628 -13.134   4.245  1.00  0.00    -0.333 N 
HETATM    8  H   UNL     1      39.655 -13.382   4.068  1.00  0.00     0.168 HD
BRANCH   7   9
HETATM    9  C   UNL     1      41.561 -14.010   3.755  1.00  0.00     0.179 C 
HETATM   10  S   UNL     1      41.911 -14.315   2.145  1.00  0.00    -0.040 SA
BRANCH   9  11
HETATM   11  N   UNL     1      42.282 -14.713   4.690  1.00  0.00    -0.299 N 
HETATM   12  C   UNL     1      41.785 -15.585   5.648  1.00  0.00     0.257 C 
HETATM   13  O   UNL     1      40.665 -15.525   6.139  1.00  0.00    -0.267 OA
HETATM   14  H   UNL     1      43.244 -14.833   4.398  1.00  0.00     0.171 HD
BRANCH  12  15
HETATM   15  C   UNL     1      42.740 -16.645   6.056  1.00  0.00     0.035 A 
HETATM   16  C   UNL     1      43.507 -17.328   5.104  1.00  0.00     0.053 A 
HETATM   17  C   UNL     1      44.290 -18.413   5.494  1.00  0.00     0.069 A 
HETATM   18  C   UNL     1      44.321 -18.786   6.842  1.00  0.00     0.037 A 
HETATM   19  C   UNL     1      43.584 -18.082   7.797  1.00  0.00     0.004 A 
HETATM   20  C   UNL     1      42.791 -17.005   7.406  1.00  0.00     0.017 A 
BRANCH  17  21
HETATM   21  O   UNL     1      45.042 -19.198   4.666  1.00  0.00    -0.351 OA
BRANCH  21  22
HETATM   22  C   UNL     1      44.446 -20.402   4.179  1.00  0.00     0.179 C 
BRANCH  22  23
HETATM   23  C   UNL     1      44.443 -20.406   2.642  1.00  0.00     0.002 C 
HETATM   24  C   UNL     1      44.363 -21.825   2.083  1.00  0.00     0.011 C 
HETATM   25  C   UNL     1      43.294 -19.558   2.094  1.00  0.00     0.011 C 
ENDBRANCH  22  23
ENDBRANCH  21  22
ENDBRANCH  17  21
ENDBRANCH  12  15
ENDBRANCH   9  11
ENDBRANCH   7   9
ENDBRANCH   5   7
BRANCH   1  26
HETATM   26  C   UNL     1      41.808 -10.505   8.224  1.00  0.00     0.183 A 
HETATM   27  O   UNL     1      43.100 -10.905   8.487  1.00  0.00    -0.288 OA
HETATM   28  C   UNL     1      43.291 -10.601   9.802  1.00  0.00     0.112 A 
HETATM   29  C   UNL     1      42.109 -10.063  10.279  1.00  0.00     0.094 A 
HETATM   30  C   UNL     1      44.463 -10.759  10.541  1.00  0.00    -0.025 A 
HETATM   31  C   UNL     1      42.050  -9.624  11.608  1.00  0.00     0.041 A 
HETATM   32  N   UNL     1      41.172 -10.024   9.279  1.00  0.00    -0.221 NA
HETATM   33  C   UNL     1      43.203  -9.742  12.406  1.00  0.00    -0.059 A 
HETATM   34  C   UNL     1      43.200  -9.209  13.810  1.00  0.00     0.048 C 
HETATM   35  C   UNL     1      44.383 -10.290  11.867  1.00  0.00     0.016 A 
HETATM   36  C   UNL     1      45.736 -11.306   9.983  1.00  0.00     0.051 C 
ENDBRANCH   1  26
BRANCH   2  37
HETATM   37  O   UNL     1      41.766  -8.175   6.513  1.00  0.00    -0.360 OA
HETATM   38  H   UNL     1      40.940  -7.696   6.686  1.00  0.00     0.217 HD
ENDBRANCH   2  37
TORSDOF 9
ENDMDL
MODEL 5
REMARK VINA RESULT:      -8.8      1.170      1.887
REMARK  9 active torsions:
REMARK  status: ('A' for Active; 'I' for Inactive)
REMARK    1  A    between atoms: C_7  and  C_8 
REMARK    2  A    between atoms: C_9  and  O_10 
REMARK    3  A    between atoms: C_13  and  N_14 
REMARK    4  A    between atoms: N_14  and  C_15 
REMARK    5  A    between atoms: C_15  and  N_16 
REMARK       I    between atoms: N_16  and  C_17 
REMARK    6  A    between atoms: C_17  and  C_18 
REMARK    7  A    between atoms: C_20  and  O_21 
REMARK    8  A    between atoms: O_21  and  C_22 
REMARK    9  A    between atoms: C_22  and  C_23 
ROOT
HETATM    1  C   UNL     1      40.829 -14.598   0.493  1.00  0.00     0.052 A 
HETATM    2  C   UNL     1      41.069 -15.963   0.295  1.00  0.00     0.080 A 
HETATM    3  C   UNL     1      41.053 -16.858   1.371  1.00  0.00     0.040 A 
HETATM    4  C   UNL     1      40.796 -16.395   2.664  1.00  0.00     0.032 A 
HETATM    5  C   UNL     1      40.482 -15.055   2.876  1.00  0.00     0.035 A 
HETATM    6  C   UNL     1      40.501 -14.170   1.795  1.00  0.00     0.048 A 
ENDROOT
BRANCH   5   7
HETATM    7  N   UNL     1      40.290 -14.603   4.196  1.00  0.00    -0.333 N 
HETATM    8  H   UNL     1      39.362 -14.750   4.591  1.00  0.00     0.168 HD
BRANCH   7   9
HETATM    9  C   UNL     1      41.228 -14.100   5.060  1.00  0.00     0.179 C 
HETATM   10  S   UNL     1      41.671 -12.495   5.245  1.00  0.00    -0.040 SA
BRANCH   9  11
HETATM   11  N   UNL     1      41.872 -15.016   5.855  1.00  0.00    -0.299 N 
HETATM   12  C   UNL     1      41.385 -16.243   6.282  1.00  0.00     0.257 C 
HETATM   13  O   UNL     1      40.201 -16.513   6.439  1.00  0.00    -0.267 OA
HETATM   14  H   UNL     1      42.876 -14.897   5.814  1.00  0.00     0.171 HD
BRANCH  12  15
HETATM   15  C   UNL     1      42.437 -17.255   6.546  1.00  0.00     0.035 A 
HETATM   16  C   UNL     1      42.760 -18.224   5.587  1.00  0.00     0.053 A 
HETATM   17  C   UNL     1      43.649 -19.248   5.910  1.00  0.00     0.069 A 
HETATM   18  C   UNL     1      44.230 -19.275   7.182  1.00  0.00     0.037 A 
HETATM   19  C   UNL     1      43.935 -18.289   8.126  1.00  0.00     0.004 A 
HETATM   20  C   UNL     1      43.037 -17.272   7.809  1.00  0.00     0.017 A 
BRANCH  17  21
HETATM   21  O   UNL     1      44.010 -20.283   5.093  1.00  0.00    -0.351 OA
BRANCH  21  22
HETATM   22  C   UNL     1      45.072 -20.050   4.166  1.00  0.00     0.179 C 
BRANCH  22  23
HETATM   23  C   UNL     1      44.646 -20.492   2.756  1.00  0.00     0.002 C 
HETATM   24  C   UNL     1      44.230 -21.961   2.727  1.00  0.00     0.011 C 
HETATM   25  C   UNL     1      43.512 -19.613   2.225  1.00  0.00     0.011 C 
ENDBRANCH  22  23
ENDBRANCH  21  22
ENDBRANCH  17  21
ENDBRANCH  12  15
ENDBRANCH   9  11
ENDBRANCH   7   9
ENDBRANCH   5   7
BRANCH   1  26
HETATM   26  C   UNL     1      41.018 -13.594  -0.556  1.00  0.00     0.183 A 
HETATM   27  O   UNL     1      41.675 -12.447  -0.167  1.00  0.00    -0.288 OA
HETATM   28  C   UNL     1      41.913 -11.778  -1.330  1.00  0.00     0.112 A 
HETATM   29  C   UNL     1      41.372 -12.528  -2.359  1.00  0.00     0.094 A 
HETATM   30  C   UNL     1      42.607 -10.578  -1.485  1.00  0.00    -0.025 A 
HETATM   31  C   UNL     1      41.518 -12.079  -3.677  1.00  0.00     0.041 A 
HETATM   32  N   UNL     1      40.792 -13.665  -1.857  1.00  0.00    -0.221 NA
HETATM   33  C   UNL     1      42.220 -10.880  -3.905  1.00  0.00    -0.059 A 
HETATM   34  C   UNL     1      42.465 -10.410  -5.309  1.00  0.00     0.048 C 
HETATM   35  C   UNL     1      42.758 -10.160  -2.821  1.00  0.00     0.016 A 
HETATM   36  C   UNL     1      43.216  -9.813  -0.355  1.00  0.00     0.051 C 
ENDBRANCH   1  26
BRANCH   2  37
HETATM   37  O   UNL     1      41.324 -16.441  -0.960  1.00  0.00    -0.360 OA
HETATM   38  H   UNL     1      41.170 -15.744  -1.616  1.00  0.00     0.217 HD
ENDBRANCH   2  37
TORSDOF 9
ENDMDL
MODEL 6
REMARK VINA RESULT:      -8.8      5.410      9.425
REMARK  9 active torsions:
REMARK  status: ('A' for Active; 'I' for Inactive)
REMARK    1  A    between atoms: C_7  and  C_8 
REMARK    2  A    between atoms: C_9  and  O_10 
REMARK    3  A    between atoms: C_13  and  N_14 
REMARK    4  A    between atoms: N_14  and  C_15 
REMARK    5  A    between atoms: C_15  and  N_16 
REMARK       I    between atoms: N_16  and  C_17 
REMARK    6  A    between atoms: C_17  and  C_18 
REMARK    7  A    between atoms: C_20  and  O_21 
REMARK    8  A    between atoms: O_21  and  C_22 
REMARK    9  A    between atoms: C_22  and  C_23 
ROOT
HETATM    1  C   UNL     1      41.430 -15.706   3.292  1.00  0.00     0.052 A 
HETATM    2  C   UNL     1      40.318 -15.391   2.500  1.00  0.00     0.080 A 
HETATM    3  C   UNL     1      39.443 -14.363   2.868  1.00  0.00     0.040 A 
HETATM    4  C   UNL     1      39.672 -13.633   4.037  1.00  0.00     0.032 A 
HETATM    5  C   UNL     1      40.811 -13.877   4.801  1.00  0.00     0.035 A 
HETATM    6  C   UNL     1      41.677 -14.906   4.425  1.00  0.00     0.048 A 
ENDROOT
BRANCH   5   7
HETATM    7  N   UNL     1      40.983 -13.171   6.007  1.00  0.00    -0.333 N 
HETATM    8  H   UNL     1      40.790 -13.689   6.863  1.00  0.00     0.168 HD
BRANCH   7   9
HETATM    9  C   UNL     1      41.495 -11.911   6.181  1.00  0.00     0.179 C 
HETATM   10  S   UNL     1      41.269 -10.583   5.184  1.00  0.00    -0.040 SA
BRANCH   9  11
HETATM   11  N   UNL     1      42.279 -11.724   7.294  1.00  0.00    -0.299 N 
HETATM   12  C   UNL     1      42.248 -10.647   8.168  1.00  0.00     0.257 C 
HETATM   13  O   UNL     1      41.899  -9.511   7.872  1.00  0.00    -0.267 OA
HETATM   14  H   UNL     1      42.638 -12.604   7.643  1.00  0.00     0.171 HD
BRANCH  12  15
HETATM   15  C   UNL     1      42.682 -10.974   9.548  1.00  0.00     0.035 A 
HETATM   16  C   UNL     1      41.820 -10.786  10.637  1.00  0.00     0.053 A 
HETATM   17  C   UNL     1      42.295 -10.966  11.936  1.00  0.00     0.069 A 
HETATM   18  C   UNL     1      43.623 -11.360  12.131  1.00  0.00     0.037 A 
HETATM   19  C   UNL     1      44.472 -11.581  11.044  1.00  0.00     0.004 A 
HETATM   20  C   UNL     1      44.002 -11.390   9.747  1.00  0.00     0.017 A 
BRANCH  17  21
HETATM   21  O   UNL     1      41.582 -10.766  13.084  1.00  0.00    -0.351 OA
BRANCH  21  22
HETATM   22  C   UNL     1      42.308 -10.378  14.251  1.00  0.00     0.179 C 
BRANCH  22  23
HETATM   23  C   UNL     1      41.663  -9.135  14.885  1.00  0.00     0.002 C 
HETATM   24  C   UNL     1      42.059  -8.982  16.353  1.00  0.00     0.011 C 
HETATM   25  C   UNL     1      42.028  -7.870  14.107  1.00  0.00     0.011 C 
ENDBRANCH  22  23
ENDBRANCH  21  22
ENDBRANCH  17  21
ENDBRANCH  12  15
ENDBRANCH   9  11
ENDBRANCH   7   9
ENDBRANCH   5   7
BRANCH   1  26
HETATM   26  C   UNL     1      42.267 -16.885   3.060  1.00  0.00     0.183 A 
HETATM   27  O   UNL     1      43.081 -17.249   4.110  1.00  0.00    -0.288 OA
HETATM   28  C   UNL     1      43.588 -18.460   3.746  1.00  0.00     0.112 A 
HETATM   29  C   UNL     1      43.085 -18.761   2.492  1.00  0.00     0.094 A 
HETATM   30  C   UNL     1      44.427 -19.282   4.497  1.00  0.00    -0.025 A 
HETATM   31  C   UNL     1      43.422 -19.985   1.901  1.00  0.00     0.041 A 
HETATM   32  N   UNL     1      42.266 -17.750   2.059  1.00  0.00    -0.221 NA
HETATM   33  C   UNL     1      44.256 -20.868   2.612  1.00  0.00    -0.059 A 
HETATM   34  C   UNL     1      44.573 -22.221   2.043  1.00  0.00     0.048 C 
HETATM   35  C   UNL     1      44.733 -20.515   3.889  1.00  0.00     0.016 A 
HETATM   36  C   UNL     1      44.920 -18.945   5.867  1.00  0.00     0.051 C 
ENDBRANCH   1  26
BRANCH   2  37
HETATM   37  O   UNL     1      40.072 -16.092   1.353  1.00  0.00    -0.360 OA
HETATM   38  H   UNL     1      39.246 -15.784   0.948  1.00  0.00     0.217 HD
ENDBRANCH   2  37
TORSDOF 9
ENDMDL
MODEL 7
REMARK VINA RESULT:      -8.6      4.946      9.116
REMARK  9 active torsions:
REMARK  status: ('A' for Active; 'I' for Inactive)
REMARK    1  A    between atoms: C_7  and  C_8 
REMARK    2  A    between atoms: C_9  and  O_10 
REMARK    3  A    between atoms: C_13  and  N_14 
REMARK    4  A    between atoms: N_14  and  C_15 
REMARK    5  A    between atoms: C_15  and  N_16 
REMARK       I    between atoms: N_16  and  C_17 
REMARK    6  A    between atoms: C_17  and  C_18 
REMARK    7  A    between atoms: C_20  and  O_21 
REMARK    8  A    between atoms: O_21  and  C_22 
REMARK    9  A    between atoms: C_22  and  C_23 
ROOT
HETATM    1  C   UNL     1      42.700 -15.029   2.185  1.00  0.00     0.052 A 
HETATM    2  C   UNL     1      42.018 -14.590   1.043  1.00  0.00     0.080 A 
HETATM    3  C   UNL     1      41.347 -13.362   1.035  1.00  0.00     0.040 A 
HETATM    4  C   UNL     1      41.351 -12.554   2.175  1.00  0.00     0.032 A 
HETATM    5  C   UNL     1      42.083 -12.934   3.297  1.00  0.00     0.035 A 
HETATM    6  C   UNL     1      42.748 -14.162   3.294  1.00  0.00     0.048 A 
ENDROOT
BRANCH   5   7
HETATM    7  N   UNL     1      42.018 -12.133   4.453  1.00  0.00    -0.333 N 
HETATM    8  H   UNL     1      42.481 -11.226   4.399  1.00  0.00     0.168 HD
BRANCH   7   9
HETATM    9  C   UNL     1      41.307 -12.366   5.602  1.00  0.00     0.179 C 
HETATM   10  S   UNL     1      40.052 -13.457   5.807  1.00  0.00    -0.040 SA
BRANCH   9  11
HETATM   11  N   UNL     1      41.666 -11.621   6.699  1.00  0.00    -0.299 N 
HETATM   12  C   UNL     1      41.584 -10.243   6.838  1.00  0.00     0.257 C 
HETATM   13  O   UNL     1      41.643  -9.439   5.917  1.00  0.00    -0.267 OA
HETATM   14  H   UNL     1      41.657 -12.181   7.542  1.00  0.00     0.171 HD
BRANCH  12  15
HETATM   15  C   UNL     1      41.410  -9.784   8.238  1.00  0.00     0.035 A 
HETATM   16  C   UNL     1      41.564 -10.673   9.311  1.00  0.00     0.053 A 
HETATM   17  C   UNL     1      41.258 -10.256  10.605  1.00  0.00     0.069 A 
HETATM   18  C   UNL     1      40.828  -8.942  10.817  1.00  0.00     0.037 A 
HETATM   19  C   UNL     1      40.708  -8.046   9.753  1.00  0.00     0.004 A 
HETATM   20  C   UNL     1      41.002  -8.466   8.457  1.00  0.00     0.017 A 
BRANCH  17  21
HETATM   21  O   UNL     1      41.311 -11.030  11.730  1.00  0.00    -0.351 OA
BRANCH  21  22
HETATM   22  C   UNL     1      42.601 -11.307  12.278  1.00  0.00     0.179 C 
BRANCH  22  23
HETATM   23  C   UNL     1      42.762 -10.599  13.633  1.00  0.00     0.002 C 
HETATM   24  C   UNL     1      43.536  -9.289  13.496  1.00  0.00     0.011 C 
HETATM   25  C   UNL     1      41.401 -10.340  14.282  1.00  0.00     0.011 C 
ENDBRANCH  22  23
ENDBRANCH  21  22
ENDBRANCH  17  21
ENDBRANCH  12  15
ENDBRANCH   9  11
ENDBRANCH   7   9
ENDBRANCH   5   7
BRANCH   1  26
HETATM   26  C   UNL     1      43.255 -16.378   2.314  1.00  0.00     0.183 A 
HETATM   27  O   UNL     1      43.701 -16.717   3.573  1.00  0.00    -0.288 OA
HETATM   28  C   UNL     1      43.966 -18.051   3.494  1.00  0.00     0.112 A 
HETATM   29  C   UNL     1      43.698 -18.452   2.197  1.00  0.00     0.094 A 
HETATM   30  C   UNL     1      44.392 -18.887   4.526  1.00  0.00    -0.025 A 
HETATM   31  C   UNL     1      43.851 -19.802   1.859  1.00  0.00     0.041 A 
HETATM   32  N   UNL     1      43.267 -17.383   1.454  1.00  0.00    -0.221 NA
HETATM   33  C   UNL     1      44.265 -20.703   2.857  1.00  0.00    -0.059 A 
HETATM   34  C   UNL     1      44.362 -22.169   2.550  1.00  0.00     0.048 C 
HETATM   35  C   UNL     1      44.517 -20.243   4.164  1.00  0.00     0.016 A 
HETATM   36  C   UNL     1      44.633 -18.430   5.927  1.00  0.00     0.051 C 
ENDBRANCH   1  26
BRANCH   2  37
HETATM   37  O   UNL     1      41.998 -15.363  -0.084  1.00  0.00    -0.360 OA
HETATM   38  H   UNL     1      42.391 -16.230   0.103  1.00  0.00     0.217 HD
ENDBRANCH   2  37
TORSDOF 9
ENDMDL
MODEL 8
REMARK VINA RESULT:      -8.6      2.713      8.308
REMARK  9 active torsions:
REMARK  status: ('A' for Active; 'I' for Inactive)
REMARK    1  A    between atoms: C_7  and  C_8 
REMARK    2  A    between atoms: C_9  and  O_10 
REMARK    3  A    between atoms: C_13  and  N_14 
REMARK    4  A    between atoms: N_14  and  C_15 
REMARK    5  A    between atoms: C_15  and  N_16 
REMARK       I    between atoms: N_16  and  C_17 
REMARK    6  A    between atoms: C_17  and  C_18 
REMARK    7  A    between atoms: C_20  and  O_21 
REMARK    8  A    between atoms: O_21  and  C_22 
REMARK    9  A    between atoms: C_22  and  C_23 
ROOT
HETATM    1  C   UNL     1      42.560 -15.723   5.817  1.00  0.00     0.052 A 
HETATM    2  C   UNL     1      43.496 -14.777   6.253  1.00  0.00     0.080 A 
HETATM    3  C   UNL     1      43.172 -13.417   6.302  1.00  0.00     0.040 A 
HETATM    4  C   UNL     1      41.901 -12.985   5.914  1.00  0.00     0.032 A 
HETATM    5  C   UNL     1      40.929 -13.914   5.549  1.00  0.00     0.035 A 
HETATM    6  C   UNL     1      41.265 -15.269   5.503  1.00  0.00     0.048 A 
ENDROOT
BRANCH   5   7
HETATM    7  N   UNL     1      39.678 -13.448   5.102  1.00  0.00    -0.333 N 
HETATM    8  H   UNL     1      38.871 -13.720   5.662  1.00  0.00     0.168 HD
BRANCH   7   9
HETATM    9  C   UNL     1      39.420 -12.573   4.079  1.00  0.00     0.179 C 
HETATM   10  S   UNL     1      38.762 -11.037   4.207  1.00  0.00    -0.040 SA
BRANCH   9  11
HETATM   11  N   UNL     1      39.735 -13.008   2.815  1.00  0.00    -0.299 N 
HETATM   12  C   UNL     1      40.984 -12.988   2.210  1.00  0.00     0.257 C 
HETATM   13  O   UNL     1      41.877 -12.191   2.467  1.00  0.00    -0.267 OA
HETATM   14  H   UNL     1      39.061 -13.684   2.480  1.00  0.00     0.171 HD
BRANCH  12  15
HETATM   15  C   UNL     1      41.179 -14.045   1.187  1.00  0.00     0.035 A 
HETATM   16  C   UNL     1      40.948 -13.783  -0.170  1.00  0.00     0.053 A 
HETATM   17  C   UNL     1      41.000 -14.825  -1.095  1.00  0.00     0.069 A 
HETATM   18  C   UNL     1      41.312 -16.116  -0.656  1.00  0.00     0.037 A 
HETATM   19  C   UNL     1      41.577 -16.370   0.692  1.00  0.00     0.004 A 
HETATM   20  C   UNL     1      41.513 -15.332   1.619  1.00  0.00     0.017 A 
BRANCH  17  21
HETATM   21  O   UNL     1      40.745 -14.722  -2.434  1.00  0.00    -0.351 OA
BRANCH  21  22
HETATM   22  C   UNL     1      39.526 -14.089  -2.825  1.00  0.00     0.179 C 
BRANCH  22  23
HETATM   23  C   UNL     1      38.751 -14.994  -3.797  1.00  0.00     0.002 C 
HETATM   24  C   UNL     1      39.357 -16.394  -3.869  1.00  0.00     0.011 C 
HETATM   25  C   UNL     1      37.274 -15.079  -3.407  1.00  0.00     0.011 C 
ENDBRANCH  22  23
ENDBRANCH  21  22
ENDBRANCH  17  21
ENDBRANCH  12  15
ENDBRANCH   9  11
ENDBRANCH   7   9
ENDBRANCH   5   7
BRANCH   1  26
HETATM   26  C   UNL     1      42.901 -17.126   5.567  1.00  0.00     0.183 A 
HETATM   27  O   UNL     1      43.025 -17.477   4.241  1.00  0.00    -0.288 OA
HETATM   28  C   UNL     1      43.541 -18.738   4.268  1.00  0.00     0.112 A 
HETATM   29  C   UNL     1      43.678 -19.102   5.596  1.00  0.00     0.094 A 
HETATM   30  C   UNL     1      43.907 -19.522   3.174  1.00  0.00    -0.025 A 
HETATM   31  C   UNL     1      44.232 -20.350   5.904  1.00  0.00     0.041 A 
HETATM   32  N   UNL     1      43.253 -18.083   6.409  1.00  0.00    -0.221 NA
HETATM   33  C   UNL     1      44.636 -21.186   4.846  1.00  0.00    -0.059 A 
HETATM   34  C   UNL     1      45.306 -22.497   5.140  1.00  0.00     0.048 C 
HETATM   35  C   UNL     1      44.481 -20.763   3.512  1.00  0.00     0.016 A 
HETATM   36  C   UNL     1      43.783 -19.082   1.752  1.00  0.00     0.051 C 
ENDBRANCH   1  26
BRANCH   2  37
HETATM   37  O   UNL     1      44.747 -15.173   6.635  1.00  0.00    -0.360 OA
HETATM   38  H   UNL     1      44.905 -14.923   7.559  1.00  0.00     0.217 HD
ENDBRANCH   2  37
TORSDOF 9
ENDMDL
MODEL 9
REMARK VINA RESULT:      -8.4      5.103      9.074
REMARK  9 active torsions:
REMARK  status: ('A' for Active; 'I' for Inactive)
REMARK    1  A    between atoms: C_7  and  C_8 
REMARK    2  A    between atoms: C_9  and  O_10 
REMARK    3  A    between atoms: C_13  and  N_14 
REMARK    4  A    between atoms: N_14  and  C_15 
REMARK    5  A    between atoms: C_15  and  N_16 
REMARK       I    between atoms: N_16  and  C_17 
REMARK    6  A    between atoms: C_17  and  C_18 
REMARK    7  A    between atoms: C_20  and  O_21 
REMARK    8  A    between atoms: O_21  and  C_22 
REMARK    9  A    between atoms: C_22  and  C_23 
ROOT
HETATM    1  C   UNL     1      45.010 -12.906   8.550  1.00  0.00     0.052 A 
HETATM    2  C   UNL     1      46.032 -11.949   8.485  1.00  0.00     0.080 A 
HETATM    3  C   UNL     1      46.212 -11.020   9.515  1.00  0.00     0.040 A 
HETATM    4  C   UNL     1      45.368 -11.037  10.629  1.00  0.00     0.032 A 
HETATM    5  C   UNL     1      44.393 -12.024  10.751  1.00  0.00     0.035 A 
HETATM    6  C   UNL     1      44.222 -12.946   9.716  1.00  0.00     0.048 A 
ENDROOT
BRANCH   5   7
HETATM    7  N   UNL     1      43.515 -11.979  11.852  1.00  0.00    -0.333 N 
HETATM    8  H   UNL     1      43.791 -12.521  12.670  1.00  0.00     0.168 HD
BRANCH   7   9
HETATM    9  C   UNL     1      42.397 -11.201  12.008  1.00  0.00     0.179 C 
HETATM   10  S   UNL     1      41.760 -10.627  13.448  1.00  0.00    -0.040 SA
BRANCH   9  11
HETATM   11  N   UNL     1      41.730 -10.860  10.856  1.00  0.00    -0.299 N 
HETATM   12  C   UNL     1      41.722  -9.622  10.229  1.00  0.00     0.257 C 
HETATM   13  O   UNL     1      41.883  -8.548  10.794  1.00  0.00    -0.267 OA
HETATM   14  H   UNL     1      41.534 -11.676  10.290  1.00  0.00     0.171 HD
BRANCH  12  15
HETATM   15  C   UNL     1      41.498  -9.686   8.764  1.00  0.00     0.035 A 
HETATM   16  C   UNL     1      41.551 -10.908   8.081  1.00  0.00     0.053 A 
HETATM   17  C   UNL     1      41.478 -10.928   6.689  1.00  0.00     0.069 A 
HETATM   18  C   UNL     1      41.323  -9.723   5.995  1.00  0.00     0.037 A 
HETATM   19  C   UNL     1      41.235  -8.508   6.678  1.00  0.00     0.004 A 
HETATM   20  C   UNL     1      41.320  -8.487   8.069  1.00  0.00     0.017 A 
BRANCH  17  21
HETATM   21  O   UNL     1      41.571 -12.037   5.897  1.00  0.00    -0.351 OA
BRANCH  21  22
HETATM   22  C   UNL     1      41.422 -11.855   4.488  1.00  0.00     0.179 C 
BRANCH  22  23
HETATM   23  C   UNL     1      40.308 -12.768   3.952  1.00  0.00     0.002 C 
HETATM   24  C   UNL     1      39.992 -13.902   4.926  1.00  0.00     0.011 C 
HETATM   25  C   UNL     1      39.041 -11.966   3.648  1.00  0.00     0.011 C 
ENDBRANCH  22  23
ENDBRANCH  21  22
ENDBRANCH  17  21
ENDBRANCH  12  15
ENDBRANCH   9  11
ENDBRANCH   7   9
ENDBRANCH   5   7
BRANCH   1  26
HETATM   26  C   UNL     1      44.658 -13.774   7.424  1.00  0.00     0.183 A 
HETATM   27  O   UNL     1      44.249 -15.046   7.764  1.00  0.00    -0.288 OA
HETATM   28  C   UNL     1      43.784 -15.578   6.598  1.00  0.00     0.112 A 
HETATM   29  C   UNL     1      43.955 -14.625   5.610  1.00  0.00     0.094 A 
HETATM   30  C   UNL     1      43.203 -16.833   6.418  1.00  0.00    -0.025 A 
HETATM   31  C   UNL     1      43.515 -14.908   4.311  1.00  0.00     0.041 A 
HETATM   32  N   UNL     1      44.526 -13.496   6.139  1.00  0.00    -0.221 NA
HETATM   33  C   UNL     1      42.907 -16.153   4.063  1.00  0.00    -0.059 A 
HETATM   34  C   UNL     1      42.352 -16.458   2.702  1.00  0.00     0.048 C 
HETATM   35  C   UNL     1      42.750 -17.083   5.109  1.00  0.00     0.016 A 
HETATM   36  C   UNL     1      42.996 -17.823   7.517  1.00  0.00     0.051 C 
ENDBRANCH   1  26
BRANCH   2  37
HETATM   37  O   UNL     1      46.869 -11.912   7.405  1.00  0.00    -0.360 OA
HETATM   38  H   UNL     1      47.471 -11.155   7.480  1.00  0.00     0.217 HD
ENDBRANCH   2  37
TORSDOF 9
ENDMDL
MODEL 10
REMARK VINA RESULT:      -8.3      4.515      8.433
REMARK  9 active torsions:
REMARK  status: ('A' for Active; 'I' for Inactive)
REMARK    1  A    between atoms: C_7  and  C_8 
REMARK    2  A    between atoms: C_9  and  O_10 
REMARK    3  A    between atoms: C_13  and  N_14 
REMARK    4  A    between atoms: N_14  and  C_15 
REMARK    5  A    between atoms: C_15  and  N_16 
REMARK       I    between atoms: N_16  and  C_17 
REMARK    6  A    between atoms: C_17  and  C_18 
REMARK    7  A    between atoms: C_20  and  O_21 
REMARK    8  A    between atoms: O_21  and  C_22 
REMARK    9  A    between atoms: C_22  and  C_23 
ROOT
HETATM    1  C   UNL     1      41.333 -14.260   4.515  1.00  0.00     0.052 A 
HETATM    2  C   UNL     1      40.636 -13.967   3.336  1.00  0.00     0.080 A 
HETATM    3  C   UNL     1      39.634 -12.991   3.319  1.00  0.00     0.040 A 
HETATM    4  C   UNL     1      39.316 -12.293   4.487  1.00  0.00     0.032 A 
HETATM    5  C   UNL     1      40.045 -12.514   5.653  1.00  0.00     0.035 A 
HETATM    6  C   UNL     1      41.043 -13.491   5.659  1.00  0.00     0.048 A 
ENDROOT
BRANCH   5   7
HETATM    7  N   UNL     1      39.661 -11.844   6.831  1.00  0.00    -0.333 N 
HETATM    8  H   UNL     1      39.263 -12.424   7.569  1.00  0.00     0.168 HD
BRANCH   7   9
HETATM    9  C   UNL     1      39.869 -10.529   7.159  1.00  0.00     0.179 C 
HETATM   10  S   UNL     1      39.319  -9.183   6.326  1.00  0.00    -0.040 SA
BRANCH   9  11
HETATM   11  N   UNL     1      40.609 -10.296   8.293  1.00  0.00    -0.299 N 
HETATM   12  C   UNL     1      40.168 -10.354   9.607  1.00  0.00     0.257 C 
HETATM   13  O   UNL     1      39.017 -10.148   9.971  1.00  0.00    -0.267 OA
HETATM   14  H   UNL     1      41.597 -10.435   8.121  1.00  0.00     0.171 HD
BRANCH  12  15
HETATM   15  C   UNL     1      41.226 -10.699  10.587  1.00  0.00     0.035 A 
HETATM   16  C   UNL     1      42.556 -10.867  10.180  1.00  0.00     0.053 A 
HETATM   17  C   UNL     1      43.506 -11.328  11.091  1.00  0.00     0.069 A 
HETATM   18  C   UNL     1      43.120 -11.588  12.410  1.00  0.00     0.037 A 
HETATM   19  C   UNL     1      41.802 -11.387  12.825  1.00  0.00     0.004 A 
HETATM   20  C   UNL     1      40.850 -10.937  11.912  1.00  0.00     0.017 A 
BRANCH  17  21
HETATM   21  O   UNL     1      44.820 -11.587  10.817  1.00  0.00    -0.351 OA
BRANCH  21  22
HETATM   22  C   UNL     1      45.309 -11.214   9.527  1.00  0.00     0.179 C 
BRANCH  22  23
HETATM   23  C   UNL     1      45.827 -12.454   8.781  1.00  0.00     0.002 C 
HETATM   24  C   UNL     1      44.708 -13.163   8.021  1.00  0.00     0.011 C 
HETATM   25  C   UNL     1      46.961 -12.084   7.823  1.00  0.00     0.011 C 
ENDBRANCH  22  23
ENDBRANCH  21  22
ENDBRANCH  17  21
ENDBRANCH  12  15
ENDBRANCH   9  11
ENDBRANCH   7   9
ENDBRANCH   5   7
BRANCH   1  26
HETATM   26  C   UNL     1      42.253 -15.393   4.637  1.00  0.00     0.183 A 
HETATM   27  O   UNL     1      42.536 -15.790   5.926  1.00  0.00    -0.288 OA
HETATM   28  C   UNL     1      43.221 -16.959   5.781  1.00  0.00     0.112 A 
HETATM   29  C   UNL     1      43.345 -17.202   4.425  1.00  0.00     0.094 A 
HETATM   30  C   UNL     1      43.686 -17.794   6.797  1.00  0.00    -0.025 A 
HETATM   31  C   UNL     1      43.980 -18.376   4.001  1.00  0.00     0.041 A 
HETATM   32  N   UNL     1      42.747 -16.197   3.710  1.00  0.00    -0.221 NA
HETATM   33  C   UNL     1      44.462 -19.270   4.976  1.00  0.00    -0.059 A 
HETATM   34  C   UNL     1      45.076 -20.575   4.559  1.00  0.00     0.048 C 
HETATM   35  C   UNL     1      44.301 -18.977   6.344  1.00  0.00     0.016 A 
HETATM   36  C   UNL     1      43.498 -17.522   8.254  1.00  0.00     0.051 C 
ENDBRANCH   1  26
BRANCH   2  37
HETATM   37  O   UNL     1      40.928 -14.637   2.181  1.00  0.00    -0.360 OA
HETATM   38  H   UNL     1      40.345 -14.335   1.467  1.00  0.00     0.217 HD
ENDBRANCH   2  37
TORSDOF 9
ENDMDL
