MODEL 1
REMARK VINA RESULT:      -8.1      0.000      0.000
REMARK  2 active torsions:
REMARK  status: ('A' for Active; 'I' for Inactive)
REMARK    1  A    between atoms: C_3  and  C_4 
REMARK    2  A    between atoms: C_19  and  O_20 
ROOT
HETATM    1  C   UNL     1      41.603 -16.944   5.730  1.00  0.00     0.137 C 
HETATM    2  N   UNL     1      40.767 -17.460   4.605  1.00  0.00    -0.278 NA
HETATM    3  C   UNL     1      41.359 -17.330   3.315  1.00  0.00     0.036 A 
HETATM    4  C   UNL     1      42.516 -18.042   2.921  1.00  0.00     0.053 A 
HETATM    5  N   UNL     1      43.257 -18.874   3.795  1.00  0.00    -0.356 N 
HETATM    6  C   UNL     1      43.460 -18.634   5.135  1.00  0.00     0.041 A 
HETATM    7  C   UNL     1      42.797 -17.798   5.949  1.00  0.00     0.056 A 
HETATM    8  C   UNL     1      43.408 -17.920   7.280  1.00  0.00     0.251 A 
HETATM    9  O   UNL     1      43.052 -17.353   8.294  1.00  0.00    -0.268 OA
HETATM   10  N   UNL     1      44.448 -18.807   7.174  1.00  0.00    -0.351 N 
HETATM   11  C   UNL     1      44.568 -19.346   5.862  1.00  0.00     0.180 A 
HETATM   12  C   UNL     1      40.722 -16.486   2.392  1.00  0.00     0.026 A 
HETATM   13  C   UNL     1      41.205 -16.349   1.092  1.00  0.00     0.002 A 
HETATM   14  C   UNL     1      42.326 -17.065   0.691  1.00  0.00     0.002 A 
HETATM   15  C   UNL     1      42.973 -17.906   1.598  1.00  0.00     0.031 A 
HETATM   16  H   UNL     1      40.690 -18.471   4.749  1.00  0.00     0.128 HD
HETATM   17  H   UNL     1      44.007 -19.380   3.334  1.00  0.00     0.166 HD
HETATM   18  H   UNL     1      44.999 -19.065   7.981  1.00  0.00     0.163 HD
ENDROOT
BRANCH   1  19
HETATM   19  C   UNL     1      41.795 -15.437   5.612  1.00  0.00    -0.002 A 
HETATM   20  C   UNL     1      43.055 -14.839   5.436  1.00  0.00     0.012 A 
HETATM   21  C   UNL     1      43.192 -13.447   5.402  1.00  0.00     0.001 A 
HETATM   22  C   UNL     1      42.074 -12.627   5.548  1.00  0.00     0.003 A 
HETATM   23  C   UNL     1      40.814 -13.197   5.704  1.00  0.00     0.037 A 
HETATM   24  C   UNL     1      40.683 -14.582   5.716  1.00  0.00     0.073 A 
BRANCH  24  25
HETATM   25  O   UNL     1      39.408 -15.079   5.798  1.00  0.00    -0.360 OA
HETATM   26  H   UNL     1      39.494 -16.005   6.113  1.00  0.00     0.217 HD
ENDBRANCH  24  25
ENDBRANCH   1  19
TORSDOF 2
ENDMDL
MODEL 2
REMARK VINA RESULT:      -7.8      1.376      1.972
REMARK  2 active torsions:
REMARK  status: ('A' for Active; 'I' for Inactive)
REMARK    1  A    between atoms: C_3  and  C_4 
REMARK    2  A    between atoms: C_19  and  O_20 
ROOT
HETATM    1  C   UNL     1      41.458 -17.079   4.324  1.00  0.00     0.137 C 
HETATM    2  N   UNL     1      40.319 -17.052   3.359  1.00  0.00    -0.278 NA
HETATM    3  C   UNL     1      40.621 -16.462   2.096  1.00  0.00     0.036 A 
HETATM    4  C   UNL     1      41.527 -17.037   1.174  1.00  0.00     0.053 A 
HETATM    5  N   UNL     1      42.295 -18.194   1.450  1.00  0.00    -0.356 N 
HETATM    6  C   UNL     1      42.828 -18.517   2.677  1.00  0.00     0.041 A 
HETATM    7  C   UNL     1      42.512 -18.028   3.886  1.00  0.00     0.056 A 
HETATM    8  C   UNL     1      43.375 -18.707   4.863  1.00  0.00     0.251 A 
HETATM    9  O   UNL     1      43.353 -18.563   6.070  1.00  0.00    -0.268 OA
HETATM   10  N   UNL     1      44.203 -19.546   4.165  1.00  0.00    -0.351 N 
HETATM   11  C   UNL     1      43.937 -19.531   2.766  1.00  0.00     0.180 A 
HETATM   12  C   UNL     1      39.944 -15.282   1.754  1.00  0.00     0.026 A 
HETATM   13  C   UNL     1      40.141 -14.675   0.515  1.00  0.00     0.002 A 
HETATM   14  C   UNL     1      41.010 -15.248  -0.406  1.00  0.00     0.002 A 
HETATM   15  C   UNL     1      41.694 -16.420  -0.079  1.00  0.00     0.031 A 
HETATM   16  H   UNL     1      40.108 -18.030   3.139  1.00  0.00     0.128 HD
HETATM   17  H   UNL     1      42.828 -18.526   0.653  1.00  0.00     0.166 HD
HETATM   18  H   UNL     1      44.869 -20.139   4.642  1.00  0.00     0.163 HD
ENDROOT
BRANCH   1  19
HETATM   19  C   UNL     1      41.866 -15.664   4.717  1.00  0.00    -0.002 A 
HETATM   20  C   UNL     1      43.135 -15.130   4.432  1.00  0.00     0.012 A 
HETATM   21  C   UNL     1      43.490 -13.850   4.873  1.00  0.00     0.001 A 
HETATM   22  C   UNL     1      42.587 -13.084   5.609  1.00  0.00     0.003 A 
HETATM   23  C   UNL     1      41.319 -13.585   5.886  1.00  0.00     0.037 A 
HETATM   24  C   UNL     1      40.965 -14.850   5.427  1.00  0.00     0.073 A 
BRANCH  24  25
HETATM   25  O   UNL     1      39.678 -15.255   5.667  1.00  0.00    -0.360 OA
HETATM   26  H   UNL     1      39.239 -14.512   6.134  1.00  0.00     0.217 HD
ENDBRANCH  24  25
ENDBRANCH   1  19
TORSDOF 2
ENDMDL
MODEL 3
REMARK VINA RESULT:      -7.3      2.260      3.863
REMARK  2 active torsions:
REMARK  status: ('A' for Active; 'I' for Inactive)
REMARK    1  A    between atoms: C_3  and  C_4 
REMARK    2  A    between atoms: C_19  and  O_20 
ROOT
HETATM    1  C   UNL     1      40.814 -15.249   3.927  1.00  0.00     0.137 C 
HETATM    2  N   UNL     1      40.719 -16.739   3.901  1.00  0.00    -0.278 NA
HETATM    3  C   UNL     1      41.857 -17.399   3.352  1.00  0.00     0.036 A 
HETATM    4  C   UNL     1      43.129 -17.387   3.972  1.00  0.00     0.053 A 
HETATM    5  N   UNL     1      43.423 -16.640   5.137  1.00  0.00    -0.356 N 
HETATM    6  C   UNL     1      42.899 -15.403   5.440  1.00  0.00     0.041 A 
HETATM    7  C   UNL     1      41.827 -14.792   4.911  1.00  0.00     0.056 A 
HETATM    8  C   UNL     1      41.700 -13.491   5.583  1.00  0.00     0.251 A 
HETATM    9  O   UNL     1      40.822 -12.670   5.407  1.00  0.00    -0.268 OA
HETATM   10  N   UNL     1      42.747 -13.378   6.460  1.00  0.00    -0.351 N 
HETATM   11  C   UNL     1      43.568 -14.541   6.475  1.00  0.00     0.180 A 
HETATM   12  C   UNL     1      41.675 -18.127   2.166  1.00  0.00     0.026 A 
HETATM   13  C   UNL     1      42.724 -18.847   1.597  1.00  0.00     0.002 A 
HETATM   14  C   UNL     1      43.969 -18.860   2.214  1.00  0.00     0.002 A 
HETATM   15  C   UNL     1      44.167 -18.138   3.393  1.00  0.00     0.031 A 
HETATM   16  H   UNL     1      40.696 -17.041   4.879  1.00  0.00     0.128 HD
HETATM   17  H   UNL     1      44.355 -16.809   5.503  1.00  0.00     0.166 HD
HETATM   18  H   UNL     1      42.846 -12.566   7.054  1.00  0.00     0.163 HD
ENDROOT
BRANCH   1  19
HETATM   19  C   UNL     1      40.864 -14.686   2.512  1.00  0.00    -0.002 A 
HETATM   20  C   UNL     1      41.929 -13.897   2.042  1.00  0.00     0.012 A 
HETATM   21  C   UNL     1      41.900 -13.344   0.758  1.00  0.00     0.001 A 
HETATM   22  C   UNL     1      40.807 -13.564  -0.079  1.00  0.00     0.003 A 
HETATM   23  C   UNL     1      39.751 -14.357   0.358  1.00  0.00     0.037 A 
HETATM   24  C   UNL     1      39.795 -14.922   1.629  1.00  0.00     0.073 A 
BRANCH  24  25
HETATM   25  O   UNL     1      38.760 -15.753   1.971  1.00  0.00    -0.360 OA
HETATM   26  H   UNL     1      38.053 -15.177   2.332  1.00  0.00     0.217 HD
ENDBRANCH  24  25
ENDBRANCH   1  19
TORSDOF 2
ENDMDL
MODEL 4
REMARK VINA RESULT:      -7.3      2.294      5.188
REMARK  2 active torsions:
REMARK  status: ('A' for Active; 'I' for Inactive)
REMARK    1  A    between atoms: C_3  and  C_4 
REMARK    2  A    between atoms: C_19  and  O_20 
ROOT
HETATM    1  C   UNL     1      40.971 -15.754   4.248  1.00  0.00     0.137 C 
HETATM    2  N   UNL     1      40.971 -16.780   5.334  1.00  0.00    -0.278 NA
HETATM    3  C   UNL     1      42.265 -17.141   5.812  1.00  0.00     0.036 A 
HETATM    4  C   UNL     1      43.106 -16.246   6.512  1.00  0.00     0.053 A 
HETATM    5  N   UNL     1      42.794 -14.881   6.721  1.00  0.00    -0.356 N 
HETATM    6  C   UNL     1      42.131 -14.074   5.825  1.00  0.00     0.041 A 
HETATM    7  C   UNL     1      41.394 -14.428   4.760  1.00  0.00     0.056 A 
HETATM    8  C   UNL     1      40.909 -13.186   4.142  1.00  0.00     0.251 A 
HETATM    9  O   UNL     1      40.172 -13.097   3.180  1.00  0.00    -0.268 OA
HETATM   10  N   UNL     1      41.428 -12.140   4.860  1.00  0.00    -0.351 N 
HETATM   11  C   UNL     1      42.205 -12.578   5.970  1.00  0.00     0.180 A 
HETATM   12  C   UNL     1      42.684 -18.465   5.606  1.00  0.00     0.026 A 
HETATM   13  C   UNL     1      43.911 -18.912   6.094  1.00  0.00     0.002 A 
HETATM   14  C   UNL     1      44.732 -18.045   6.805  1.00  0.00     0.002 A 
HETATM   15  C   UNL     1      44.330 -16.725   7.014  1.00  0.00     0.031 A 
HETATM   16  H   UNL     1      40.516 -16.341   6.139  1.00  0.00     0.128 HD
HETATM   17  H   UNL     1      43.460 -14.399   7.317  1.00  0.00     0.166 HD
HETATM   18  H   UNL     1      41.203 -11.183   4.626  1.00  0.00     0.163 HD
ENDROOT
BRANCH   1  19
HETATM   19  C   UNL     1      41.640 -16.299   2.991  1.00  0.00    -0.002 A 
HETATM   20  C   UNL     1      43.033 -16.292   2.804  1.00  0.00     0.012 A 
HETATM   21  C   UNL     1      43.599 -16.740   1.606  1.00  0.00     0.001 A 
HETATM   22  C   UNL     1      42.785 -17.197   0.571  1.00  0.00     0.003 A 
HETATM   23  C   UNL     1      41.404 -17.232   0.741  1.00  0.00     0.037 A 
HETATM   24  C   UNL     1      40.849 -16.805   1.943  1.00  0.00     0.073 A 
BRANCH  24  25
HETATM   25  O   UNL     1      39.491 -16.934   2.075  1.00  0.00    -0.360 OA
HETATM   26  H   UNL     1      39.114 -16.809   1.178  1.00  0.00     0.217 HD
ENDBRANCH  24  25
ENDBRANCH   1  19
TORSDOF 2
ENDMDL
MODEL 5
REMARK VINA RESULT:      -7.2      2.319      5.811
REMARK  2 active torsions:
REMARK  status: ('A' for Active; 'I' for Inactive)
REMARK    1  A    between atoms: C_3  and  C_4 
REMARK    2  A    between atoms: C_19  and  O_20 
ROOT
HETATM    1  C   UNL     1      40.988 -16.270   4.154  1.00  0.00     0.137 C 
HETATM    2  N   UNL     1      41.280 -16.236   5.618  1.00  0.00    -0.278 NA
HETATM    3  C   UNL     1      42.400 -15.433   5.984  1.00  0.00     0.036 A 
HETATM    4  C   UNL     1      42.420 -14.026   5.839  1.00  0.00     0.053 A 
HETATM    5  N   UNL     1      41.378 -13.287   5.229  1.00  0.00    -0.356 N 
HETATM    6  C   UNL     1      40.625 -13.715   4.160  1.00  0.00     0.041 A 
HETATM    7  C   UNL     1      40.484 -14.959   3.675  1.00  0.00     0.056 A 
HETATM    8  C   UNL     1      39.570 -14.871   2.527  1.00  0.00     0.251 A 
HETATM    9  O   UNL     1      39.164 -15.798   1.854  1.00  0.00    -0.268 OA
HETATM   10  N   UNL     1      39.246 -13.551   2.361  1.00  0.00    -0.351 N 
HETATM   11  C   UNL     1      39.838 -12.718   3.353  1.00  0.00     0.180 A 
HETATM   12  C   UNL     1      43.505 -16.084   6.553  1.00  0.00     0.026 A 
HETATM   13  C   UNL     1      44.616 -15.364   6.990  1.00  0.00     0.002 A 
HETATM   14  C   UNL     1      44.632 -13.979   6.874  1.00  0.00     0.002 A 
HETATM   15  C   UNL     1      43.542 -13.317   6.307  1.00  0.00     0.031 A 
HETATM   16  H   UNL     1      40.480 -15.771   6.057  1.00  0.00     0.128 HD
HETATM   17  H   UNL     1      41.507 -12.282   5.284  1.00  0.00     0.166 HD
HETATM   18  H   UNL     1      38.602 -13.257   1.638  1.00  0.00     0.163 HD
ENDROOT
BRANCH   1  19
HETATM   19  C   UNL     1      42.127 -16.937   3.392  1.00  0.00    -0.002 A 
HETATM   20  C   UNL     1      42.752 -16.344   2.282  1.00  0.00     0.012 A 
HETATM   21  C   UNL     1      43.748 -17.023   1.570  1.00  0.00     0.001 A 
HETATM   22  C   UNL     1      44.133 -18.307   1.951  1.00  0.00     0.003 A 
HETATM   23  C   UNL     1      43.541 -18.906   3.059  1.00  0.00     0.037 A 
HETATM   24  C   UNL     1      42.566 -18.217   3.775  1.00  0.00     0.073 A 
BRANCH  24  25
HETATM   25  O   UNL     1      42.077 -18.831   4.898  1.00  0.00    -0.360 OA
HETATM   26  H   UNL     1      42.808 -18.828   5.553  1.00  0.00     0.217 HD
ENDBRANCH  24  25
ENDBRANCH   1  19
TORSDOF 2
ENDMDL
MODEL 6
REMARK VINA RESULT:      -7.2      1.937      2.501
REMARK  2 active torsions:
REMARK  status: ('A' for Active; 'I' for Inactive)
REMARK    1  A    between atoms: C_3  and  C_4 
REMARK    2  A    between atoms: C_19  and  O_20 
ROOT
HETATM    1  C   UNL     1      42.413 -17.734   5.023  1.00  0.00     0.137 C 
HETATM    2  N   UNL     1      41.071 -17.547   4.394  1.00  0.00    -0.278 NA
HETATM    3  C   UNL     1      41.086 -16.834   3.159  1.00  0.00     0.036 A 
HETATM    4  C   UNL     1      41.683 -17.343   1.982  1.00  0.00     0.053 A 
HETATM    5  N   UNL     1      42.409 -18.557   1.936  1.00  0.00    -0.356 N 
HETATM    6  C   UNL     1      43.212 -19.039   2.945  1.00  0.00     0.041 A 
HETATM    7  C   UNL     1      43.250 -18.674   4.236  1.00  0.00     0.056 A 
HETATM    8  C   UNL     1      44.280 -19.497   4.886  1.00  0.00     0.251 A 
HETATM    9  O   UNL     1      44.576 -19.488   6.064  1.00  0.00    -0.268 OA
HETATM   10  N   UNL     1      44.840 -20.290   3.919  1.00  0.00    -0.351 N 
HETATM   11  C   UNL     1      44.230 -20.106   2.646  1.00  0.00     0.180 A 
HETATM   12  C   UNL     1      40.432 -15.594   3.120  1.00  0.00     0.026 A 
HETATM   13  C   UNL     1      40.352 -14.862   1.936  1.00  0.00     0.002 A 
HETATM   14  C   UNL     1      40.914 -15.367   0.771  1.00  0.00     0.002 A 
HETATM   15  C   UNL     1      41.571 -16.599   0.794  1.00  0.00     0.031 A 
HETATM   16  H   UNL     1      40.741 -18.483   4.144  1.00  0.00     0.128 HD
HETATM   17  H   UNL     1      42.698 -18.822   1.000  1.00  0.00     0.166 HD
HETATM   18  H   UNL     1      45.561 -20.962   4.146  1.00  0.00     0.163 HD
ENDROOT
BRANCH   1  19
HETATM   19  C   UNL     1      43.010 -16.392   5.430  1.00  0.00    -0.002 A 
HETATM   20  C   UNL     1      43.206 -15.337   4.522  1.00  0.00     0.012 A 
HETATM   21  C   UNL     1      43.821 -14.146   4.926  1.00  0.00     0.001 A 
HETATM   22  C   UNL     1      44.254 -13.990   6.241  1.00  0.00     0.003 A 
HETATM   23  C   UNL     1      44.052 -15.013   7.162  1.00  0.00     0.037 A 
HETATM   24  C   UNL     1      43.422 -16.186   6.759  1.00  0.00     0.073 A 
BRANCH  24  25
HETATM   25  O   UNL     1      43.186 -17.124   7.731  1.00  0.00    -0.360 OA
HETATM   26  H   UNL     1      43.876 -16.990   8.415  1.00  0.00     0.217 HD
ENDBRANCH  24  25
ENDBRANCH   1  19
TORSDOF 2
ENDMDL
MODEL 7
REMARK VINA RESULT:      -7.1      3.229      5.476
REMARK  2 active torsions:
REMARK  status: ('A' for Active; 'I' for Inactive)
REMARK    1  A    between atoms: C_3  and  C_4 
REMARK    2  A    between atoms: C_19  and  O_20 
ROOT
HETATM    1  C   UNL     1      39.298 -14.378   2.051  1.00  0.00     0.137 C 
HETATM    2  N   UNL     1      39.181 -15.867   2.016  1.00  0.00    -0.278 NA
HETATM    3  C   UNL     1      40.398 -16.566   2.265  1.00  0.00     0.036 A 
HETATM    4  C   UNL     1      41.060 -16.542   3.515  1.00  0.00     0.053 A 
HETATM    5  N   UNL     1      40.639 -15.746   4.607  1.00  0.00    -0.356 N 
HETATM    6  C   UNL     1      40.085 -14.490   4.505  1.00  0.00     0.041 A 
HETATM    7  C   UNL     1      39.554 -13.890   3.428  1.00  0.00     0.056 A 
HETATM    8  C   UNL     1      39.105 -12.558   3.857  1.00  0.00     0.251 A 
HETATM    9  O   UNL     1      38.531 -11.734   3.173  1.00  0.00    -0.268 OA
HETATM   10  N   UNL     1      39.438 -12.418   5.179  1.00  0.00    -0.351 N 
HETATM   11  C   UNL     1      40.048 -13.590   5.711  1.00  0.00     0.180 A 
HETATM   12  C   UNL     1      40.921 -17.345   1.222  1.00  0.00     0.026 A 
HETATM   13  C   UNL     1      42.076 -18.105   1.403  1.00  0.00     0.002 A 
HETATM   14  C   UNL     1      42.718 -18.105   2.636  1.00  0.00     0.002 A 
HETATM   15  C   UNL     1      42.211 -17.333   3.683  1.00  0.00     0.031 A 
HETATM   16  H   UNL     1      38.575 -16.123   2.801  1.00  0.00     0.128 HD
HETATM   17  H   UNL     1      41.170 -15.910   5.457  1.00  0.00     0.166 HD
HETATM   18  H   UNL     1      39.199 -11.581   5.693  1.00  0.00     0.163 HD
ENDROOT
BRANCH   1  19
HETATM   19  C   UNL     1      40.194 -13.881   0.922  1.00  0.00    -0.002 A 
HETATM   20  C   UNL     1      41.464 -13.323   1.146  1.00  0.00     0.012 A 
HETATM   21  C   UNL     1      42.223 -12.817   0.085  1.00  0.00     0.001 A 
HETATM   22  C   UNL     1      41.726 -12.855  -1.217  1.00  0.00     0.003 A 
HETATM   23  C   UNL     1      40.479 -13.421  -1.465  1.00  0.00     0.037 A 
HETATM   24  C   UNL     1      39.738 -13.941  -0.408  1.00  0.00     0.073 A 
BRANCH  24  25
HETATM   25  O   UNL     1      38.553 -14.551  -0.727  1.00  0.00    -0.360 OA
HETATM   26  H   UNL     1      37.851 -13.882  -0.582  1.00  0.00     0.217 HD
ENDBRANCH  24  25
ENDBRANCH   1  19
TORSDOF 2
ENDMDL
MODEL 8
REMARK VINA RESULT:      -7.0      2.317      4.627
REMARK  2 active torsions:
REMARK  status: ('A' for Active; 'I' for Inactive)
REMARK    1  A    between atoms: C_3  and  C_4 
REMARK    2  A    between atoms: C_19  and  O_20 
ROOT
HETATM    1  C   UNL     1      41.773 -16.304   4.295  1.00  0.00     0.137 C 
HETATM    2  N   UNL     1      40.362 -15.983   4.664  1.00  0.00    -0.278 NA
HETATM    3  C   UNL     1      40.011 -14.608   4.535  1.00  0.00     0.036 A 
HETATM    4  C   UNL     1      39.948 -13.941   3.289  1.00  0.00     0.053 A 
HETATM    5  N   UNL     1      40.321 -14.540   2.062  1.00  0.00    -0.356 N 
HETATM    6  C   UNL     1      41.350 -15.440   1.901  1.00  0.00     0.041 A 
HETATM    7  C   UNL     1      41.994 -16.157   2.835  1.00  0.00     0.056 A 
HETATM    8  C   UNL     1      43.006 -16.962   2.136  1.00  0.00     0.251 A 
HETATM    9  O   UNL     1      43.758 -17.773   2.639  1.00  0.00    -0.268 OA
HETATM   10  N   UNL     1      42.938 -16.641   0.806  1.00  0.00    -0.351 N 
HETATM   11  C   UNL     1      41.908 -15.699   0.527  1.00  0.00     0.180 A 
HETATM   12  C   UNL     1      39.671 -13.913   5.707  1.00  0.00     0.026 A 
HETATM   13  C   UNL     1      39.262 -12.582   5.659  1.00  0.00     0.002 A 
HETATM   14  C   UNL     1      39.173 -11.928   4.436  1.00  0.00     0.002 A 
HETATM   15  C   UNL     1      39.510 -12.604   3.262  1.00  0.00     0.031 A 
HETATM   16  H   UNL     1      39.772 -16.462   3.977  1.00  0.00     0.128 HD
HETATM   17  H   UNL     1      40.134 -13.957   1.253  1.00  0.00     0.166 HD
HETATM   18  H   UNL     1      43.532 -17.097   0.127  1.00  0.00     0.163 HD
ENDROOT
BRANCH   1  19
HETATM   19  C   UNL     1      42.748 -15.630   5.253  1.00  0.00    -0.002 A 
HETATM   20  C   UNL     1      43.517 -14.510   4.894  1.00  0.00     0.012 A 
HETATM   21  C   UNL     1      44.451 -13.965   5.783  1.00  0.00     0.001 A 
HETATM   22  C   UNL     1      44.636 -14.532   7.043  1.00  0.00     0.003 A 
HETATM   23  C   UNL     1      43.871 -15.630   7.426  1.00  0.00     0.037 A 
HETATM   24  C   UNL     1      42.930 -16.154   6.545  1.00  0.00     0.073 A 
BRANCH  24  25
HETATM   25  O   UNL     1      42.158 -17.186   7.011  1.00  0.00    -0.360 OA
HETATM   26  H   UNL     1      42.442 -17.346   7.936  1.00  0.00     0.217 HD
ENDBRANCH  24  25
ENDBRANCH   1  19
TORSDOF 2
ENDMDL
MODEL 9
REMARK VINA RESULT:      -6.9      2.805      5.032
REMARK  2 active torsions:
REMARK  status: ('A' for Active; 'I' for Inactive)
REMARK    1  A    between atoms: C_3  and  C_4 
REMARK    2  A    between atoms: C_19  and  O_20 
ROOT
HETATM    1  C   UNL     1      41.372 -13.429   3.519  1.00  0.00     0.137 C 
HETATM    2  N   UNL     1      42.853 -13.568   3.655  1.00  0.00    -0.278 NA
HETATM    3  C   UNL     1      43.276 -14.441   4.699  1.00  0.00     0.036 A 
HETATM    4  C   UNL     1      43.040 -15.836   4.680  1.00  0.00     0.053 A 
HETATM    5  N   UNL     1      42.279 -16.487   3.681  1.00  0.00    -0.356 N 
HETATM    6  C   UNL     1      41.170 -15.960   3.060  1.00  0.00     0.041 A 
HETATM    7  C   UNL     1      40.757 -14.683   3.018  1.00  0.00     0.056 A 
HETATM    8  C   UNL     1      39.519 -14.657   2.227  1.00  0.00     0.251 A 
HETATM    9  O   UNL     1      38.871 -13.673   1.929  1.00  0.00    -0.268 OA
HETATM   10  N   UNL     1      39.232 -15.949   1.872  1.00  0.00    -0.351 N 
HETATM   11  C   UNL     1      40.221 -16.868   2.325  1.00  0.00     0.180 A 
HETATM   12  C   UNL     1      43.997 -13.878   5.762  1.00  0.00     0.026 A 
HETATM   13  C   UNL     1      44.496 -14.673   6.793  1.00  0.00     0.002 A 
HETATM   14  C   UNL     1      44.290 -16.047   6.768  1.00  0.00     0.002 A 
HETATM   15  C   UNL     1      43.571 -16.623   5.719  1.00  0.00     0.031 A 
HETATM   16  H   UNL     1      43.176 -14.023   2.796  1.00  0.00     0.128 HD
HETATM   17  H   UNL     1      42.279 -17.499   3.765  1.00  0.00     0.166 HD
HETATM   18  H   UNL     1      38.430 -16.168   1.297  1.00  0.00     0.163 HD
ENDROOT
BRANCH   1  19
HETATM   19  C   UNL     1      40.776 -12.767   4.756  1.00  0.00    -0.002 A 
HETATM   20  C   UNL     1      39.979 -13.460   5.683  1.00  0.00     0.012 A 
HETATM   21  C   UNL     1      39.396 -12.796   6.768  1.00  0.00     0.001 A 
HETATM   22  C   UNL     1      39.596 -11.428   6.944  1.00  0.00     0.003 A 
HETATM   23  C   UNL     1      40.398 -10.725   6.050  1.00  0.00     0.037 A 
HETATM   24  C   UNL     1      40.991 -11.396   4.985  1.00  0.00     0.073 A 
BRANCH  24  25
HETATM   25  O   UNL     1      41.829 -10.663   4.186  1.00  0.00    -0.360 OA
HETATM   26  H   UNL     1      42.101  -9.883   4.715  1.00  0.00     0.217 HD
ENDBRANCH  24  25
ENDBRANCH   1  19
TORSDOF 2
ENDMDL
MODEL 10
REMARK VINA RESULT:      -6.9      7.551      9.425
REMARK  2 active torsions:
REMARK  status: ('A' for Active; 'I' for Inactive)
REMARK    1  A    between atoms: C_3  and  C_4 
REMARK    2  A    between atoms: C_19  and  O_20 
ROOT
HETATM    1  C   UNL     1      42.174 -11.594  11.482  1.00  0.00     0.137 C 
HETATM    2  N   UNL     1      40.874 -11.391  10.774  1.00  0.00    -0.278 NA
HETATM    3  C   UNL     1      40.708 -10.100  10.194  1.00  0.00     0.036 A 
HETATM    4  C   UNL     1      41.491  -9.634   9.111  1.00  0.00     0.053 A 
HETATM    5  N   UNL     1      42.577 -10.358   8.564  1.00  0.00    -0.356 N 
HETATM    6  C   UNL     1      43.448 -11.144   9.284  1.00  0.00     0.041 A 
HETATM    7  C   UNL     1      43.307 -11.637  10.524  1.00  0.00     0.056 A 
HETATM    8  C   UNL     1      44.521 -12.410  10.820  1.00  0.00     0.251 A 
HETATM    9  O   UNL     1      44.745 -13.046  11.832  1.00  0.00    -0.268 OA
HETATM   10  N   UNL     1      45.353 -12.298   9.737  1.00  0.00    -0.351 N 
HETATM   11  C   UNL     1      44.773 -11.533   8.685  1.00  0.00     0.180 A 
HETATM   12  C   UNL     1      39.684  -9.287  10.704  1.00  0.00     0.026 A 
HETATM   13  C   UNL     1      39.420  -8.034  10.153  1.00  0.00     0.002 A 
HETATM   14  C   UNL     1      40.169  -7.581   9.074  1.00  0.00     0.002 A 
HETATM   15  C   UNL     1      41.192  -8.377   8.556  1.00  0.00     0.031 A 
HETATM   16  H   UNL     1      40.882 -12.030   9.975  1.00  0.00     0.128 HD
HETATM   17  H   UNL     1      42.978  -9.925   7.737  1.00  0.00     0.166 HD
HETATM   18  H   UNL     1      46.244 -12.775   9.710  1.00  0.00     0.163 HD
ENDROOT
BRANCH   1  19
HETATM   19  C   UNL     1      42.277 -10.678  12.695  1.00  0.00    -0.002 A 
HETATM   20  C   UNL     1      43.329  -9.762  12.872  1.00  0.00     0.012 A 
HETATM   21  C   UNL     1      43.420  -8.989  14.035  1.00  0.00     0.001 A 
HETATM   22  C   UNL     1      42.467  -9.120  15.043  1.00  0.00     0.003 A 
HETATM   23  C   UNL     1      41.406 -10.006  14.881  1.00  0.00     0.037 A 
HETATM   24  C   UNL     1      41.310 -10.757  13.713  1.00  0.00     0.073 A 
BRANCH  24  25
HETATM   25  O   UNL     1      40.202 -11.554  13.583  1.00  0.00    -0.360 OA
HETATM   26  H   UNL     1      39.919 -11.480  12.646  1.00  0.00     0.217 HD
ENDBRANCH  24  25
ENDBRANCH   1  19
TORSDOF 2
ENDMDL
