MODEL 1
REMARK VINA RESULT:      -7.8      0.000      0.000
REMARK  7 active torsions:
REMARK  status: ('A' for Active; 'I' for Inactive)
REMARK    1  A    between atoms: O_2  and  C_3 
REMARK    2  A    between atoms: C_4  and  C_5 
REMARK    3  A    between atoms: C_5  and  N_6 
REMARK    4  A    between atoms: N_6  and  C_7 
REMARK    5  A    between atoms: C_9  and  N_10 
REMARK    6  A    between atoms: N_10  and  C_11 
REMARK    7  A    between atoms: C_11  and  C_12 
ROOT
HETATM    1  C   UNL     1      44.202 -18.483   4.218  1.00  0.00     0.119 A 
HETATM    2  N   UNL     1      43.979 -17.684   3.157  1.00  0.00    -0.207 NA
HETATM    3  C   UNL     1      43.879 -18.254   1.950  1.00  0.00     0.181 A 
HETATM    4  N   UNL     1      43.958 -19.564   1.756  1.00  0.00    -0.330 N 
HETATM    5  H   UNL     1      43.780 -19.903   0.820  1.00  0.00     0.168 HD
HETATM    6  C   UNL     1      44.220 -20.401   2.764  1.00  0.00     0.048 A 
HETATM    7  C   UNL     1      44.386 -19.878   4.063  1.00  0.00     0.031 A 
HETATM    8  C   UNL     1      44.323 -21.778   2.521  1.00  0.00     0.030 A 
HETATM    9  C   UNL     1      44.611 -22.653   3.566  1.00  0.00     0.002 A 
HETATM   10  C   UNL     1      44.805 -22.159   4.852  1.00  0.00     0.001 A 
HETATM   11  C   UNL     1      44.697 -20.787   5.102  1.00  0.00     0.017 A 
ENDROOT
BRANCH   1  12
HETATM   12  N   UNL     1      44.326 -17.904   5.489  1.00  0.00    -0.272 NA
HETATM   13  H   UNL     1      44.987 -18.419   6.064  1.00  0.00     0.129 HD
BRANCH  12  14
HETATM   14  C   UNL     1      43.091 -17.708   6.264  1.00  0.00     0.135 C 
BRANCH  14  15
HETATM   15  C   UNL     1      42.389 -16.398   5.989  1.00  0.00    -0.012 A 
HETATM   16  C   UNL     1      43.113 -15.203   6.168  1.00  0.00     0.075 A 
HETATM   17  C   UNL     1      42.542 -13.966   5.862  1.00  0.00     0.037 A 
HETATM   18  C   UNL     1      41.222 -13.902   5.418  1.00  0.00     0.003 A 
HETATM   19  C   UNL     1      40.479 -15.072   5.273  1.00  0.00     0.001 A 
HETATM   20  C   UNL     1      41.060 -16.312   5.551  1.00  0.00     0.011 A 
BRANCH  16  21
HETATM   21  O   UNL     1      44.417 -15.323   6.584  1.00  0.00    -0.355 OA
HETATM   22  C   UNL     1      45.001 -14.084   6.983  1.00  0.00     0.210 C 
ENDBRANCH  16  21
ENDBRANCH  14  15
ENDBRANCH  12  14
ENDBRANCH   1  12
BRANCH   3  23
HETATM   23  N   UNL     1      43.599 -17.424   0.875  1.00  0.00    -0.259 NA
HETATM   24  H   UNL     1      43.328 -18.063   0.122  1.00  0.00     0.130 HD
BRANCH  23  25
HETATM   25  C   UNL     1      42.569 -16.418   1.083  1.00  0.00     0.121 C 
BRANCH  25  26
HETATM   26  C   UNL     1      41.246 -17.122   1.069  1.00  0.00    -0.022 C 
HETATM   27  C   UNL     1      40.282 -16.982   1.990  1.00  0.00     0.008 C 
ENDBRANCH  25  26
ENDBRANCH  23  25
ENDBRANCH   3  23
TORSDOF 7
ENDMDL
MODEL 2
REMARK VINA RESULT:      -7.7      2.015      6.949
REMARK  7 active torsions:
REMARK  status: ('A' for Active; 'I' for Inactive)
REMARK    1  A    between atoms: O_2  and  C_3 
REMARK    2  A    between atoms: C_4  and  C_5 
REMARK    3  A    between atoms: C_5  and  N_6 
REMARK    4  A    between atoms: N_6  and  C_7 
REMARK    5  A    between atoms: C_9  and  N_10 
REMARK    6  A    between atoms: N_10  and  C_11 
REMARK    7  A    between atoms: C_11  and  C_12 
ROOT
HETATM    1  C   UNL     1      42.310 -16.610   4.687  1.00  0.00     0.119 A 
HETATM    2  N   UNL     1      43.151 -16.355   5.708  1.00  0.00    -0.207 NA
HETATM    3  C   UNL     1      43.095 -15.148   6.283  1.00  0.00     0.181 A 
HETATM    4  N   UNL     1      42.232 -14.208   5.918  1.00  0.00    -0.330 N 
HETATM    5  H   UNL     1      42.208 -13.364   6.473  1.00  0.00     0.168 HD
HETATM    6  C   UNL     1      41.403 -14.389   4.885  1.00  0.00     0.048 A 
HETATM    7  C   UNL     1      41.430 -15.618   4.193  1.00  0.00     0.031 A 
HETATM    8  C   UNL     1      40.522 -13.366   4.508  1.00  0.00     0.030 A 
HETATM    9  C   UNL     1      39.667 -13.545   3.423  1.00  0.00     0.002 A 
HETATM   10  C   UNL     1      39.693 -14.737   2.707  1.00  0.00     0.001 A 
HETATM   11  C   UNL     1      40.565 -15.764   3.082  1.00  0.00     0.017 A 
ENDROOT
BRANCH   1  12
HETATM   12  N   UNL     1      42.365 -17.863   4.060  1.00  0.00    -0.272 NA
HETATM   13  H   UNL     1      42.296 -18.617   4.738  1.00  0.00     0.129 HD
BRANCH  12  14
HETATM   14  C   UNL     1      43.517 -18.130   3.187  1.00  0.00     0.135 C 
BRANCH  14  15
HETATM   15  C   UNL     1      43.883 -19.592   3.072  1.00  0.00    -0.012 A 
HETATM   16  C   UNL     1      44.488 -20.216   4.180  1.00  0.00     0.075 A 
HETATM   17  C   UNL     1      44.783 -21.582   4.161  1.00  0.00     0.037 A 
HETATM   18  C   UNL     1      44.521 -22.332   3.015  1.00  0.00     0.003 A 
HETATM   19  C   UNL     1      43.959 -21.721   1.897  1.00  0.00     0.001 A 
HETATM   20  C   UNL     1      43.636 -20.362   1.926  1.00  0.00     0.011 A 
BRANCH  16  21
HETATM   21  O   UNL     1      44.703 -19.439   5.292  1.00  0.00    -0.355 OA
HETATM   22  C   UNL     1      44.006 -19.898   6.449  1.00  0.00     0.210 C 
ENDBRANCH  16  21
ENDBRANCH  14  15
ENDBRANCH  12  14
ENDBRANCH   1  12
BRANCH   3  23
HETATM   23  N   UNL     1      43.931 -14.919   7.364  1.00  0.00    -0.259 NA
HETATM   24  H   UNL     1      44.348 -15.834   7.563  1.00  0.00     0.130 HD
BRANCH  23  25
HETATM   25  C   UNL     1      44.971 -13.918   7.180  1.00  0.00     0.121 C 
BRANCH  25  26
HETATM   26  C   UNL     1      44.907 -12.985   8.352  1.00  0.00    -0.022 C 
HETATM   27  C   UNL     1      45.884 -12.150   8.733  1.00  0.00     0.008 C 
ENDBRANCH  25  26
ENDBRANCH  23  25
ENDBRANCH   3  23
TORSDOF 7
ENDMDL
MODEL 3
REMARK VINA RESULT:      -7.7      1.657      3.724
REMARK  7 active torsions:
REMARK  status: ('A' for Active; 'I' for Inactive)
REMARK    1  A    between atoms: O_2  and  C_3 
REMARK    2  A    between atoms: C_4  and  C_5 
REMARK    3  A    between atoms: C_5  and  N_6 
REMARK    4  A    between atoms: N_6  and  C_7 
REMARK    5  A    between atoms: C_9  and  N_10 
REMARK    6  A    between atoms: N_10  and  C_11 
REMARK    7  A    between atoms: C_11  and  C_12 
ROOT
HETATM    1  C   UNL     1      43.931 -18.395   3.425  1.00  0.00     0.119 A 
HETATM    2  N   UNL     1      44.247 -17.912   4.642  1.00  0.00    -0.207 NA
HETATM    3  C   UNL     1      44.741 -18.765   5.548  1.00  0.00     0.181 A 
HETATM    4  N   UNL     1      44.960 -20.048   5.294  1.00  0.00    -0.330 N 
HETATM    5  H   UNL     1      45.419 -20.589   6.015  1.00  0.00     0.168 HD
HETATM    6  C   UNL     1      44.626 -20.592   4.120  1.00  0.00     0.048 A 
HETATM    7  C   UNL     1      44.056 -19.771   3.124  1.00  0.00     0.031 A 
HETATM    8  C   UNL     1      44.846 -21.957   3.892  1.00  0.00     0.030 A 
HETATM    9  C   UNL     1      44.486 -22.531   2.675  1.00  0.00     0.002 A 
HETATM   10  C   UNL     1      43.898 -21.748   1.686  1.00  0.00     0.001 A 
HETATM   11  C   UNL     1      43.681 -20.385   1.905  1.00  0.00     0.017 A 
ENDROOT
BRANCH   1  12
HETATM   12  N   UNL     1      43.397 -17.520   2.468  1.00  0.00    -0.272 NA
HETATM   13  H   UNL     1      43.880 -16.626   2.477  1.00  0.00     0.129 HD
BRANCH  12  14
HETATM   14  C   UNL     1      41.949 -17.266   2.519  1.00  0.00     0.135 C 
BRANCH  14  15
HETATM   15  C   UNL     1      41.474 -16.655   3.817  1.00  0.00    -0.012 A 
HETATM   16  C   UNL     1      41.623 -15.265   3.992  1.00  0.00     0.075 A 
HETATM   17  C   UNL     1      41.137 -14.631   5.139  1.00  0.00     0.037 A 
HETATM   18  C   UNL     1      40.540 -15.385   6.148  1.00  0.00     0.003 A 
HETATM   19  C   UNL     1      40.420 -16.766   6.007  1.00  0.00     0.001 A 
HETATM   20  C   UNL     1      40.878 -17.396   4.847  1.00  0.00     0.011 A 
BRANCH  16  21
HETATM   21  O   UNL     1      42.196 -14.565   2.959  1.00  0.00    -0.355 OA
HETATM   22  C   UNL     1      43.353 -13.826   3.348  1.00  0.00     0.210 C 
ENDBRANCH  16  21
ENDBRANCH  14  15
ENDBRANCH  12  14
ENDBRANCH   1  12
BRANCH   3  23
HETATM   23  N   UNL     1      45.109 -18.244   6.779  1.00  0.00    -0.259 NA
HETATM   24  H   UNL     1      45.238 -17.242   6.603  1.00  0.00     0.130 HD
BRANCH  23  25
HETATM   25  C   UNL     1      44.178 -18.450   7.877  1.00  0.00     0.121 C 
BRANCH  25  26
HETATM   26  C   UNL     1      43.465 -17.153   8.110  1.00  0.00    -0.022 C 
HETATM   27  C   UNL     1      43.791 -15.977   7.555  1.00  0.00     0.008 C 
ENDBRANCH  25  26
ENDBRANCH  23  25
ENDBRANCH   3  23
TORSDOF 7
ENDMDL
MODEL 4
REMARK VINA RESULT:      -7.5      2.268      6.064
REMARK  7 active torsions:
REMARK  status: ('A' for Active; 'I' for Inactive)
REMARK    1  A    between atoms: O_2  and  C_3 
REMARK    2  A    between atoms: C_4  and  C_5 
REMARK    3  A    between atoms: C_5  and  N_6 
REMARK    4  A    between atoms: N_6  and  C_7 
REMARK    5  A    between atoms: C_9  and  N_10 
REMARK    6  A    between atoms: N_10  and  C_11 
REMARK    7  A    between atoms: C_11  and  C_12 
ROOT
HETATM    1  C   UNL     1      41.852 -17.104   2.957  1.00  0.00     0.119 A 
HETATM    2  N   UNL     1      41.782 -17.219   1.617  1.00  0.00    -0.207 NA
HETATM    3  C   UNL     1      41.069 -16.307   0.944  1.00  0.00     0.181 A 
HETATM    4  N   UNL     1      40.459 -15.285   1.529  1.00  0.00    -0.330 N 
HETATM    5  H   UNL     1      40.021 -14.602   0.926  1.00  0.00     0.168 HD
HETATM    6  C   UNL     1      40.458 -15.144   2.859  1.00  0.00     0.048 A 
HETATM    7  C   UNL     1      41.148 -16.089   3.647  1.00  0.00     0.031 A 
HETATM    8  C   UNL     1      39.781 -14.067   3.448  1.00  0.00     0.030 A 
HETATM    9  C   UNL     1      39.766 -13.925   4.834  1.00  0.00     0.002 A 
HETATM   10  C   UNL     1      40.416 -14.858   5.635  1.00  0.00     0.001 A 
HETATM   11  C   UNL     1      41.098 -15.931   5.053  1.00  0.00     0.017 A 
ENDROOT
BRANCH   1  12
HETATM   12  N   UNL     1      42.580 -18.058   3.682  1.00  0.00    -0.272 NA
HETATM   13  H   UNL     1      42.698 -17.773   4.650  1.00  0.00     0.129 HD
BRANCH  12  14
HETATM   14  C   UNL     1      43.895 -18.449   3.150  1.00  0.00     0.135 C 
BRANCH  14  15
HETATM   15  C   UNL     1      44.202 -19.923   3.278  1.00  0.00    -0.012 A 
HETATM   16  C   UNL     1      44.599 -20.415   4.536  1.00  0.00     0.075 A 
HETATM   17  C   UNL     1      44.826 -21.780   4.733  1.00  0.00     0.037 A 
HETATM   18  C   UNL     1      44.707 -22.664   3.663  1.00  0.00     0.003 A 
HETATM   19  C   UNL     1      44.352 -22.188   2.403  1.00  0.00     0.001 A 
HETATM   20  C   UNL     1      44.096 -20.828   2.212  1.00  0.00     0.011 A 
BRANCH  16  21
HETATM   21  O   UNL     1      44.679 -19.506   5.562  1.00  0.00    -0.355 OA
HETATM   22  C   UNL     1      43.855 -19.837   6.679  1.00  0.00     0.210 C 
ENDBRANCH  16  21
ENDBRANCH  14  15
ENDBRANCH  12  14
ENDBRANCH   1  12
BRANCH   3  23
HETATM   23  N   UNL     1      41.048 -16.409  -0.438  1.00  0.00    -0.259 NA
HETATM   24  H   UNL     1      40.217 -16.974  -0.640  1.00  0.00     0.130 HD
BRANCH  23  25
HETATM   25  C   UNL     1      41.004 -15.159  -1.181  1.00  0.00     0.121 C 
BRANCH  25  26
HETATM   26  C   UNL     1      41.021 -15.504  -2.640  1.00  0.00    -0.022 C 
HETATM   27  C   UNL     1      39.970 -15.949  -3.344  1.00  0.00     0.008 C 
ENDBRANCH  25  26
ENDBRANCH  23  25
ENDBRANCH   3  23
TORSDOF 7
ENDMDL
MODEL 5
REMARK VINA RESULT:      -7.4      1.774      4.421
REMARK  7 active torsions:
REMARK  status: ('A' for Active; 'I' for Inactive)
REMARK    1  A    between atoms: O_2  and  C_3 
REMARK    2  A    between atoms: C_4  and  C_5 
REMARK    3  A    between atoms: C_5  and  N_6 
REMARK    4  A    between atoms: N_6  and  C_7 
REMARK    5  A    between atoms: C_9  and  N_10 
REMARK    6  A    between atoms: N_10  and  C_11 
REMARK    7  A    between atoms: C_11  and  C_12 
ROOT
HETATM    1  C   UNL     1      43.850 -18.397   3.097  1.00  0.00     0.119 A 
HETATM    2  N   UNL     1      43.941 -17.614   4.189  1.00  0.00    -0.207 NA
HETATM    3  C   UNL     1      44.315 -18.184   5.342  1.00  0.00     0.181 A 
HETATM    4  N   UNL     1      44.628 -19.468   5.450  1.00  0.00    -0.330 N 
HETATM    5  H   UNL     1      44.984 -19.782   6.343  1.00  0.00     0.168 HD
HETATM    6  C   UNL     1      44.514 -20.301   4.411  1.00  0.00     0.048 A 
HETATM    7  C   UNL     1      44.082 -19.791   3.169  1.00  0.00     0.031 A 
HETATM    8  C   UNL     1      44.827 -21.659   4.565  1.00  0.00     0.030 A 
HETATM    9  C   UNL     1      44.697 -22.534   3.489  1.00  0.00     0.002 A 
HETATM   10  C   UNL     1      44.247 -22.060   2.260  1.00  0.00     0.001 A 
HETATM   11  C   UNL     1      43.939 -20.706   2.098  1.00  0.00     0.017 A 
ENDROOT
BRANCH   1  12
HETATM   12  N   UNL     1      43.444 -17.823   1.883  1.00  0.00    -0.272 NA
HETATM   13  H   UNL     1      43.996 -16.998   1.665  1.00  0.00     0.129 HD
BRANCH  12  14
HETATM   14  C   UNL     1      42.021 -17.480   1.742  1.00  0.00     0.135 C 
BRANCH  14  15
HETATM   15  C   UNL     1      41.765 -16.201   0.980  1.00  0.00    -0.012 A 
HETATM   16  C   UNL     1      41.987 -14.976   1.639  1.00  0.00     0.075 A 
HETATM   17  C   UNL     1      41.837 -13.761   0.965  1.00  0.00     0.037 A 
HETATM   18  C   UNL     1      41.417 -13.753  -0.364  1.00  0.00     0.003 A 
HETATM   19  C   UNL     1      41.157 -14.954  -1.020  1.00  0.00     0.001 A 
HETATM   20  C   UNL     1      41.335 -16.170  -0.355  1.00  0.00     0.011 A 
BRANCH  16  21
HETATM   21  O   UNL     1      42.421 -15.040   2.940  1.00  0.00    -0.355 OA
HETATM   22  C   UNL     1      43.416 -14.067   3.254  1.00  0.00     0.210 C 
ENDBRANCH  16  21
ENDBRANCH  14  15
ENDBRANCH  12  14
ENDBRANCH   1  12
BRANCH   3  23
HETATM   23  N   UNL     1      44.453 -17.355   6.445  1.00  0.00    -0.259 NA
HETATM   24  H   UNL     1      45.439 -17.077   6.433  1.00  0.00     0.130 HD
BRANCH  23  25
HETATM   25  C   UNL     1      43.595 -16.181   6.487  1.00  0.00     0.121 C 
BRANCH  25  26
HETATM   26  C   UNL     1      44.323 -15.122   7.257  1.00  0.00    -0.022 C 
HETATM   27  C   UNL     1      44.919 -14.046   6.724  1.00  0.00     0.008 C 
ENDBRANCH  25  26
ENDBRANCH  23  25
ENDBRANCH   3  23
TORSDOF 7
ENDMDL
MODEL 6
REMARK VINA RESULT:      -7.4      2.188      3.287
REMARK  7 active torsions:
REMARK  status: ('A' for Active; 'I' for Inactive)
REMARK    1  A    between atoms: O_2  and  C_3 
REMARK    2  A    between atoms: C_4  and  C_5 
REMARK    3  A    between atoms: C_5  and  N_6 
REMARK    4  A    between atoms: N_6  and  C_7 
REMARK    5  A    between atoms: C_9  and  N_10 
REMARK    6  A    between atoms: N_10  and  C_11 
REMARK    7  A    between atoms: C_11  and  C_12 
ROOT
HETATM    1  C   UNL     1      41.146 -17.156   3.613  1.00  0.00     0.119 A 
HETATM    2  N   UNL     1      40.565 -16.379   2.679  1.00  0.00    -0.207 NA
HETATM    3  C   UNL     1      41.060 -16.415   1.435  1.00  0.00     0.181 A 
HETATM    4  N   UNL     1      42.069 -17.198   1.077  1.00  0.00    -0.330 N 
HETATM    5  H   UNL     1      42.310 -17.219   0.095  1.00  0.00     0.168 HD
HETATM    6  C   UNL     1      42.711 -17.957   1.970  1.00  0.00     0.048 A 
HETATM    7  C   UNL     1      42.282 -17.944   3.313  1.00  0.00     0.031 A 
HETATM    8  C   UNL     1      43.790 -18.754   1.564  1.00  0.00     0.030 A 
HETATM    9  C   UNL     1      44.472 -19.536   2.494  1.00  0.00     0.002 A 
HETATM   10  C   UNL     1      44.085 -19.520   3.830  1.00  0.00     0.001 A 
HETATM   11  C   UNL     1      43.005 -18.732   4.240  1.00  0.00     0.017 A 
ENDROOT
BRANCH   1  12
HETATM   12  N   UNL     1      40.652 -17.121   4.926  1.00  0.00    -0.272 NA
HETATM   13  H   UNL     1      39.706 -17.488   4.972  1.00  0.00     0.129 HD
BRANCH  12  14
HETATM   14  C   UNL     1      40.683 -15.826   5.622  1.00  0.00     0.135 C 
BRANCH  14  15
HETATM   15  C   UNL     1      42.073 -15.307   5.905  1.00  0.00    -0.012 A 
HETATM   16  C   UNL     1      42.888 -16.035   6.794  1.00  0.00     0.075 A 
HETATM   17  C   UNL     1      44.208 -15.646   7.040  1.00  0.00     0.037 A 
HETATM   18  C   UNL     1      44.715 -14.495   6.438  1.00  0.00     0.003 A 
HETATM   19  C   UNL     1      43.909 -13.743   5.586  1.00  0.00     0.001 A 
HETATM   20  C   UNL     1      42.599 -14.148   5.317  1.00  0.00     0.011 A 
BRANCH  16  21
HETATM   21  O   UNL     1      42.349 -17.173   7.343  1.00  0.00    -0.355 OA
HETATM   22  C   UNL     1      43.328 -18.075   7.856  1.00  0.00     0.210 C 
ENDBRANCH  16  21
ENDBRANCH  14  15
ENDBRANCH  12  14
ENDBRANCH   1  12
BRANCH   3  23
HETATM   23  N   UNL     1      40.420 -15.649   0.474  1.00  0.00    -0.259 NA
HETATM   24  H   UNL     1      39.898 -14.949   1.011  1.00  0.00     0.130 HD
BRANCH  23  25
HETATM   25  C   UNL     1      41.271 -15.000  -0.512  1.00  0.00     0.121 C 
BRANCH  25  26
HETATM   26  C   UNL     1      40.645 -15.217  -1.857  1.00  0.00    -0.022 C 
HETATM   27  C   UNL     1      41.261 -15.051  -3.036  1.00  0.00     0.008 C 
ENDBRANCH  25  26
ENDBRANCH  23  25
ENDBRANCH   3  23
TORSDOF 7
ENDMDL
MODEL 7
REMARK VINA RESULT:      -7.3      2.249      4.480
REMARK  7 active torsions:
REMARK  status: ('A' for Active; 'I' for Inactive)
REMARK    1  A    between atoms: O_2  and  C_3 
REMARK    2  A    between atoms: C_4  and  C_5 
REMARK    3  A    between atoms: C_5  and  N_6 
REMARK    4  A    between atoms: N_6  and  C_7 
REMARK    5  A    between atoms: C_9  and  N_10 
REMARK    6  A    between atoms: N_10  and  C_11 
REMARK    7  A    between atoms: C_11  and  C_12 
ROOT
HETATM    1  C   UNL     1      43.441 -18.269   2.708  1.00  0.00     0.119 A 
HETATM    2  N   UNL     1      43.548 -17.440   3.765  1.00  0.00    -0.207 NA
HETATM    3  C   UNL     1      44.043 -17.937   4.905  1.00  0.00     0.181 A 
HETATM    4  N   UNL     1      44.460 -19.190   5.032  1.00  0.00    -0.330 N 
HETATM    5  H   UNL     1      44.901 -19.443   5.906  1.00  0.00     0.168 HD
HETATM    6  C   UNL     1      44.339 -20.067   4.031  1.00  0.00     0.048 A 
HETATM    7  C   UNL     1      43.783 -19.638   2.808  1.00  0.00     0.031 A 
HETATM    8  C   UNL     1      44.764 -21.392   4.206  1.00  0.00     0.030 A 
HETATM    9  C   UNL     1      44.627 -22.313   3.170  1.00  0.00     0.002 A 
HETATM   10  C   UNL     1      44.057 -21.921   1.963  1.00  0.00     0.001 A 
HETATM   11  C   UNL     1      43.636 -20.600   1.780  1.00  0.00     0.017 A 
ENDROOT
BRANCH   1  12
HETATM   12  N   UNL     1      42.909 -17.772   1.509  1.00  0.00    -0.272 NA
HETATM   13  H   UNL     1      43.298 -16.860   1.285  1.00  0.00     0.129 HD
BRANCH  12  14
HETATM   14  C   UNL     1      41.444 -17.691   1.404  1.00  0.00     0.135 C 
BRANCH  14  15
HETATM   15  C   UNL     1      40.886 -16.299   1.594  1.00  0.00    -0.012 A 
HETATM   16  C   UNL     1      40.870 -15.430   0.486  1.00  0.00     0.075 A 
HETATM   17  C   UNL     1      40.301 -14.157   0.581  1.00  0.00     0.037 A 
HETATM   18  C   UNL     1      39.784 -13.718   1.799  1.00  0.00     0.003 A 
HETATM   19  C   UNL     1      39.827 -14.551   2.914  1.00  0.00     0.001 A 
HETATM   20  C   UNL     1      40.370 -15.835   2.812  1.00  0.00     0.011 A 
BRANCH  16  21
HETATM   21  O   UNL     1      41.370 -15.920  -0.696  1.00  0.00    -0.355 OA
HETATM   22  C   UNL     1      40.901 -15.216  -1.845  1.00  0.00     0.210 C 
ENDBRANCH  16  21
ENDBRANCH  14  15
ENDBRANCH  12  14
ENDBRANCH   1  12
BRANCH   3  23
HETATM   23  N   UNL     1      44.195 -17.060   5.968  1.00  0.00    -0.259 NA
HETATM   24  H   UNL     1      45.070 -16.565   5.768  1.00  0.00     0.130 HD
BRANCH  23  25
HETATM   25  C   UNL     1      43.114 -16.111   6.186  1.00  0.00     0.121 C 
BRANCH  25  26
HETATM   26  C   UNL     1      41.965 -16.869   6.780  1.00  0.00    -0.022 C 
HETATM   27  C   UNL     1      40.692 -16.800   6.366  1.00  0.00     0.008 C 
ENDBRANCH  25  26
ENDBRANCH  23  25
ENDBRANCH   3  23
TORSDOF 7
ENDMDL
MODEL 8
REMARK VINA RESULT:      -7.3      2.038      6.482
REMARK  7 active torsions:
REMARK  status: ('A' for Active; 'I' for Inactive)
REMARK    1  A    between atoms: O_2  and  C_3 
REMARK    2  A    between atoms: C_4  and  C_5 
REMARK    3  A    between atoms: C_5  and  N_6 
REMARK    4  A    between atoms: N_6  and  C_7 
REMARK    5  A    between atoms: C_9  and  N_10 
REMARK    6  A    between atoms: N_10  and  C_11 
REMARK    7  A    between atoms: C_11  and  C_12 
ROOT
HETATM    1  C   UNL     1      42.780 -16.453   2.564  1.00  0.00     0.119 A 
HETATM    2  N   UNL     1      43.335 -15.766   3.581  1.00  0.00    -0.207 NA
HETATM    3  C   UNL     1      43.311 -14.429   3.524  1.00  0.00     0.181 A 
HETATM    4  N   UNL     1      42.742 -13.753   2.535  1.00  0.00    -0.330 N 
HETATM    5  H   UNL     1      42.697 -12.748   2.628  1.00  0.00     0.168 HD
HETATM    6  C   UNL     1      42.213 -14.381   1.479  1.00  0.00     0.048 A 
HETATM    7  C   UNL     1      42.238 -15.790   1.438  1.00  0.00     0.031 A 
HETATM    8  C   UNL     1      41.642 -13.637   0.437  1.00  0.00     0.030 A 
HETATM    9  C   UNL     1      41.103 -14.286  -0.672  1.00  0.00     0.002 A 
HETATM   10  C   UNL     1      41.140 -15.675  -0.749  1.00  0.00     0.001 A 
HETATM   11  C   UNL     1      41.702 -16.422   0.290  1.00  0.00     0.017 A 
ENDROOT
BRANCH   1  12
HETATM   12  N   UNL     1      42.809 -17.855   2.598  1.00  0.00    -0.272 NA
HETATM   13  H   UNL     1      42.542 -18.206   3.513  1.00  0.00     0.129 HD
BRANCH  12  14
HETATM   14  C   UNL     1      44.062 -18.512   2.196  1.00  0.00     0.135 C 
BRANCH  14  15
HETATM   15  C   UNL     1      44.297 -19.851   2.856  1.00  0.00    -0.012 A 
HETATM   16  C   UNL     1      44.608 -19.873   4.229  1.00  0.00     0.075 A 
HETATM   17  C   UNL     1      44.765 -21.083   4.910  1.00  0.00     0.037 A 
HETATM   18  C   UNL     1      44.662 -22.288   4.216  1.00  0.00     0.003 A 
HETATM   19  C   UNL     1      44.393 -22.283   2.849  1.00  0.00     0.001 A 
HETATM   20  C   UNL     1      44.207 -21.074   2.174  1.00  0.00     0.011 A 
BRANCH  16  21
HETATM   21  O   UNL     1      44.675 -18.661   4.871  1.00  0.00    -0.355 OA
HETATM   22  C   UNL     1      43.813 -18.570   6.004  1.00  0.00     0.210 C 
ENDBRANCH  16  21
ENDBRANCH  14  15
ENDBRANCH  12  14
ENDBRANCH   1  12
BRANCH   3  23
HETATM   23  N   UNL     1      43.841 -13.736   4.602  1.00  0.00    -0.259 NA
HETATM   24  H   UNL     1      43.389 -12.817   4.562  1.00  0.00     0.130 HD
BRANCH  23  25
HETATM   25  C   UNL     1      43.656 -14.337   5.914  1.00  0.00     0.121 C 
BRANCH  25  26
HETATM   26  C   UNL     1      44.926 -14.132   6.683  1.00  0.00    -0.022 C 
HETATM   27  C   UNL     1      45.063 -13.347   7.761  1.00  0.00     0.008 C 
ENDBRANCH  25  26
ENDBRANCH  23  25
ENDBRANCH   3  23
TORSDOF 7
ENDMDL
MODEL 9
REMARK VINA RESULT:      -7.3      2.208      3.161
REMARK  7 active torsions:
REMARK  status: ('A' for Active; 'I' for Inactive)
REMARK    1  A    between atoms: O_2  and  C_3 
REMARK    2  A    between atoms: C_4  and  C_5 
REMARK    3  A    between atoms: C_5  and  N_6 
REMARK    4  A    between atoms: N_6  and  C_7 
REMARK    5  A    between atoms: C_9  and  N_10 
REMARK    6  A    between atoms: N_10  and  C_11 
REMARK    7  A    between atoms: C_11  and  C_12 
ROOT
HETATM    1  C   UNL     1      41.177 -17.283   3.694  1.00  0.00     0.119 A 
HETATM    2  N   UNL     1      40.635 -16.617   2.656  1.00  0.00    -0.207 NA
HETATM    3  C   UNL     1      41.170 -16.801   1.443  1.00  0.00     0.181 A 
HETATM    4  N   UNL     1      42.182 -17.627   1.212  1.00  0.00    -0.330 N 
HETATM    5  H   UNL     1      42.455 -17.763   0.248  1.00  0.00     0.168 HD
HETATM    6  C   UNL     1      42.787 -18.280   2.208  1.00  0.00     0.048 A 
HETATM    7  C   UNL     1      42.315 -18.108   3.526  1.00  0.00     0.031 A 
HETATM    8  C   UNL     1      43.871 -19.126   1.934  1.00  0.00     0.030 A 
HETATM    9  C   UNL     1      44.514 -19.798   2.971  1.00  0.00     0.002 A 
HETATM   10  C   UNL     1      44.084 -19.624   4.283  1.00  0.00     0.001 A 
HETATM   11  C   UNL     1      43.000 -18.787   4.562  1.00  0.00     0.017 A 
ENDROOT
BRANCH   1  12
HETATM   12  N   UNL     1      40.642 -17.092   4.976  1.00  0.00    -0.272 NA
HETATM   13  H   UNL     1      39.662 -17.361   5.009  1.00  0.00     0.129 HD
BRANCH  12  14
HETATM   14  C   UNL     1      40.776 -15.753   5.570  1.00  0.00     0.135 C 
BRANCH  14  15
HETATM   15  C   UNL     1      42.187 -15.391   5.968  1.00  0.00    -0.012 A 
HETATM   16  C   UNL     1      42.813 -14.318   5.304  1.00  0.00     0.075 A 
HETATM   17  C   UNL     1      44.090 -13.890   5.678  1.00  0.00     0.037 A 
HETATM   18  C   UNL     1      44.778 -14.560   6.688  1.00  0.00     0.003 A 
HETATM   19  C   UNL     1      44.188 -15.647   7.329  1.00  0.00     0.001 A 
HETATM   20  C   UNL     1      42.900 -16.057   6.976  1.00  0.00     0.011 A 
BRANCH  16  21
HETATM   21  O   UNL     1      42.084 -13.678   4.333  1.00  0.00    -0.355 OA
HETATM   22  C   UNL     1      42.802 -13.491   3.114  1.00  0.00     0.210 C 
ENDBRANCH  16  21
ENDBRANCH  14  15
ENDBRANCH  12  14
ENDBRANCH   1  12
BRANCH   3  23
HETATM   23  N   UNL     1      40.569 -16.148   0.378  1.00  0.00    -0.259 NA
HETATM   24  H   UNL     1      39.749 -15.691   0.788  1.00  0.00     0.130 HD
BRANCH  23  25
HETATM   25  C   UNL     1      41.387 -15.177  -0.334  1.00  0.00     0.121 C 
BRANCH  25  26
HETATM   26  C   UNL     1      40.740 -14.935  -1.664  1.00  0.00    -0.022 C 
HETATM   27  C   UNL     1      40.936 -15.669  -2.768  1.00  0.00     0.008 C 
ENDBRANCH  25  26
ENDBRANCH  23  25
ENDBRANCH   3  23
TORSDOF 7
ENDMDL
MODEL 10
REMARK VINA RESULT:      -7.2      2.344      5.992
REMARK  7 active torsions:
REMARK  status: ('A' for Active; 'I' for Inactive)
REMARK    1  A    between atoms: O_2  and  C_3 
REMARK    2  A    between atoms: C_4  and  C_5 
REMARK    3  A    between atoms: C_5  and  N_6 
REMARK    4  A    between atoms: N_6  and  C_7 
REMARK    5  A    between atoms: C_9  and  N_10 
REMARK    6  A    between atoms: N_10  and  C_11 
REMARK    7  A    between atoms: C_11  and  C_12 
ROOT
HETATM    1  C   UNL     1      42.053 -16.658   4.319  1.00  0.00     0.119 A 
HETATM    2  N   UNL     1      40.941 -16.252   3.676  1.00  0.00    -0.207 NA
HETATM    3  C   UNL     1      40.542 -14.986   3.847  1.00  0.00     0.181 A 
HETATM    4  N   UNL     1      41.205 -14.109   4.590  1.00  0.00    -0.330 N 
HETATM    5  H   UNL     1      40.872 -13.154   4.583  1.00  0.00     0.168 HD
HETATM    6  C   UNL     1      42.289 -14.466   5.285  1.00  0.00     0.048 A 
HETATM    7  C   UNL     1      42.751 -15.796   5.197  1.00  0.00     0.031 A 
HETATM    8  C   UNL     1      42.952 -13.522   6.082  1.00  0.00     0.030 A 
HETATM    9  C   UNL     1      44.074 -13.893   6.819  1.00  0.00     0.002 A 
HETATM   10  C   UNL     1      44.533 -15.206   6.771  1.00  0.00     0.001 A 
HETATM   11  C   UNL     1      43.881 -16.150   5.973  1.00  0.00     0.017 A 
ENDROOT
BRANCH   1  12
HETATM   12  N   UNL     1      42.477 -17.986   4.166  1.00  0.00    -0.272 NA
HETATM   13  H   UNL     1      42.843 -18.357   5.039  1.00  0.00     0.129 HD
BRANCH  12  14
HETATM   14  C   UNL     1      43.451 -18.264   3.100  1.00  0.00     0.135 C 
BRANCH  14  15
HETATM   15  C   UNL     1      43.857 -19.716   2.994  1.00  0.00    -0.012 A 
HETATM   16  C   UNL     1      44.476 -20.317   4.107  1.00  0.00     0.075 A 
HETATM   17  C   UNL     1      44.809 -21.674   4.096  1.00  0.00     0.037 A 
HETATM   18  C   UNL     1      44.571 -22.437   2.954  1.00  0.00     0.003 A 
HETATM   19  C   UNL     1      43.994 -21.848   1.831  1.00  0.00     0.001 A 
HETATM   20  C   UNL     1      43.635 -20.498   1.852  1.00  0.00     0.011 A 
BRANCH  16  21
HETATM   21  O   UNL     1      44.666 -19.528   5.215  1.00  0.00    -0.355 OA
HETATM   22  C   UNL     1      44.104 -20.076   6.406  1.00  0.00     0.210 C 
ENDBRANCH  16  21
ENDBRANCH  14  15
ENDBRANCH  12  14
ENDBRANCH   1  12
BRANCH   3  23
HETATM   23  N   UNL     1      39.426 -14.569   3.138  1.00  0.00    -0.259 NA
HETATM   24  H   UNL     1      39.512 -13.549   3.103  1.00  0.00     0.130 HD
BRANCH  23  25
HETATM   25  C   UNL     1      39.268 -15.111   1.798  1.00  0.00     0.121 C 
BRANCH  25  26
HETATM   26  C   UNL     1      39.897 -14.141   0.845  1.00  0.00    -0.022 C 
HETATM   27  C   UNL     1      40.063 -14.341  -0.470  1.00  0.00     0.008 C 
ENDBRANCH  25  26
ENDBRANCH  23  25
ENDBRANCH   3  23
TORSDOF 7
ENDMDL
