MODEL 1
REMARK VINA RESULT:      -9.2      0.000      0.000
REMARK  7 active torsions:
REMARK  status: ('A' for Active; 'I' for Inactive)
REMARK    1  A    between atoms: C_3  and  C_4 
REMARK       I    between atoms: C_4  and  N_5 
REMARK    2  A    between atoms: C_8  and  N_9 
REMARK       I    between atoms: N_9  and  C_10 
REMARK    3  A    between atoms: C_10  and  C_11 
REMARK    4  A    between atoms: C_11  and  N_12 
REMARK       I    between atoms: N_15  and  C_16 
REMARK    5  A    between atoms: C_16  and  C_17 
REMARK    6  A    between atoms: C_32  and  C_33 
REMARK    7  A    between atoms: C_33  and  O_34 
ROOT
HETATM    1  C   UNL     1      41.341 -11.504   5.641  1.00  0.00     0.375 C 
ENDROOT
BRANCH   1   2
HETATM    2  C   UNL     1      41.581 -10.523   6.797  1.00  0.00     0.251 C 
HETATM    3  N   UNL     1      41.531 -11.148   8.030  1.00  0.00    -0.319 N 
HETATM    4  H   UNL     1      41.445 -12.159   8.017  1.00  0.00     0.169 HD
HETATM    5  O   UNL     1      41.897  -9.356   6.583  1.00  0.00    -0.271 OA
BRANCH   3   6
HETATM    6  C   UNL     1      41.913 -10.554   9.210  1.00  0.00     0.094 C 
HETATM    7  S   UNL     1      40.681  -9.575   9.842  1.00  0.00    -0.065 SA
HETATM    8  C   UNL     1      41.505  -9.364  11.330  1.00  0.00     0.081 C 
HETATM    9  C   UNL     1      42.788  -9.905  11.274  1.00  0.00    -0.020 C 
HETATM   10  C   UNL     1      43.804  -9.806  12.377  1.00  0.00     0.051 C 
HETATM   11  C   UNL     1      43.042 -10.578  10.001  1.00  0.00     0.080 C 
BRANCH   8  12
HETATM   12  C   UNL     1      40.858  -8.676  12.446  1.00  0.00     0.256 C 
HETATM   13  N   UNL     1      40.735  -7.317  12.351  1.00  0.00    -0.365 N 
HETATM   14  H   UNL     1      41.063  -6.802  11.548  1.00  0.00     0.159 HD
HETATM   15  H   UNL     1      40.276  -6.832  13.109  1.00  0.00     0.159 HD
HETATM   16  O   UNL     1      40.415  -9.228  13.450  1.00  0.00    -0.267 OA
ENDBRANCH   8  12
BRANCH  11  17
HETATM   17  C   UNL     1      44.328 -11.161   9.616  1.00  0.00     0.296 C 
HETATM   18  O   UNL     1      45.312 -10.491   9.319  1.00  0.00    -0.259 OA
BRANCH  17  19
HETATM   19  O   UNL     1      44.258 -12.521   9.480  1.00  0.00    -0.322 OA
HETATM   20  C   UNL     1      44.701 -12.996   8.211  1.00  0.00     0.213 C 
ENDBRANCH  17  19
ENDBRANCH  11  17
ENDBRANCH   3   6
ENDBRANCH   1   2
BRANCH   1  21
HETATM   21  N   UNL     1      40.326 -12.516   6.009  1.00  0.00     0.100 N 
HETATM   22  C   UNL     1      39.318 -12.685   4.933  1.00  0.00     0.293 C 
HETATM   23  C   UNL     1      39.831 -13.373   3.651  1.00  0.00     0.156 C 
HETATM   24  N   UNL     1      40.594 -14.597   3.913  1.00  0.00    -0.344 N 
HETATM   25  C   UNL     1      40.712 -15.513   2.855  1.00  0.00     0.262 C 
HETATM   26  C   UNL     1      41.523 -14.550   5.047  1.00  0.00     0.156 C 
HETATM   27  O   UNL     1      40.072 -15.366   1.814  1.00  0.00    -0.267 OA
HETATM   28  C   UNL     1      40.939 -13.832   6.277  1.00  0.00     0.293 C 
BRANCH  25  29
HETATM   29  C   UNL     1      41.578 -16.656   3.041  1.00  0.00     0.096 A 
HETATM   30  S   UNL     1      41.773 -17.338   4.589  1.00  0.00    -0.082 SA
HETATM   31  C   UNL     1      42.889 -18.518   4.015  1.00  0.00     0.019 A 
HETATM   32  C   UNL     1      43.152 -18.353   2.651  1.00  0.00     0.004 A 
HETATM   33  C   UNL     1      43.502 -19.536   4.772  1.00  0.00     0.043 A 
HETATM   34  C   UNL     1      42.387 -17.262   2.106  1.00  0.00     0.068 A 
HETATM   35  C   UNL     1      44.083 -19.238   2.045  1.00  0.00     0.016 A 
HETATM   36 CL   UNL     1      42.477 -16.805   0.452  1.00  0.00    -0.082 Cl
HETATM   37  C   UNL     1      44.699 -20.248   2.793  1.00  0.00     0.025 A 
HETATM   38  C   UNL     1      44.402 -20.393   4.139  1.00  0.00     0.035 A 
HETATM   39 CL   UNL     1      45.157 -21.647   5.045  1.00  0.00    -0.084 Cl
ENDBRANCH  25  29
ENDBRANCH   1  21
TORSDOF 7
ENDMDL
MODEL 2
REMARK VINA RESULT:      -9.1      5.256      9.123
REMARK  7 active torsions:
REMARK  status: ('A' for Active; 'I' for Inactive)
REMARK    1  A    between atoms: C_3  and  C_4 
REMARK       I    between atoms: C_4  and  N_5 
REMARK    2  A    between atoms: C_8  and  N_9 
REMARK       I    between atoms: N_9  and  C_10 
REMARK    3  A    between atoms: C_10  and  C_11 
REMARK    4  A    between atoms: C_11  and  N_12 
REMARK       I    between atoms: N_15  and  C_16 
REMARK    5  A    between atoms: C_16  and  C_17 
REMARK    6  A    between atoms: C_32  and  C_33 
REMARK    7  A    between atoms: C_33  and  O_34 
ROOT
HETATM    1  C   UNL     1      42.431 -14.504   5.770  1.00  0.00     0.375 C 
ENDROOT
BRANCH   1   2
HETATM    2  C   UNL     1      42.444 -16.014   5.492  1.00  0.00     0.251 C 
HETATM    3  N   UNL     1      43.312 -16.347   4.468  1.00  0.00    -0.319 N 
HETATM    4  H   UNL     1      43.888 -15.596   4.105  1.00  0.00     0.169 HD
HETATM    5  O   UNL     1      41.827 -16.796   6.209  1.00  0.00    -0.271 OA
BRANCH   3   6
HETATM    6  C   UNL     1      43.673 -17.637   4.154  1.00  0.00     0.094 C 
HETATM    7  S   UNL     1      44.324 -18.445   5.495  1.00  0.00    -0.065 SA
HETATM    8  C   UNL     1      44.302 -19.960   4.692  1.00  0.00     0.081 C 
HETATM    9  C   UNL     1      43.954 -19.811   3.351  1.00  0.00    -0.020 C 
HETATM   10  C   UNL     1      43.933 -20.928   2.345  1.00  0.00     0.051 C 
HETATM   11  C   UNL     1      43.618 -18.426   3.024  1.00  0.00     0.080 C 
BRANCH   8  12
HETATM   12  C   UNL     1      44.638 -21.187   5.411  1.00  0.00     0.256 C 
HETATM   13  N   UNL     1      43.979 -21.418   6.587  1.00  0.00    -0.365 N 
HETATM   14  H   UNL     1      43.284 -20.782   6.947  1.00  0.00     0.159 HD
HETATM   15  H   UNL     1      44.191 -22.271   7.085  1.00  0.00     0.159 HD
HETATM   16  O   UNL     1      45.457 -22.021   5.033  1.00  0.00    -0.267 OA
ENDBRANCH   8  12
BRANCH  11  17
HETATM   17  C   UNL     1      43.301 -17.946   1.677  1.00  0.00     0.296 C 
HETATM   18  O   UNL     1      44.114 -17.378   0.955  1.00  0.00    -0.259 OA
BRANCH  17  19
HETATM   19  O   UNL     1      41.970 -18.068   1.385  1.00  0.00    -0.322 OA
HETATM   20  C   UNL     1      41.436 -16.962   0.662  1.00  0.00     0.213 C 
ENDBRANCH  17  19
ENDBRANCH  11  17
ENDBRANCH   3   6
ENDBRANCH   1   2
BRANCH   1  21
HETATM   21  N   UNL     1      41.048 -13.976   5.756  1.00  0.00     0.100 N 
HETATM   22  C   UNL     1      41.036 -12.499   5.608  1.00  0.00     0.293 C 
HETATM   23  C   UNL     1      41.466 -11.972   4.224  1.00  0.00     0.156 C 
HETATM   24  N   UNL     1      40.809 -12.661   3.109  1.00  0.00    -0.344 N 
HETATM   25  C   UNL     1      40.775 -11.988   1.876  1.00  0.00     0.262 C 
HETATM   26  C   UNL     1      40.667 -14.115   3.240  1.00  0.00     0.156 C 
HETATM   27  O   UNL     1      41.139 -10.817   1.782  1.00  0.00    -0.267 OA
HETATM   28  C   UNL     1      40.254 -14.556   4.655  1.00  0.00     0.293 C 
BRANCH  25  29
HETATM   29  C   UNL     1      40.264 -12.704   0.728  1.00  0.00     0.096 A 
HETATM   30  S   UNL     1      41.333 -13.518  -0.319  1.00  0.00    -0.082 SA
HETATM   31  C   UNL     1      40.054 -14.029  -1.354  1.00  0.00     0.019 A 
HETATM   32  C   UNL     1      38.819 -13.529  -0.928  1.00  0.00     0.004 A 
HETATM   33  C   UNL     1      40.173 -14.836  -2.503  1.00  0.00     0.043 A 
HETATM   34  C   UNL     1      38.964 -12.756   0.278  1.00  0.00     0.068 A 
HETATM   35  C   UNL     1      37.674 -13.844  -1.707  1.00  0.00     0.016 A 
HETATM   36 CL   UNL     1      37.630 -12.011   1.064  1.00  0.00    -0.082 Cl
HETATM   37  C   UNL     1      37.785 -14.640  -2.852  1.00  0.00     0.025 A 
HETATM   38  C   UNL     1      39.023 -15.132  -3.236  1.00  0.00     0.035 A 
HETATM   39 CL   UNL     1      39.146 -16.122  -4.639  1.00  0.00    -0.084 Cl
ENDBRANCH  25  29
ENDBRANCH   1  21
TORSDOF 7
ENDMDL
MODEL 3
REMARK VINA RESULT:      -9.1      2.082      2.454
REMARK  7 active torsions:
REMARK  status: ('A' for Active; 'I' for Inactive)
REMARK    1  A    between atoms: C_3  and  C_4 
REMARK       I    between atoms: C_4  and  N_5 
REMARK    2  A    between atoms: C_8  and  N_9 
REMARK       I    between atoms: N_9  and  C_10 
REMARK    3  A    between atoms: C_10  and  C_11 
REMARK    4  A    between atoms: C_11  and  N_12 
REMARK       I    between atoms: N_15  and  C_16 
REMARK    5  A    between atoms: C_16  and  C_17 
REMARK    6  A    between atoms: C_32  and  C_33 
REMARK    7  A    between atoms: C_33  and  O_34 
ROOT
HETATM    1  C   UNL     1      39.168 -12.911   6.667  1.00  0.00     0.375 C 
ENDROOT
BRANCH   1   2
HETATM    2  C   UNL     1      39.246 -11.565   7.401  1.00  0.00     0.251 C 
HETATM    3  N   UNL     1      39.630 -11.714   8.722  1.00  0.00    -0.319 N 
HETATM    4  H   UNL     1      39.901 -12.648   9.008  1.00  0.00     0.169 HD
HETATM    5  O   UNL     1      39.093 -10.505   6.802  1.00  0.00    -0.271 OA
BRANCH   3   6
HETATM    6  C   UNL     1      39.977 -10.668   9.545  1.00  0.00     0.094 C 
HETATM    7  S   UNL     1      38.611  -9.843  10.116  1.00  0.00    -0.065 SA
HETATM    8  C   UNL     1      39.531  -8.932  11.238  1.00  0.00     0.081 C 
HETATM    9  C   UNL     1      40.897  -9.143  11.055  1.00  0.00    -0.020 C 
HETATM   10  C   UNL     1      41.980  -8.426  11.810  1.00  0.00     0.051 C 
HETATM   11  C   UNL     1      41.161 -10.146  10.024  1.00  0.00     0.080 C 
BRANCH   8  12
HETATM   12  C   UNL     1      38.871  -8.063  12.210  1.00  0.00     0.256 C 
HETATM   13  N   UNL     1      37.842  -7.286  11.751  1.00  0.00    -0.365 N 
HETATM   14  H   UNL     1      37.539  -7.310  10.789  1.00  0.00     0.159 HD
HETATM   15  H   UNL     1      37.367  -6.693  12.416  1.00  0.00     0.159 HD
HETATM   16  O   UNL     1      39.166  -7.988  13.400  1.00  0.00    -0.267 OA
ENDBRANCH   8  12
BRANCH  11  17
HETATM   17  C   UNL     1      42.496 -10.512   9.548  1.00  0.00     0.296 C 
HETATM   18  O   UNL     1      42.914 -10.232   8.429  1.00  0.00    -0.259 OA
BRANCH  17  19
HETATM   19  O   UNL     1      43.153 -11.325  10.432  1.00  0.00    -0.322 OA
HETATM   20  C   UNL     1      44.508 -10.944  10.664  1.00  0.00     0.213 C 
ENDBRANCH  17  19
ENDBRANCH  11  17
ENDBRANCH   3   6
ENDBRANCH   1   2
BRANCH   1  21
HETATM   21  N   UNL     1      39.691 -12.791   5.287  1.00  0.00     0.100 N 
HETATM   22  C   UNL     1      40.955 -12.013   5.256  1.00  0.00     0.293 C 
HETATM   23  C   UNL     1      42.179 -12.720   5.874  1.00  0.00     0.156 C 
HETATM   24  N   UNL     1      42.349 -14.101   5.411  1.00  0.00    -0.344 N 
HETATM   25  C   UNL     1      43.629 -14.664   5.545  1.00  0.00     0.262 C 
HETATM   26  C   UNL     1      41.124 -14.899   5.293  1.00  0.00     0.156 C 
HETATM   27  O   UNL     1      44.592 -13.978   5.884  1.00  0.00    -0.267 OA
HETATM   28  C   UNL     1      39.948 -14.114   4.685  1.00  0.00     0.293 C 
BRANCH  25  29
HETATM   29  C   UNL     1      43.788 -16.067   5.232  1.00  0.00     0.096 A 
HETATM   30  S   UNL     1      44.235 -17.169   6.451  1.00  0.00    -0.082 SA
HETATM   31  C   UNL     1      44.250 -18.497   5.354  1.00  0.00     0.019 A 
HETATM   32  C   UNL     1      43.966 -18.085   4.047  1.00  0.00     0.004 A 
HETATM   33  C   UNL     1      44.516 -19.845   5.667  1.00  0.00     0.043 A 
HETATM   34  C   UNL     1      43.709 -16.669   3.997  1.00  0.00     0.068 A 
HETATM   35  C   UNL     1      43.976 -19.072   3.026  1.00  0.00     0.016 A 
HETATM   36 CL   UNL     1      43.321 -15.852   2.536  1.00  0.00    -0.082 Cl
HETATM   37  C   UNL     1      44.245 -20.411   3.329  1.00  0.00     0.025 A 
HETATM   38  C   UNL     1      44.505 -20.787   4.637  1.00  0.00     0.035 A 
HETATM   39 CL   UNL     1      44.822 -22.440   5.000  1.00  0.00    -0.084 Cl
ENDBRANCH  25  29
ENDBRANCH   1  21
TORSDOF 7
ENDMDL
MODEL 4
REMARK VINA RESULT:      -9.0      6.667      9.950
REMARK  7 active torsions:
REMARK  status: ('A' for Active; 'I' for Inactive)
REMARK    1  A    between atoms: C_3  and  C_4 
REMARK       I    between atoms: C_4  and  N_5 
REMARK    2  A    between atoms: C_8  and  N_9 
REMARK       I    between atoms: N_9  and  C_10 
REMARK    3  A    between atoms: C_10  and  C_11 
REMARK    4  A    between atoms: C_11  and  N_12 
REMARK       I    between atoms: N_15  and  C_16 
REMARK    5  A    between atoms: C_16  and  C_17 
REMARK    6  A    between atoms: C_32  and  C_33 
REMARK    7  A    between atoms: C_33  and  O_34 
ROOT
HETATM    1  C   UNL     1      40.503 -15.396   2.468  1.00  0.00     0.375 C 
ENDROOT
BRANCH   1   2
HETATM    2  C   UNL     1      41.604 -15.925   3.399  1.00  0.00     0.251 C 
HETATM    3  N   UNL     1      41.469 -17.279   3.646  1.00  0.00    -0.319 N 
HETATM    4  H   UNL     1      40.747 -17.762   3.123  1.00  0.00     0.169 HD
HETATM    5  O   UNL     1      42.535 -15.208   3.751  1.00  0.00    -0.271 OA
BRANCH   3   6
HETATM    6  C   UNL     1      42.425 -18.046   4.272  1.00  0.00     0.094 C 
HETATM    7  S   UNL     1      42.362 -17.869   5.956  1.00  0.00    -0.065 SA
HETATM    8  C   UNL     1      43.452 -19.167   6.213  1.00  0.00     0.081 C 
HETATM    9  C   UNL     1      43.985 -19.619   5.007  1.00  0.00    -0.020 C 
HETATM   10  C   UNL     1      45.041 -20.682   4.887  1.00  0.00     0.051 C 
HETATM   11  C   UNL     1      43.403 -18.927   3.858  1.00  0.00     0.080 C 
BRANCH   8  12
HETATM   12  C   UNL     1      43.728 -19.650   7.565  1.00  0.00     0.256 C 
HETATM   13  N   UNL     1      44.142 -18.724   8.483  1.00  0.00    -0.365 N 
HETATM   14  H   UNL     1      44.248 -17.748   8.251  1.00  0.00     0.159 HD
HETATM   15  H   UNL     1      44.321 -19.043   9.424  1.00  0.00     0.159 HD
HETATM   16  O   UNL     1      43.607 -20.815   7.932  1.00  0.00    -0.267 OA
ENDBRANCH   8  12
BRANCH  11  17
HETATM   17  C   UNL     1      43.829 -19.122   2.471  1.00  0.00     0.296 C 
HETATM   18  O   UNL     1      43.885 -20.222   1.932  1.00  0.00    -0.259 OA
BRANCH  17  19
HETATM   19  O   UNL     1      44.293 -17.965   1.906  1.00  0.00    -0.322 OA
HETATM   20  C   UNL     1      43.565 -17.557   0.750  1.00  0.00     0.213 C 
ENDBRANCH  17  19
ENDBRANCH  11  17
ENDBRANCH   3   6
ENDBRANCH   1   2
BRANCH   1  21
HETATM   21  N   UNL     1      40.750 -13.981   2.109  1.00  0.00     0.100 N 
HETATM   22  C   UNL     1      41.908 -13.852   1.190  1.00  0.00     0.293 C 
HETATM   23  C   UNL     1      41.678 -14.385  -0.239  1.00  0.00     0.156 C 
HETATM   24  N   UNL     1      40.423 -13.921  -0.838  1.00  0.00    -0.344 N 
HETATM   25  C   UNL     1      40.331 -13.965  -2.239  1.00  0.00     0.262 C 
HETATM   26  C   UNL     1      39.254 -13.898   0.047  1.00  0.00     0.156 C 
HETATM   27  O   UNL     1      41.314 -14.229  -2.931  1.00  0.00    -0.267 OA
HETATM   28  C   UNL     1      39.574 -13.371   1.457  1.00  0.00     0.293 C 
BRANCH  25  29
HETATM   29  C   UNL     1      39.056 -13.652  -2.845  1.00  0.00     0.096 A 
HETATM   30  S   UNL     1      38.358 -12.114  -2.623  1.00  0.00    -0.082 SA
HETATM   31  C   UNL     1      36.963 -12.529  -3.544  1.00  0.00     0.019 A 
HETATM   32  C   UNL     1      37.008 -13.860  -3.973  1.00  0.00     0.004 A 
HETATM   33  C   UNL     1      35.876 -11.685  -3.852  1.00  0.00     0.043 A 
HETATM   34  C   UNL     1      38.228 -14.497  -3.550  1.00  0.00     0.068 A 
HETATM   35  C   UNL     1      35.904 -14.352  -4.719  1.00  0.00     0.016 A 
HETATM   36 CL   UNL     1      38.594 -16.133  -3.923  1.00  0.00    -0.082 Cl
HETATM   37  C   UNL     1      34.820 -13.522  -5.023  1.00  0.00     0.025 A 
HETATM   38  C   UNL     1      34.816 -12.203  -4.597  1.00  0.00     0.035 A 
HETATM   39 CL   UNL     1      33.483 -11.187  -4.988  1.00  0.00    -0.084 Cl
ENDBRANCH  25  29
ENDBRANCH   1  21
TORSDOF 7
ENDMDL
MODEL 5
REMARK VINA RESULT:      -8.9      4.742      8.958
REMARK  7 active torsions:
REMARK  status: ('A' for Active; 'I' for Inactive)
REMARK    1  A    between atoms: C_3  and  C_4 
REMARK       I    between atoms: C_4  and  N_5 
REMARK    2  A    between atoms: C_8  and  N_9 
REMARK       I    between atoms: N_9  and  C_10 
REMARK    3  A    between atoms: C_10  and  C_11 
REMARK    4  A    between atoms: C_11  and  N_12 
REMARK       I    between atoms: N_15  and  C_16 
REMARK    5  A    between atoms: C_16  and  C_17 
REMARK    6  A    between atoms: C_32  and  C_33 
REMARK    7  A    between atoms: C_33  and  O_34 
ROOT
HETATM    1  C   UNL     1      40.413 -12.014   3.465  1.00  0.00     0.375 C 
ENDROOT
BRANCH   1   2
HETATM    2  C   UNL     1      40.580 -12.081   1.940  1.00  0.00     0.251 C 
HETATM    3  N   UNL     1      39.953 -13.188   1.397  1.00  0.00    -0.319 N 
HETATM    4  H   UNL     1      39.394 -13.746   2.034  1.00  0.00     0.169 HD
HETATM    5  O   UNL     1      41.113 -11.167   1.319  1.00  0.00    -0.271 OA
BRANCH   3   6
HETATM    6  C   UNL     1      39.768 -13.383   0.047  1.00  0.00     0.094 C 
HETATM    7  S   UNL     1      41.028 -14.292  -0.630  1.00  0.00    -0.065 SA
HETATM    8  C   UNL     1      40.198 -14.483  -2.117  1.00  0.00     0.081 C 
HETATM    9  C   UNL     1      39.036 -13.713  -2.145  1.00  0.00    -0.020 C 
HETATM   10  C   UNL     1      38.129 -13.580  -3.335  1.00  0.00     0.051 C 
HETATM   11  C   UNL     1      38.803 -13.030  -0.873  1.00  0.00     0.080 C 
BRANCH   8  12
HETATM   12  C   UNL     1      40.733 -15.354  -3.161  1.00  0.00     0.256 C 
HETATM   13  N   UNL     1      42.051 -15.192  -3.490  1.00  0.00    -0.365 N 
HETATM   14  H   UNL     1      42.639 -14.510  -3.034  1.00  0.00     0.159 HD
HETATM   15  H   UNL     1      42.437 -15.798  -4.199  1.00  0.00     0.159 HD
HETATM   16  O   UNL     1      40.092 -16.218  -3.752  1.00  0.00    -0.267 OA
ENDBRANCH   8  12
BRANCH  11  17
HETATM   17  C   UNL     1      37.715 -12.081  -0.630  1.00  0.00     0.296 C 
HETATM   18  O   UNL     1      37.479 -11.124  -1.360  1.00  0.00    -0.259 OA
BRANCH  17  19
HETATM   19  O   UNL     1      37.099 -12.300   0.573  1.00  0.00    -0.322 OA
HETATM   20  C   UNL     1      36.921 -11.118   1.350  1.00  0.00     0.213 C 
ENDBRANCH  17  19
ENDBRANCH  11  17
ENDBRANCH   3   6
ENDBRANCH   1   2
BRANCH   1  21
HETATM   21  N   UNL     1      41.729 -12.045   4.142  1.00  0.00     0.100 N 
HETATM   22  C   UNL     1      41.580 -12.312   5.595  1.00  0.00     0.293 C 
HETATM   23  C   UNL     1      41.131 -13.742   5.961  1.00  0.00     0.156 C 
HETATM   24  N   UNL     1      41.891 -14.785   5.265  1.00  0.00    -0.344 N 
HETATM   25  C   UNL     1      41.882 -16.068   5.838  1.00  0.00     0.262 C 
HETATM   26  C   UNL     1      42.189 -14.535   3.851  1.00  0.00     0.156 C 
HETATM   27  O   UNL     1      41.394 -16.263   6.951  1.00  0.00    -0.267 OA
HETATM   28  C   UNL     1      42.611 -13.082   3.571  1.00  0.00     0.293 C 
BRANCH  25  29
HETATM   29  C   UNL     1      42.500 -17.145   5.098  1.00  0.00     0.096 A 
HETATM   30  S   UNL     1      41.763 -17.745   3.684  1.00  0.00    -0.082 SA
HETATM   31  C   UNL     1      42.992 -18.929   3.452  1.00  0.00     0.019 A 
HETATM   32  C   UNL     1      43.934 -18.900   4.486  1.00  0.00     0.004 A 
HETATM   33  C   UNL     1      43.087 -19.845   2.385  1.00  0.00     0.043 A 
HETATM   34  C   UNL     1      43.626 -17.862   5.435  1.00  0.00     0.068 A 
HETATM   35  C   UNL     1      44.992 -19.846   4.443  1.00  0.00     0.016 A 
HETATM   36 CL   UNL     1      44.596 -17.560   6.821  1.00  0.00    -0.082 Cl
HETATM   37  C   UNL     1      45.089 -20.762   3.390  1.00  0.00     0.025 A 
HETATM   38  C   UNL     1      44.148 -20.752   2.373  1.00  0.00     0.035 A 
HETATM   39 CL   UNL     1      44.285 -21.875   1.076  1.00  0.00    -0.084 Cl
ENDBRANCH  25  29
ENDBRANCH   1  21
TORSDOF 7
ENDMDL
MODEL 6
REMARK VINA RESULT:      -8.7      5.006      8.915
REMARK  7 active torsions:
REMARK  status: ('A' for Active; 'I' for Inactive)
REMARK    1  A    between atoms: C_3  and  C_4 
REMARK       I    between atoms: C_4  and  N_5 
REMARK    2  A    between atoms: C_8  and  N_9 
REMARK       I    between atoms: N_9  and  C_10 
REMARK    3  A    between atoms: C_10  and  C_11 
REMARK    4  A    between atoms: C_11  and  N_12 
REMARK       I    between atoms: N_15  and  C_16 
REMARK    5  A    between atoms: C_16  and  C_17 
REMARK    6  A    between atoms: C_32  and  C_33 
REMARK    7  A    between atoms: C_33  and  O_34 
ROOT
HETATM    1  C   UNL     1      40.259 -12.060   2.677  1.00  0.00     0.375 C 
ENDROOT
BRANCH   1   2
HETATM    2  C   UNL     1      40.534 -11.499   1.275  1.00  0.00     0.251 C 
HETATM    3  N   UNL     1      40.320 -12.442   0.286  1.00  0.00    -0.319 N 
HETATM    4  H   UNL     1      39.925 -13.327   0.587  1.00  0.00     0.169 HD
HETATM    5  O   UNL     1      40.793 -10.312   1.106  1.00  0.00    -0.271 OA
BRANCH   3   6
HETATM    6  C   UNL     1      40.290 -12.154  -1.059  1.00  0.00     0.094 C 
HETATM    7  S   UNL     1      38.700 -12.029  -1.634  1.00  0.00    -0.065 SA
HETATM    8  C   UNL     1      39.211 -11.402  -3.145  1.00  0.00     0.081 C 
HETATM    9  C   UNL     1      40.599 -11.447  -3.262  1.00  0.00    -0.020 C 
HETATM   10  C   UNL     1      41.364 -11.061  -4.497  1.00  0.00     0.051 C 
HETATM   11  C   UNL     1      41.236 -11.930  -2.037  1.00  0.00     0.080 C 
BRANCH   8  12
HETATM   12  C   UNL     1      38.234 -10.922  -4.120  1.00  0.00     0.256 C 
HETATM   13  N   UNL     1      37.363 -11.844  -4.633  1.00  0.00    -0.365 N 
HETATM   14  H   UNL     1      37.380 -12.813  -4.352  1.00  0.00     0.159 HD
HETATM   15  H   UNL     1      36.673 -11.522  -5.296  1.00  0.00     0.159 HD
HETATM   16  O   UNL     1      38.135  -9.759  -4.502  1.00  0.00    -0.267 OA
ENDBRANCH   8  12
BRANCH  11  17
HETATM   17  C   UNL     1      42.672 -12.171  -1.890  1.00  0.00     0.296 C 
HETATM   18  O   UNL     1      43.278 -13.040  -2.509  1.00  0.00    -0.259 OA
BRANCH  17  19
HETATM   19  O   UNL     1      43.220 -11.424  -0.882  1.00  0.00    -0.322 OA
HETATM   20  C   UNL     1      43.548 -10.091  -1.268  1.00  0.00     0.213 C 
ENDBRANCH  17  19
ENDBRANCH  11  17
ENDBRANCH   3   6
ENDBRANCH   1   2
BRANCH   1  21
HETATM   21  N   UNL     1      41.479 -12.012   3.514  1.00  0.00     0.100 N 
HETATM   22  C   UNL     1      41.154 -12.190   4.951  1.00  0.00     0.293 C 
HETATM   23  C   UNL     1      40.690 -13.606   5.352  1.00  0.00     0.156 C 
HETATM   24  N   UNL     1      41.551 -14.670   4.828  1.00  0.00    -0.344 N 
HETATM   25  C   UNL     1      41.495 -15.914   5.480  1.00  0.00     0.262 C 
HETATM   26  C   UNL     1      42.021 -14.502   3.449  1.00  0.00     0.156 C 
HETATM   27  O   UNL     1      40.874 -16.051   6.533  1.00  0.00    -0.267 OA
HETATM   28  C   UNL     1      42.447 -13.059   3.127  1.00  0.00     0.293 C 
BRANCH  25  29
HETATM   29  C   UNL     1      42.223 -17.018   4.895  1.00  0.00     0.096 A 
HETATM   30  S   UNL     1      41.696 -17.711   3.431  1.00  0.00    -0.082 SA
HETATM   31  C   UNL     1      42.959 -18.881   3.439  1.00  0.00     0.019 A 
HETATM   32  C   UNL     1      43.749 -18.775   4.590  1.00  0.00     0.004 A 
HETATM   33  C   UNL     1      43.212 -19.854   2.451  1.00  0.00     0.043 A 
HETATM   34  C   UNL     1      43.299 -17.692   5.426  1.00  0.00     0.068 A 
HETATM   35  C   UNL     1      44.814 -19.702   4.748  1.00  0.00     0.016 A 
HETATM   36 CL   UNL     1      44.065 -17.293   6.911  1.00  0.00    -0.082 Cl
HETATM   37  C   UNL     1      45.067 -20.673   3.773  1.00  0.00     0.025 A 
HETATM   38  C   UNL     1      44.275 -20.739   2.638  1.00  0.00     0.035 A 
HETATM   39 CL   UNL     1      44.603 -21.930   1.440  1.00  0.00    -0.084 Cl
ENDBRANCH  25  29
ENDBRANCH   1  21
TORSDOF 7
ENDMDL
MODEL 7
REMARK VINA RESULT:      -8.4      6.047     10.441
REMARK  7 active torsions:
REMARK  status: ('A' for Active; 'I' for Inactive)
REMARK    1  A    between atoms: C_3  and  C_4 
REMARK       I    between atoms: C_4  and  N_5 
REMARK    2  A    between atoms: C_8  and  N_9 
REMARK       I    between atoms: N_9  and  C_10 
REMARK    3  A    between atoms: C_10  and  C_11 
REMARK    4  A    between atoms: C_11  and  N_12 
REMARK       I    between atoms: N_15  and  C_16 
REMARK    5  A    between atoms: C_16  and  C_17 
REMARK    6  A    between atoms: C_32  and  C_33 
REMARK    7  A    between atoms: C_33  and  O_34 
ROOT
HETATM    1  C   UNL     1      39.157 -13.163   1.021  1.00  0.00     0.375 C 
ENDROOT
BRANCH   1   2
HETATM    2  C   UNL     1      37.926 -12.870   0.151  1.00  0.00     0.251 C 
HETATM    3  N   UNL     1      38.270 -12.309  -1.066  1.00  0.00    -0.319 N 
HETATM    4  H   UNL     1      39.262 -12.254  -1.270  1.00  0.00     0.169 HD
HETATM    5  O   UNL     1      36.804 -13.225   0.498  1.00  0.00    -0.271 OA
BRANCH   3   6
HETATM    6  C   UNL     1      37.392 -12.140  -2.112  1.00  0.00     0.094 C 
HETATM    7  S   UNL     1      37.606 -13.328  -3.302  1.00  0.00    -0.065 SA
HETATM    8  C   UNL     1      36.177 -12.867  -4.130  1.00  0.00     0.081 C 
HETATM    9  C   UNL     1      35.636 -11.704  -3.586  1.00  0.00    -0.020 C 
HETATM   10  C   UNL     1      34.439 -10.982  -4.136  1.00  0.00     0.051 C 
HETATM   11  C   UNL     1      36.381 -11.252  -2.411  1.00  0.00     0.080 C 
BRANCH   8  12
HETATM   12  C   UNL     1      35.685 -13.655  -5.258  1.00  0.00     0.256 C 
HETATM   13  N   UNL     1      36.112 -13.288  -6.505  1.00  0.00    -0.365 N 
HETATM   14  H   UNL     1      36.745 -12.516  -6.651  1.00  0.00     0.159 HD
HETATM   15  H   UNL     1      35.791 -13.835  -7.292  1.00  0.00     0.159 HD
HETATM   16  O   UNL     1      34.930 -14.619  -5.166  1.00  0.00    -0.267 OA
ENDBRANCH   8  12
BRANCH  11  17
HETATM   17  C   UNL     1      36.105 -10.012  -1.683  1.00  0.00     0.296 C 
HETATM   18  O   UNL     1      35.796  -9.982  -0.496  1.00  0.00    -0.259 OA
BRANCH  17  19
HETATM   19  O   UNL     1      36.086  -8.921  -2.509  1.00  0.00    -0.322 OA
HETATM   20  C   UNL     1      35.915  -7.683  -1.823  1.00  0.00     0.213 C 
ENDBRANCH  17  19
ENDBRANCH  11  17
ENDBRANCH   3   6
ENDBRANCH   1   2
BRANCH   1  21
HETATM   21  N   UNL     1      40.256 -13.730   0.207  1.00  0.00     0.100 N 
HETATM   22  C   UNL     1      41.489 -12.912   0.322  1.00  0.00     0.293 C 
HETATM   23  C   UNL     1      42.197 -12.976   1.691  1.00  0.00     0.156 C 
HETATM   24  N   UNL     1      42.373 -14.343   2.191  1.00  0.00    -0.344 N 
HETATM   25  C   UNL     1      43.368 -14.543   3.162  1.00  0.00     0.262 C 
HETATM   26  C   UNL     1      41.239 -15.253   1.998  1.00  0.00     0.156 C 
HETATM   27  O   UNL     1      44.157 -13.645   3.457  1.00  0.00    -0.267 OA
HETATM   28  C   UNL     1      40.579 -15.111   0.615  1.00  0.00     0.293 C 
BRANCH  25  29
HETATM   29  C   UNL     1      43.464 -15.849   3.776  1.00  0.00     0.096 A 
HETATM   30  S   UNL     1      43.168 -16.034   5.443  1.00  0.00    -0.082 SA
HETATM   31  C   UNL     1      43.498 -17.724   5.394  1.00  0.00     0.019 A 
HETATM   32  C   UNL     1      43.887 -18.133   4.113  1.00  0.00     0.004 A 
HETATM   33  C   UNL     1      43.415 -18.630   6.470  1.00  0.00     0.043 A 
HETATM   34  C   UNL     1      43.868 -17.027   3.191  1.00  0.00     0.068 A 
HETATM   35  C   UNL     1      44.222 -19.501   3.930  1.00  0.00     0.016 A 
HETATM   36 CL   UNL     1      44.287 -17.200   1.534  1.00  0.00    -0.082 Cl
HETATM   37  C   UNL     1      44.148 -20.404   4.996  1.00  0.00     0.025 A 
HETATM   38  C   UNL     1      43.742 -19.968   6.247  1.00  0.00     0.035 A 
HETATM   39 CL   UNL     1      43.642 -21.091   7.548  1.00  0.00    -0.084 Cl
ENDBRANCH  25  29
ENDBRANCH   1  21
TORSDOF 7
ENDMDL
MODEL 8
REMARK VINA RESULT:      -8.2      6.594     10.604
REMARK  7 active torsions:
REMARK  status: ('A' for Active; 'I' for Inactive)
REMARK    1  A    between atoms: C_3  and  C_4 
REMARK       I    between atoms: C_4  and  N_5 
REMARK    2  A    between atoms: C_8  and  N_9 
REMARK       I    between atoms: N_9  and  C_10 
REMARK    3  A    between atoms: C_10  and  C_11 
REMARK    4  A    between atoms: C_11  and  N_12 
REMARK       I    between atoms: N_15  and  C_16 
REMARK    5  A    between atoms: C_16  and  C_17 
REMARK    6  A    between atoms: C_32  and  C_33 
REMARK    7  A    between atoms: C_33  and  O_34 
ROOT
HETATM    1  C   UNL     1      42.071 -15.769   0.853  1.00  0.00     0.375 C 
ENDROOT
BRANCH   1   2
HETATM    2  C   UNL     1      41.971 -17.021   1.736  1.00  0.00     0.251 C 
HETATM    3  N   UNL     1      43.213 -17.559   2.020  1.00  0.00    -0.319 N 
HETATM    4  H   UNL     1      44.016 -17.025   1.706  1.00  0.00     0.169 HD
HETATM    5  O   UNL     1      40.896 -17.383   2.204  1.00  0.00    -0.271 OA
BRANCH   3   6
HETATM    6  C   UNL     1      43.429 -18.549   2.951  1.00  0.00     0.094 C 
HETATM    7  S   UNL     1      43.686 -20.053   2.212  1.00  0.00    -0.065 SA
HETATM    8  C   UNL     1      44.173 -20.782   3.686  1.00  0.00     0.081 C 
HETATM    9  C   UNL     1      43.978 -19.917   4.761  1.00  0.00    -0.020 C 
HETATM   10  C   UNL     1      44.215 -20.278   6.200  1.00  0.00     0.051 C 
HETATM   11  C   UNL     1      43.500 -18.605   4.327  1.00  0.00     0.080 C 
BRANCH   8  12
HETATM   12  C   UNL     1      44.697 -22.146   3.702  1.00  0.00     0.256 C 
HETATM   13  N   UNL     1      45.180 -22.612   4.894  1.00  0.00    -0.365 N 
HETATM   14  H   UNL     1      45.172 -22.051   5.733  1.00  0.00     0.159 HD
HETATM   15  H   UNL     1      45.531 -23.559   4.922  1.00  0.00     0.159 HD
HETATM   16  O   UNL     1      44.727 -22.899   2.732  1.00  0.00    -0.267 OA
ENDBRANCH   8  12
BRANCH  11  17
HETATM   17  C   UNL     1      43.121 -17.520   5.234  1.00  0.00     0.296 C 
HETATM   18  O   UNL     1      43.920 -16.704   5.682  1.00  0.00    -0.259 OA
BRANCH  17  19
HETATM   19  O   UNL     1      41.816 -17.617   5.637  1.00  0.00    -0.322 OA
HETATM   20  C   UNL     1      41.106 -16.381   5.584  1.00  0.00     0.213 C 
ENDBRANCH  17  19
ENDBRANCH  11  17
ENDBRANCH   3   6
ENDBRANCH   1   2
BRANCH   1  21
HETATM   21  N   UNL     1      41.343 -14.634   1.461  1.00  0.00     0.100 N 
HETATM   22  C   UNL     1      42.003 -13.341   1.150  1.00  0.00     0.293 C 
HETATM   23  C   UNL     1      41.898 -12.884  -0.319  1.00  0.00     0.156 C 
HETATM   24  N   UNL     1      40.539 -12.973  -0.861  1.00  0.00    -0.344 N 
HETATM   25  C   UNL     1      40.250 -12.186  -1.989  1.00  0.00     0.262 C 
HETATM   26  C   UNL     1      39.772 -14.167  -0.491  1.00  0.00     0.156 C 
HETATM   27  O   UNL     1      41.051 -11.349  -2.400  1.00  0.00    -0.267 OA
HETATM   28  C   UNL     1      39.946 -14.564   0.985  1.00  0.00     0.293 C 
BRANCH  25  29
HETATM   29  C   UNL     1      38.965 -12.364  -2.628  1.00  0.00     0.096 A 
HETATM   30  S   UNL     1      37.724 -11.223  -2.386  1.00  0.00    -0.082 SA
HETATM   31  C   UNL     1      36.615 -12.106  -3.364  1.00  0.00     0.019 A 
HETATM   32  C   UNL     1      37.179 -13.299  -3.829  1.00  0.00     0.004 A 
HETATM   33  C   UNL     1      35.293 -11.734  -3.684  1.00  0.00     0.043 A 
HETATM   34  C   UNL     1      38.541 -13.434  -3.384  1.00  0.00     0.068 A 
HETATM   35  C   UNL     1      36.365 -14.148  -4.626  1.00  0.00     0.016 A 
HETATM   36 CL   UNL     1      39.517 -14.788  -3.792  1.00  0.00    -0.082 Cl
HETATM   37  C   UNL     1      35.051 -13.788  -4.943  1.00  0.00     0.025 A 
HETATM   38  C   UNL     1      34.530 -12.590  -4.479  1.00  0.00     0.035 A 
HETATM   39 CL   UNL     1      32.916 -12.150  -4.885  1.00  0.00    -0.084 Cl
ENDBRANCH  25  29
ENDBRANCH   1  21
TORSDOF 7
ENDMDL
MODEL 9
REMARK VINA RESULT:      -8.1      4.431      5.022
REMARK  7 active torsions:
REMARK  status: ('A' for Active; 'I' for Inactive)
REMARK    1  A    between atoms: C_3  and  C_4 
REMARK       I    between atoms: C_4  and  N_5 
REMARK    2  A    between atoms: C_8  and  N_9 
REMARK       I    between atoms: N_9  and  C_10 
REMARK    3  A    between atoms: C_10  and  C_11 
REMARK    4  A    between atoms: C_11  and  N_12 
REMARK       I    between atoms: N_15  and  C_16 
REMARK    5  A    between atoms: C_16  and  C_17 
REMARK    6  A    between atoms: C_32  and  C_33 
REMARK    7  A    between atoms: C_33  and  O_34 
ROOT
HETATM    1  C   UNL     1      41.415 -11.766   5.783  1.00  0.00     0.375 C 
ENDROOT
BRANCH   1   2
HETATM    2  C   UNL     1      41.624 -10.751   6.916  1.00  0.00     0.251 C 
HETATM    3  N   UNL     1      41.507 -11.333   8.165  1.00  0.00    -0.319 N 
HETATM    4  H   UNL     1      41.402 -12.342   8.182  1.00  0.00     0.169 HD
HETATM    5  O   UNL     1      41.971  -9.598   6.679  1.00  0.00    -0.271 OA
BRANCH   3   6
HETATM    6  C   UNL     1      41.849 -10.707   9.342  1.00  0.00     0.094 C 
HETATM    7  S   UNL     1      40.706  -9.534   9.778  1.00  0.00    -0.065 SA
HETATM    8  C   UNL     1      41.402  -9.320  11.330  1.00  0.00     0.081 C 
HETATM    9  C   UNL     1      42.599 -10.024  11.444  1.00  0.00    -0.020 C 
HETATM   10  C   UNL     1      43.507  -9.975  12.641  1.00  0.00     0.051 C 
HETATM   11  C   UNL     1      42.883 -10.817  10.248  1.00  0.00     0.080 C 
BRANCH   8  12
HETATM   12  C   UNL     1      40.748  -8.474  12.326  1.00  0.00     0.256 C 
HETATM   13  N   UNL     1      39.605  -8.958  12.900  1.00  0.00    -0.365 N 
HETATM   14  H   UNL     1      39.224  -9.861  12.660  1.00  0.00     0.159 HD
HETATM   15  H   UNL     1      39.152  -8.389  13.601  1.00  0.00     0.159 HD
HETATM   16  O   UNL     1      41.154  -7.372  12.688  1.00  0.00    -0.267 OA
ENDBRANCH   8  12
BRANCH  11  17
HETATM   17  C   UNL     1      44.109 -11.588  10.038  1.00  0.00     0.296 C 
HETATM   18  O   UNL     1      44.286 -12.712  10.497  1.00  0.00    -0.259 OA
BRANCH  17  19
HETATM   19  O   UNL     1      45.078 -10.855   9.408  1.00  0.00    -0.322 OA
HETATM   20  C   UNL     1      46.060 -11.649   8.747  1.00  0.00     0.213 C 
ENDBRANCH  17  19
ENDBRANCH  11  17
ENDBRANCH   3   6
ENDBRANCH   1   2
BRANCH   1  21
HETATM   21  N   UNL     1      39.974 -11.950   5.499  1.00  0.00     0.100 N 
HETATM   22  C   UNL     1      39.335 -10.671   5.101  1.00  0.00     0.293 C 
HETATM   23  C   UNL     1      39.747 -10.130   3.716  1.00  0.00     0.156 C 
HETATM   24  N   UNL     1      39.696 -11.144   2.658  1.00  0.00    -0.344 N 
HETATM   25  C   UNL     1      39.609 -10.680   1.335  1.00  0.00     0.262 C 
HETATM   26  C   UNL     1      40.194 -12.477   3.015  1.00  0.00     0.156 C 
HETATM   27  O   UNL     1      39.423  -9.488   1.092  1.00  0.00    -0.267 OA
HETATM   28  C   UNL     1      39.753 -12.931   4.417  1.00  0.00     0.293 C 
BRANCH  25  29
HETATM   29  C   UNL     1      39.704 -11.651   0.268  1.00  0.00     0.096 A 
HETATM   30  S   UNL     1      38.315 -12.488  -0.253  1.00  0.00    -0.082 SA
HETATM   31  C   UNL     1      39.204 -13.400  -1.412  1.00  0.00     0.019 A 
HETATM   32  C   UNL     1      40.571 -13.103  -1.360  1.00  0.00     0.004 A 
HETATM   33  C   UNL     1      38.684 -14.347  -2.318  1.00  0.00     0.043 A 
HETATM   34  C   UNL     1      40.840 -12.090  -0.372  1.00  0.00     0.068 A 
HETATM   35  C   UNL     1      41.434 -13.806  -2.241  1.00  0.00     0.016 A 
HETATM   36 CL   UNL     1      42.423 -11.496  -0.067  1.00  0.00    -0.082 Cl
HETATM   37  C   UNL     1      40.925 -14.751  -3.138  1.00  0.00     0.025 A 
HETATM   38  C   UNL     1      39.564 -15.009  -3.174  1.00  0.00     0.035 A 
HETATM   39 CL   UNL     1      38.947 -16.165  -4.291  1.00  0.00    -0.084 Cl
ENDBRANCH  25  29
ENDBRANCH   1  21
TORSDOF 7
ENDMDL
MODEL 10
REMARK VINA RESULT:      -8.1      5.278      9.327
REMARK  7 active torsions:
REMARK  status: ('A' for Active; 'I' for Inactive)
REMARK    1  A    between atoms: C_3  and  C_4 
REMARK       I    between atoms: C_4  and  N_5 
REMARK    2  A    between atoms: C_8  and  N_9 
REMARK       I    between atoms: N_9  and  C_10 
REMARK    3  A    between atoms: C_10  and  C_11 
REMARK    4  A    between atoms: C_11  and  N_12 
REMARK       I    between atoms: N_15  and  C_16 
REMARK    5  A    between atoms: C_16  and  C_17 
REMARK    6  A    between atoms: C_32  and  C_33 
REMARK    7  A    between atoms: C_33  and  O_34 
ROOT
HETATM    1  C   UNL     1      41.421 -13.763   5.751  1.00  0.00     0.375 C 
ENDROOT
BRANCH   1   2
HETATM    2  C   UNL     1      42.426 -14.748   5.137  1.00  0.00     0.251 C 
HETATM    3  N   UNL     1      41.996 -16.059   5.235  1.00  0.00    -0.319 N 
HETATM    4  H   UNL     1      41.059 -16.198   5.595  1.00  0.00     0.169 HD
HETATM    5  O   UNL     1      43.419 -14.349   4.536  1.00  0.00    -0.271 OA
BRANCH   3   6
HETATM    6  C   UNL     1      42.596 -17.116   4.589  1.00  0.00     0.094 C 
HETATM    7  S   UNL     1      43.706 -17.911   5.593  1.00  0.00    -0.065 SA
HETATM    8  C   UNL     1      43.895 -19.209   4.489  1.00  0.00     0.081 C 
HETATM    9  C   UNL     1      43.237 -18.946   3.289  1.00  0.00    -0.020 C 
HETATM   10  C   UNL     1      43.282 -19.835   2.079  1.00  0.00     0.051 C 
HETATM   11  C   UNL     1      42.498 -17.685   3.336  1.00  0.00     0.080 C 
BRANCH   8  12
HETATM   12  C   UNL     1      44.679 -20.387   4.855  1.00  0.00     0.256 C 
HETATM   13  N   UNL     1      44.267 -21.092   5.952  1.00  0.00    -0.365 N 
HETATM   14  H   UNL     1      43.454 -20.826   6.487  1.00  0.00     0.159 HD
HETATM   15  H   UNL     1      44.791 -21.917   6.205  1.00  0.00     0.159 HD
HETATM   16  O   UNL     1      45.668 -20.788   4.247  1.00  0.00    -0.267 OA
ENDBRANCH   8  12
BRANCH  11  17
HETATM   17  C   UNL     1      41.785 -17.100   2.199  1.00  0.00     0.296 C 
HETATM   18  O   UNL     1      40.635 -17.401   1.896  1.00  0.00    -0.259 OA
BRANCH  17  19
HETATM   19  O   UNL     1      42.596 -16.303   1.437  1.00  0.00    -0.322 OA
HETATM   20  C   UNL     1      41.886 -15.448   0.544  1.00  0.00     0.213 C 
ENDBRANCH  17  19
ENDBRANCH  11  17
ENDBRANCH   3   6
ENDBRANCH   1   2
BRANCH   1  21
HETATM   21  N   UNL     1      40.065 -13.979   5.197  1.00  0.00     0.100 N 
HETATM   22  C   UNL     1      39.181 -12.818   5.470  1.00  0.00     0.293 C 
HETATM   23  C   UNL     1      39.518 -11.533   4.685  1.00  0.00     0.156 C 
HETATM   24  N   UNL     1      39.726 -11.765   3.252  1.00  0.00    -0.344 N 
HETATM   25  C   UNL     1      39.590 -10.656   2.401  1.00  0.00     0.262 C 
HETATM   26  C   UNL     1      40.486 -12.969   2.895  1.00  0.00     0.156 C 
HETATM   27  O   UNL     1      39.161  -9.582   2.822  1.00  0.00    -0.267 OA
HETATM   28  C   UNL     1      40.101 -14.197   3.737  1.00  0.00     0.293 C 
BRANCH  25  29
HETATM   29  C   UNL     1      39.932 -10.826   1.006  1.00  0.00     0.096 A 
HETATM   30  S   UNL     1      41.398 -10.204   0.403  1.00  0.00    -0.082 SA
HETATM   31  C   UNL     1      41.057 -10.740  -1.198  1.00  0.00     0.019 A 
HETATM   32  C   UNL     1      39.797 -11.345  -1.279  1.00  0.00     0.004 A 
HETATM   33  C   UNL     1      41.891 -10.608  -2.327  1.00  0.00     0.043 A 
HETATM   34  C   UNL     1      39.158 -11.378   0.011  1.00  0.00     0.068 A 
HETATM   35  C   UNL     1      39.367 -11.809  -2.551  1.00  0.00     0.016 A 
HETATM   36 CL   UNL     1      37.601 -12.064   0.252  1.00  0.00    -0.082 Cl
HETATM   37  C   UNL     1      40.188 -11.675  -3.676  1.00  0.00     0.025 A 
HETATM   38  C   UNL     1      41.437 -11.086  -3.556  1.00  0.00     0.035 A 
HETATM   39 CL   UNL     1      42.444 -10.938  -4.944  1.00  0.00    -0.084 Cl
ENDBRANCH  25  29
ENDBRANCH   1  21
TORSDOF 7
ENDMDL
