MODEL 1
REMARK VINA RESULT:      -8.3      0.000      0.000
REMARK  4 active torsions:
REMARK  status: ('A' for Active; 'I' for Inactive)
REMARK    1  A    between atoms: C_9  and  C_10 
REMARK    2  A    between atoms: C_18  and  C_19 
REMARK       I    between atoms: C_19  and  N_20 
REMARK    3  A    between atoms: N_20  and  C_21 
REMARK    4  A    between atoms: C_24  and  O_25 
ROOT
HETATM    1  C   UNL     1      41.296 -15.560  -0.888  1.00  0.00     0.070 C 
HETATM    2  C   UNL     1      40.957 -14.885   0.418  1.00  0.00     0.037 C 
HETATM    3  N   UNL     1      40.599 -13.543   0.324  1.00  0.00    -0.192 N 
HETATM    4  C   UNL     1      40.061 -12.851   1.346  1.00  0.00     0.725 A 
HETATM    5  N   UNL     1      39.966 -13.437   2.579  1.00  0.00    -0.084 N 
HETATM    6  N   UNL     1      39.344 -12.627   3.461  1.00  0.00    -0.149 NA
HETATM    7  C   UNL     1      39.123 -11.551   2.695  1.00  0.00     0.275 A 
HETATM    8  N   UNL     1      39.550 -11.648   1.395  1.00  0.00    -0.054 NA
HETATM    9  C   UNL     1      40.445 -14.789   2.885  1.00  0.00     0.202 C 
HETATM   10  C   UNL     1      40.918 -15.505   1.623  1.00  0.00     0.062 C 
HETATM   11  H   UNL     1      40.566 -13.127  -0.603  1.00  0.00     0.184 HD
ENDROOT
BRANCH  10  12
HETATM   12  C   UNL     1      41.223 -16.945   1.843  1.00  0.00     0.256 C 
HETATM   13  N   UNL     1      42.513 -17.173   2.272  1.00  0.00    -0.323 N 
HETATM   14  H   UNL     1      43.115 -16.367   2.379  1.00  0.00     0.169 HD
HETATM   15  O   UNL     1      40.325 -17.763   1.694  1.00  0.00    -0.267 OA
BRANCH  13  16
HETATM   16  C   UNL     1      43.101 -18.418   2.578  1.00  0.00     0.035 A 
HETATM   17  C   UNL     1      43.206 -19.476   1.675  1.00  0.00     0.032 A 
HETATM   18  C   UNL     1      43.807 -20.678   2.063  1.00  0.00     0.039 A 
HETATM   19  C   UNL     1      44.321 -20.842   3.350  1.00  0.00     0.068 A 
HETATM   20  C   UNL     1      44.220 -19.790   4.255  1.00  0.00     0.039 A 
HETATM   21  C   UNL     1      43.609 -18.588   3.872  1.00  0.00     0.032 A 
BRANCH  19  22
HETATM   22  O   UNL     1      44.887 -22.063   3.589  1.00  0.00    -0.356 OA
HETATM   23  C   UNL     1      45.040 -22.448   4.949  1.00  0.00     0.210 C 
ENDBRANCH  19  22
ENDBRANCH  13  16
ENDBRANCH  10  12
BRANCH   9  24
HETATM   24  C   UNL     1      41.533 -14.740   3.959  1.00  0.00    -0.026 A 
HETATM   25  C   UNL     1      41.549 -15.638   5.041  1.00  0.00     0.035 A 
HETATM   26  C   UNL     1      42.548 -15.562   6.020  1.00  0.00     0.056 A 
HETATM   27 CL   UNL     1      42.488 -16.706   7.314  1.00  0.00    -0.083 Cl
HETATM   28  C   UNL     1      43.540 -14.582   5.931  1.00  0.00     0.055 A 
HETATM   29 CL   UNL     1      44.801 -14.428   7.103  1.00  0.00    -0.083 Cl
HETATM   30  C   UNL     1      43.526 -13.678   4.867  1.00  0.00     0.026 A 
HETATM   31  C   UNL     1      42.530 -13.753   3.890  1.00  0.00     0.011 A 
ENDBRANCH   9  24
TORSDOF 4
ENDMDL
MODEL 2
REMARK VINA RESULT:      -8.1      3.137      4.584
REMARK  4 active torsions:
REMARK  status: ('A' for Active; 'I' for Inactive)
REMARK    1  A    between atoms: C_9  and  C_10 
REMARK    2  A    between atoms: C_18  and  C_19 
REMARK       I    between atoms: C_19  and  N_20 
REMARK    3  A    between atoms: N_20  and  C_21 
REMARK    4  A    between atoms: C_24  and  O_25 
ROOT
HETATM    1  C   UNL     1      40.456 -15.979   6.459  1.00  0.00     0.070 C 
HETATM    2  C   UNL     1      40.363 -14.780   5.548  1.00  0.00     0.037 C 
HETATM    3  N   UNL     1      39.419 -13.824   5.912  1.00  0.00    -0.192 N 
HETATM    4  C   UNL     1      39.351 -12.603   5.347  1.00  0.00     0.725 A 
HETATM    5  N   UNL     1      40.156 -12.310   4.281  1.00  0.00    -0.084 N 
HETATM    6  N   UNL     1      40.004 -11.028   3.888  1.00  0.00    -0.149 NA
HETATM    7  C   UNL     1      39.061 -10.618   4.744  1.00  0.00     0.275 A 
HETATM    8  N   UNL     1      38.633 -11.553   5.652  1.00  0.00    -0.054 NA
HETATM    9  C   UNL     1      41.093 -13.261   3.672  1.00  0.00     0.202 C 
HETATM   10  C   UNL     1      41.161 -14.557   4.475  1.00  0.00     0.062 C 
HETATM   11  H   UNL     1      38.888 -13.984   6.765  1.00  0.00     0.184 HD
ENDROOT
BRANCH  10  12
HETATM   12  C   UNL     1      42.240 -15.475   4.021  1.00  0.00     0.256 C 
HETATM   13  N   UNL     1      41.818 -16.775   3.846  1.00  0.00    -0.323 N 
HETATM   14  H   UNL     1      40.848 -16.979   4.051  1.00  0.00     0.169 HD
HETATM   15  O   UNL     1      43.347 -15.007   3.788  1.00  0.00    -0.267 OA
BRANCH  13  16
HETATM   16  C   UNL     1      42.593 -17.871   3.413  1.00  0.00     0.035 A 
HETATM   17  C   UNL     1      42.618 -18.340   2.100  1.00  0.00     0.032 A 
HETATM   18  C   UNL     1      43.419 -19.434   1.755  1.00  0.00     0.039 A 
HETATM   19  C   UNL     1      44.213 -20.071   2.709  1.00  0.00     0.068 A 
HETATM   20  C   UNL     1      44.193 -19.608   4.021  1.00  0.00     0.039 A 
HETATM   21  C   UNL     1      43.384 -18.518   4.371  1.00  0.00     0.032 A 
BRANCH  19  22
HETATM   22  O   UNL     1      44.949 -21.120   2.233  1.00  0.00    -0.356 OA
HETATM   23  C   UNL     1      44.241 -22.150   1.556  1.00  0.00     0.210 C 
ENDBRANCH  19  22
ENDBRANCH  13  16
ENDBRANCH  10  12
BRANCH   9  24
HETATM   24  C   UNL     1      40.724 -13.512   2.209  1.00  0.00    -0.026 A 
HETATM   25  C   UNL     1      41.575 -13.134   1.154  1.00  0.00     0.035 A 
HETATM   26  C   UNL     1      41.207 -13.360  -0.178  1.00  0.00     0.056 A 
HETATM   27 CL   UNL     1      42.315 -12.862  -1.408  1.00  0.00    -0.083 Cl
HETATM   28  C   UNL     1      39.981 -13.961  -0.473  1.00  0.00     0.055 A 
HETATM   29 CL   UNL     1      39.462 -14.269  -2.092  1.00  0.00    -0.083 Cl
HETATM   30  C   UNL     1      39.124 -14.329   0.567  1.00  0.00     0.026 A 
HETATM   31  C   UNL     1      39.490 -14.104   1.896  1.00  0.00     0.011 A 
ENDBRANCH   9  24
TORSDOF 4
ENDMDL
MODEL 3
REMARK VINA RESULT:      -8.1      3.375      4.955
REMARK  4 active torsions:
REMARK  status: ('A' for Active; 'I' for Inactive)
REMARK    1  A    between atoms: C_9  and  C_10 
REMARK    2  A    between atoms: C_18  and  C_19 
REMARK       I    between atoms: C_19  and  N_20 
REMARK    3  A    between atoms: N_20  and  C_21 
REMARK    4  A    between atoms: C_24  and  O_25 
ROOT
HETATM    1  C   UNL     1      39.822 -14.400   5.161  1.00  0.00     0.070 C 
HETATM    2  C   UNL     1      40.129 -13.643   3.893  1.00  0.00     0.037 C 
HETATM    3  N   UNL     1      39.922 -12.268   3.951  1.00  0.00    -0.192 N 
HETATM    4  C   UNL     1      40.346 -11.419   2.995  1.00  0.00     0.725 A 
HETATM    5  N   UNL     1      40.898 -11.918   1.848  1.00  0.00    -0.084 N 
HETATM    6  N   UNL     1      41.326 -10.929   1.037  1.00  0.00    -0.149 NA
HETATM    7  C   UNL     1      40.964  -9.854   1.748  1.00  0.00     0.275 A 
HETATM    8  N   UNL     1      40.359 -10.112   2.952  1.00  0.00    -0.054 NA
HETATM    9  C   UNL     1      41.041 -13.350   1.560  1.00  0.00     0.202 C 
HETATM   10  C   UNL     1      40.638 -14.196   2.764  1.00  0.00     0.062 C 
HETATM   11  H   UNL     1      39.611 -11.874   4.835  1.00  0.00     0.184 HD
ENDROOT
BRANCH  10  12
HETATM   12  C   UNL     1      40.954 -15.641   2.600  1.00  0.00     0.256 C 
HETATM   13  N   UNL     1      42.256 -15.959   2.921  1.00  0.00    -0.323 N 
HETATM   14  H   UNL     1      42.859 -15.200   3.214  1.00  0.00     0.169 HD
HETATM   15  O   UNL     1      40.054 -16.403   2.272  1.00  0.00    -0.267 OA
BRANCH  13  16
HETATM   16  C   UNL     1      42.856 -17.235   2.883  1.00  0.00     0.035 A 
HETATM   17  C   UNL     1      42.969 -18.011   1.730  1.00  0.00     0.032 A 
HETATM   18  C   UNL     1      43.582 -19.267   1.781  1.00  0.00     0.039 A 
HETATM   19  C   UNL     1      44.101 -19.765   2.977  1.00  0.00     0.068 A 
HETATM   20  C   UNL     1      43.992 -18.995   4.131  1.00  0.00     0.039 A 
HETATM   21  C   UNL     1      43.369 -17.740   4.084  1.00  0.00     0.032 A 
BRANCH  19  22
HETATM   22  O   UNL     1      44.678 -21.000   2.881  1.00  0.00    -0.356 OA
HETATM   23  C   UNL     1      44.211 -21.851   1.842  1.00  0.00     0.210 C 
ENDBRANCH  19  22
ENDBRANCH  13  16
ENDBRANCH  10  12
BRANCH   9  24
HETATM   24  C   UNL     1      40.251 -13.724   0.306  1.00  0.00    -0.026 A 
HETATM   25  C   UNL     1      40.871 -14.303  -0.817  1.00  0.00     0.035 A 
HETATM   26  C   UNL     1      40.128 -14.622  -1.960  1.00  0.00     0.056 A 
HETATM   27 CL   UNL     1      40.973 -15.329  -3.291  1.00  0.00    -0.083 Cl
HETATM   28  C   UNL     1      38.755 -14.359  -1.998  1.00  0.00     0.055 A 
HETATM   29 CL   UNL     1      37.777 -14.725  -3.374  1.00  0.00    -0.083 Cl
HETATM   30  C   UNL     1      38.133 -13.773  -0.893  1.00  0.00     0.026 A 
HETATM   31  C   UNL     1      38.874 -13.455   0.248  1.00  0.00     0.011 A 
ENDBRANCH   9  24
TORSDOF 4
ENDMDL
MODEL 4
REMARK VINA RESULT:      -8.0      3.706      5.370
REMARK  4 active torsions:
REMARK  status: ('A' for Active; 'I' for Inactive)
REMARK    1  A    between atoms: C_9  and  C_10 
REMARK    2  A    between atoms: C_18  and  C_19 
REMARK       I    between atoms: C_19  and  N_20 
REMARK    3  A    between atoms: N_20  and  C_21 
REMARK    4  A    between atoms: C_24  and  O_25 
ROOT
HETATM    1  C   UNL     1      40.074 -13.490   3.736  1.00  0.00     0.070 C 
HETATM    2  C   UNL     1      40.564 -13.128   2.356  1.00  0.00     0.037 C 
HETATM    3  N   UNL     1      40.518 -11.774   2.039  1.00  0.00    -0.192 N 
HETATM    4  C   UNL     1      41.111 -11.252   0.948  1.00  0.00     0.725 A 
HETATM    5  N   UNL     1      41.686 -12.088   0.031  1.00  0.00    -0.084 N 
HETATM    6  N   UNL     1      42.289 -11.393  -0.957  1.00  0.00    -0.149 NA
HETATM    7  C   UNL     1      42.004 -10.139  -0.585  1.00  0.00     0.275 A 
HETATM    8  N   UNL     1      41.283 -10.011   0.575  1.00  0.00    -0.054 NA
HETATM    9  C   UNL     1      41.680 -13.552   0.134  1.00  0.00     0.202 C 
HETATM   10  C   UNL     1      41.088 -14.006   1.465  1.00  0.00     0.062 C 
HETATM   11  H   UNL     1      40.190 -11.132   2.756  1.00  0.00     0.184 HD
ENDROOT
BRANCH  10  12
HETATM   12  C   UNL     1      41.242 -15.466   1.709  1.00  0.00     0.256 C 
HETATM   13  N   UNL     1      42.538 -15.843   1.990  1.00  0.00    -0.323 N 
HETATM   14  H   UNL     1      43.242 -15.116   1.990  1.00  0.00     0.169 HD
HETATM   15  O   UNL     1      40.240 -16.169   1.705  1.00  0.00    -0.267 OA
BRANCH  13  16
HETATM   16  C   UNL     1      43.004 -17.142   2.279  1.00  0.00     0.035 A 
HETATM   17  C   UNL     1      43.469 -18.036   1.315  1.00  0.00     0.032 A 
HETATM   18  C   UNL     1      43.916 -19.308   1.689  1.00  0.00     0.039 A 
HETATM   19  C   UNL     1      43.916 -19.705   3.027  1.00  0.00     0.068 A 
HETATM   20  C   UNL     1      43.453 -18.817   3.993  1.00  0.00     0.039 A 
HETATM   21  C   UNL     1      42.995 -17.546   3.620  1.00  0.00     0.032 A 
BRANCH  19  22
HETATM   22  O   UNL     1      44.386 -20.969   3.250  1.00  0.00    -0.356 OA
HETATM   23  C   UNL     1      44.305 -21.887   2.168  1.00  0.00     0.210 C 
ENDBRANCH  19  22
ENDBRANCH  13  16
ENDBRANCH  10  12
BRANCH   9  24
HETATM   24  C   UNL     1      40.948 -14.168  -1.059  1.00  0.00    -0.026 A 
HETATM   25  C   UNL     1      39.671 -13.729  -1.454  1.00  0.00     0.035 A 
HETATM   26  C   UNL     1      39.016 -14.320  -2.541  1.00  0.00     0.056 A 
HETATM   27 CL   UNL     1      37.450 -13.717  -2.954  1.00  0.00    -0.083 Cl
HETATM   28  C   UNL     1      39.627 -15.363  -3.243  1.00  0.00     0.055 A 
HETATM   29 CL   UNL     1      38.876 -16.140  -4.592  1.00  0.00    -0.083 Cl
HETATM   30  C   UNL     1      40.889 -15.814  -2.851  1.00  0.00     0.026 A 
HETATM   31  C   UNL     1      41.544 -15.224  -1.767  1.00  0.00     0.011 A 
ENDBRANCH   9  24
TORSDOF 4
ENDMDL
MODEL 5
REMARK VINA RESULT:      -7.8      3.727      7.588
REMARK  4 active torsions:
REMARK  status: ('A' for Active; 'I' for Inactive)
REMARK    1  A    between atoms: C_9  and  C_10 
REMARK    2  A    between atoms: C_18  and  C_19 
REMARK       I    between atoms: C_19  and  N_20 
REMARK    3  A    between atoms: N_20  and  C_21 
REMARK    4  A    between atoms: C_24  and  O_25 
ROOT
HETATM    1  C   UNL     1      44.563 -17.149   6.572  1.00  0.00     0.070 C 
HETATM    2  C   UNL     1      43.927 -17.652   5.300  1.00  0.00     0.037 C 
HETATM    3  N   UNL     1      44.674 -18.583   4.584  1.00  0.00    -0.192 N 
HETATM    4  C   UNL     1      44.175 -19.292   3.554  1.00  0.00     0.725 A 
HETATM    5  N   UNL     1      42.917 -19.015   3.094  1.00  0.00    -0.084 N 
HETATM    6  N   UNL     1      42.556 -19.864   2.109  1.00  0.00    -0.149 NA
HETATM    7  C   UNL     1      43.666 -20.606   2.004  1.00  0.00     0.275 A 
HETATM    8  N   UNL     1      44.680 -20.286   2.870  1.00  0.00    -0.054 NA
HETATM    9  C   UNL     1      42.059 -17.955   3.634  1.00  0.00     0.202 C 
HETATM   10  C   UNL     1      42.689 -17.311   4.866  1.00  0.00     0.062 C 
HETATM   11  H   UNL     1      45.567 -18.874   4.975  1.00  0.00     0.184 HD
ENDROOT
BRANCH  10  12
HETATM   12  C   UNL     1      41.775 -16.373   5.572  1.00  0.00     0.256 C 
HETATM   13  N   UNL     1      41.921 -15.061   5.175  1.00  0.00    -0.323 N 
HETATM   14  H   UNL     1      42.625 -14.865   4.474  1.00  0.00     0.169 HD
HETATM   15  O   UNL     1      40.960 -16.832   6.362  1.00  0.00    -0.267 OA
BRANCH  13  16
HETATM   16  C   UNL     1      41.198 -13.944   5.642  1.00  0.00     0.035 A 
HETATM   17  C   UNL     1      39.808 -13.902   5.748  1.00  0.00     0.032 A 
HETATM   18  C   UNL     1      39.170 -12.752   6.225  1.00  0.00     0.039 A 
HETATM   19  C   UNL     1      39.906 -11.631   6.613  1.00  0.00     0.068 A 
HETATM   20  C   UNL     1      41.293 -11.667   6.510  1.00  0.00     0.039 A 
HETATM   21  C   UNL     1      41.934 -12.815   6.023  1.00  0.00     0.032 A 
BRANCH  19  22
HETATM   22  O   UNL     1      39.156 -10.582   7.065  1.00  0.00    -0.356 OA
HETATM   23  C   UNL     1      39.232 -10.286   8.453  1.00  0.00     0.210 C 
ENDBRANCH  19  22
ENDBRANCH  13  16
ENDBRANCH  10  12
BRANCH   9  24
HETATM   24  C   UNL     1      41.736 -16.925   2.550  1.00  0.00    -0.026 A 
HETATM   25  C   UNL     1      40.455 -16.360   2.421  1.00  0.00     0.035 A 
HETATM   26  C   UNL     1      40.180 -15.430   1.411  1.00  0.00     0.056 A 
HETATM   27 CL   UNL     1      38.577 -14.789   1.328  1.00  0.00    -0.083 Cl
HETATM   28  C   UNL     1      41.183 -15.059   0.511  1.00  0.00     0.055 A 
HETATM   29 CL   UNL     1      40.916 -13.920  -0.760  1.00  0.00    -0.083 Cl
HETATM   30  C   UNL     1      42.456 -15.623   0.623  1.00  0.00     0.026 A 
HETATM   31  C   UNL     1      42.730 -16.551   1.632  1.00  0.00     0.011 A 
ENDBRANCH   9  24
TORSDOF 4
ENDMDL
MODEL 6
REMARK VINA RESULT:      -7.6      3.029      6.644
REMARK  4 active torsions:
REMARK  status: ('A' for Active; 'I' for Inactive)
REMARK    1  A    between atoms: C_9  and  C_10 
REMARK    2  A    between atoms: C_18  and  C_19 
REMARK       I    between atoms: C_19  and  N_20 
REMARK    3  A    between atoms: N_20  and  C_21 
REMARK    4  A    between atoms: C_24  and  O_25 
ROOT
HETATM    1  C   UNL     1      43.087 -19.567   2.457  1.00  0.00     0.070 C 
HETATM    2  C   UNL     1      43.181 -18.679   3.673  1.00  0.00     0.037 C 
HETATM    3  N   UNL     1      43.232 -19.341   4.896  1.00  0.00    -0.192 N 
HETATM    4  C   UNL     1      43.533 -18.725   6.055  1.00  0.00     0.725 A 
HETATM    5  N   UNL     1      43.679 -17.365   6.076  1.00  0.00    -0.084 N 
HETATM    6  N   UNL     1      44.044 -16.928   7.299  1.00  0.00    -0.149 NA
HETATM    7  C   UNL     1      44.065 -18.082   7.977  1.00  0.00     0.275 A 
HETATM    8  N   UNL     1      43.755 -19.205   7.251  1.00  0.00    -0.054 NA
HETATM    9  C   UNL     1      43.498 -16.501   4.903  1.00  0.00     0.202 C 
HETATM   10  C   UNL     1      43.281 -17.327   3.639  1.00  0.00     0.062 C 
HETATM   11  H   UNL     1      43.230 -20.358   4.884  1.00  0.00     0.184 HD
ENDROOT
BRANCH  10  12
HETATM   12  C   UNL     1      43.295 -16.512   2.394  1.00  0.00     0.256 C 
HETATM   13  N   UNL     1      42.042 -16.103   1.992  1.00  0.00    -0.323 N 
HETATM   14  H   UNL     1      41.255 -16.398   2.556  1.00  0.00     0.169 HD
HETATM   15  O   UNL     1      44.375 -16.232   1.890  1.00  0.00    -0.267 OA
BRANCH  13  16
HETATM   16  C   UNL     1      41.724 -15.312   0.868  1.00  0.00     0.035 A 
HETATM   17  C   UNL     1      41.774 -13.919   0.854  1.00  0.00     0.032 A 
HETATM   18  C   UNL     1      41.444 -13.212  -0.308  1.00  0.00     0.039 A 
HETATM   19  C   UNL     1      41.070 -13.881  -1.474  1.00  0.00     0.068 A 
HETATM   20  C   UNL     1      41.019 -15.271  -1.466  1.00  0.00     0.039 A 
HETATM   21  C   UNL     1      41.340 -15.981  -0.301  1.00  0.00     0.032 A 
BRANCH  19  22
HETATM   22  O   UNL     1      40.783 -13.067  -2.534  1.00  0.00    -0.356 OA
HETATM   23  C   UNL     1      40.621 -11.682  -2.258  1.00  0.00     0.210 C 
ENDBRANCH  19  22
ENDBRANCH  13  16
ENDBRANCH  10  12
BRANCH   9  24
HETATM   24  C   UNL     1      42.361 -15.508   5.142  1.00  0.00    -0.026 A 
HETATM   25  C   UNL     1      42.523 -14.127   4.927  1.00  0.00     0.035 A 
HETATM   26  C   UNL     1      41.470 -13.236   5.167  1.00  0.00     0.056 A 
HETATM   27 CL   UNL     1      41.761 -11.557   4.875  1.00  0.00    -0.083 Cl
HETATM   28  C   UNL     1      40.243 -13.714   5.634  1.00  0.00     0.055 A 
HETATM   29 CL   UNL     1      38.902 -12.672   5.954  1.00  0.00    -0.083 Cl
HETATM   30  C   UNL     1      40.075 -15.081   5.863  1.00  0.00     0.026 A 
HETATM   31  C   UNL     1      41.125 -15.971   5.622  1.00  0.00     0.011 A 
ENDBRANCH   9  24
TORSDOF 4
ENDMDL
MODEL 7
REMARK VINA RESULT:      -7.5      3.333      4.624
REMARK  4 active torsions:
REMARK  status: ('A' for Active; 'I' for Inactive)
REMARK    1  A    between atoms: C_9  and  C_10 
REMARK    2  A    between atoms: C_18  and  C_19 
REMARK       I    between atoms: C_19  and  N_20 
REMARK    3  A    between atoms: N_20  and  C_21 
REMARK    4  A    between atoms: C_24  and  O_25 
ROOT
HETATM    1  C   UNL     1      40.249 -14.973   6.143  1.00  0.00     0.070 C 
HETATM    2  C   UNL     1      40.290 -13.819   5.173  1.00  0.00     0.037 C 
HETATM    3  N   UNL     1      39.365 -12.806   5.408  1.00  0.00    -0.192 N 
HETATM    4  C   UNL     1      39.404 -11.614   4.782  1.00  0.00     0.725 A 
HETATM    5  N   UNL     1      40.309 -11.411   3.777  1.00  0.00    -0.084 N 
HETATM    6  N   UNL     1      40.253 -10.146   3.312  1.00  0.00    -0.149 NA
HETATM    7  C   UNL     1      39.261  -9.651   4.064  1.00  0.00     0.275 A 
HETATM    8  N   UNL     1      38.714 -10.519   4.974  1.00  0.00    -0.054 NA
HETATM    9  C   UNL     1      41.248 -12.432   3.298  1.00  0.00     0.202 C 
HETATM   10  C   UNL     1      41.186 -13.687   4.164  1.00  0.00     0.062 C 
HETATM   11  H   UNL     1      38.757 -12.899   6.218  1.00  0.00     0.184 HD
ENDROOT
BRANCH  10  12
HETATM   12  C   UNL     1      42.255 -14.673   3.849  1.00  0.00     0.256 C 
HETATM   13  N   UNL     1      41.773 -15.930   3.556  1.00  0.00    -0.323 N 
HETATM   14  H   UNL     1      40.770 -16.063   3.596  1.00  0.00     0.169 HD
HETATM   15  O   UNL     1      43.416 -14.286   3.814  1.00  0.00    -0.267 OA
BRANCH  13  16
HETATM   16  C   UNL     1      42.525 -17.071   3.206  1.00  0.00     0.035 A 
HETATM   17  C   UNL     1      42.953 -17.357   1.910  1.00  0.00     0.032 A 
HETATM   18  C   UNL     1      43.700 -18.512   1.651  1.00  0.00     0.039 A 
HETATM   19  C   UNL     1      44.039 -19.392   2.679  1.00  0.00     0.068 A 
HETATM   20  C   UNL     1      43.616 -19.112   3.974  1.00  0.00     0.039 A 
HETATM   21  C   UNL     1      42.859 -17.961   4.234  1.00  0.00     0.032 A 
BRANCH  19  22
HETATM   22  O   UNL     1      44.776 -20.475   2.285  1.00  0.00    -0.356 OA
HETATM   23  C   UNL     1      44.057 -21.636   1.892  1.00  0.00     0.210 C 
ENDBRANCH  19  22
ENDBRANCH  13  16
ENDBRANCH  10  12
BRANCH   9  24
HETATM   24  C   UNL     1      40.993 -12.741   1.822  1.00  0.00    -0.026 A 
HETATM   25  C   UNL     1      39.745 -13.203   1.365  1.00  0.00     0.035 A 
HETATM   26  C   UNL     1      39.541 -13.494   0.010  1.00  0.00     0.056 A 
HETATM   27 CL   UNL     1      37.976 -14.057  -0.459  1.00  0.00    -0.083 Cl
HETATM   28  C   UNL     1      40.585 -13.331  -0.904  1.00  0.00     0.055 A 
HETATM   29 CL   UNL     1      40.406 -13.672  -2.589  1.00  0.00    -0.083 Cl
HETATM   30  C   UNL     1      41.831 -12.884  -0.459  1.00  0.00     0.026 A 
HETATM   31  C   UNL     1      42.035 -12.594   0.892  1.00  0.00     0.011 A 
ENDBRANCH   9  24
TORSDOF 4
ENDMDL
MODEL 8
REMARK VINA RESULT:      -7.3      1.964      2.309
REMARK  4 active torsions:
REMARK  status: ('A' for Active; 'I' for Inactive)
REMARK    1  A    between atoms: C_9  and  C_10 
REMARK    2  A    between atoms: C_18  and  C_19 
REMARK       I    between atoms: C_19  and  N_20 
REMARK    3  A    between atoms: N_20  and  C_21 
REMARK    4  A    between atoms: C_24  and  O_25 
ROOT
HETATM    1  C   UNL     1      41.343 -15.686  -1.205  1.00  0.00     0.070 C 
HETATM    2  C   UNL     1      40.555 -14.781  -0.291  1.00  0.00     0.037 C 
HETATM    3  N   UNL     1      40.063 -13.618  -0.877  1.00  0.00    -0.192 N 
HETATM    4  C   UNL     1      39.167 -12.812  -0.277  1.00  0.00     0.725 A 
HETATM    5  N   UNL     1      38.800 -13.061   1.017  1.00  0.00    -0.084 N 
HETATM    6  N   UNL     1      37.848 -12.200   1.433  1.00  0.00    -0.149 NA
HETATM    7  C   UNL     1      37.715 -11.435   0.343  1.00  0.00     0.275 A 
HETATM    8  N   UNL     1      38.507 -11.776  -0.725  1.00  0.00    -0.054 NA
HETATM    9  C   UNL     1      39.347 -14.152   1.832  1.00  0.00     0.202 C 
HETATM   10  C   UNL     1      40.254 -15.056   1.002  1.00  0.00     0.062 C 
HETATM   11  H   UNL     1      40.243 -13.476  -1.868  1.00  0.00     0.184 HD
ENDROOT
BRANCH  10  12
HETATM   12  C   UNL     1      40.674 -16.290   1.722  1.00  0.00     0.256 C 
HETATM   13  N   UNL     1      42.034 -16.368   1.931  1.00  0.00    -0.323 N 
HETATM   14  H   UNL     1      42.602 -15.610   1.573  1.00  0.00     0.169 HD
HETATM   15  O   UNL     1      39.808 -17.064   2.109  1.00  0.00    -0.267 OA
BRANCH  13  16
HETATM   16  C   UNL     1      42.736 -17.398   2.591  1.00  0.00     0.035 A 
HETATM   17  C   UNL     1      42.839 -17.509   3.977  1.00  0.00     0.032 A 
HETATM   18  C   UNL     1      43.555 -18.566   4.549  1.00  0.00     0.039 A 
HETATM   19  C   UNL     1      44.170 -19.532   3.752  1.00  0.00     0.068 A 
HETATM   20  C   UNL     1      44.070 -19.427   2.368  1.00  0.00     0.039 A 
HETATM   21  C   UNL     1      43.362 -18.363   1.792  1.00  0.00     0.032 A 
BRANCH  19  22
HETATM   22  O   UNL     1      44.828 -20.511   4.443  1.00  0.00    -0.356 OA
HETATM   23  C   UNL     1      44.384 -20.775   5.767  1.00  0.00     0.210 C 
ENDBRANCH  19  22
ENDBRANCH  13  16
ENDBRANCH  10  12
BRANCH   9  24
HETATM   24  C   UNL     1      40.064 -13.593   3.062  1.00  0.00    -0.026 A 
HETATM   25  C   UNL     1      39.437 -13.527   4.319  1.00  0.00     0.035 A 
HETATM   26  C   UNL     1      40.110 -12.996   5.427  1.00  0.00     0.056 A 
HETATM   27 CL   UNL     1      39.261 -12.954   6.932  1.00  0.00    -0.083 Cl
HETATM   28  C   UNL     1      41.416 -12.518   5.289  1.00  0.00     0.055 A 
HETATM   29 CL   UNL     1      42.305 -11.849   6.611  1.00  0.00    -0.083 Cl
HETATM   30  C   UNL     1      42.042 -12.568   4.042  1.00  0.00     0.026 A 
HETATM   31  C   UNL     1      41.372 -13.098   2.936  1.00  0.00     0.011 A 
ENDBRANCH   9  24
TORSDOF 4
ENDMDL
MODEL 9
REMARK VINA RESULT:      -7.2      4.566      7.378
REMARK  4 active torsions:
REMARK  status: ('A' for Active; 'I' for Inactive)
REMARK    1  A    between atoms: C_9  and  C_10 
REMARK    2  A    between atoms: C_18  and  C_19 
REMARK       I    between atoms: C_19  and  N_20 
REMARK    3  A    between atoms: N_20  and  C_21 
REMARK    4  A    between atoms: C_24  and  O_25 
ROOT
HETATM    1  C   UNL     1      42.178 -16.775   0.876  1.00  0.00     0.070 C 
HETATM    2  C   UNL     1      41.539 -15.797  -0.078  1.00  0.00     0.037 C 
HETATM    3  N   UNL     1      41.337 -16.268  -1.372  1.00  0.00    -0.192 N 
HETATM    4  C   UNL     1      40.590 -15.617  -2.284  1.00  0.00     0.725 A 
HETATM    5  N   UNL     1      40.098 -14.376  -1.988  1.00  0.00    -0.084 N 
HETATM    6  N   UNL     1      39.320 -13.905  -2.985  1.00  0.00    -0.149 NA
HETATM    7  C   UNL     1      39.419 -14.906  -3.869  1.00  0.00     0.275 A 
HETATM    8  N   UNL     1      40.189 -15.971  -3.478  1.00  0.00    -0.054 NA
HETATM    9  C   UNL     1      40.353 -13.669  -0.728  1.00  0.00     0.202 C 
HETATM   10  C   UNL     1      41.105 -14.558   0.259  1.00  0.00     0.062 C 
HETATM   11  H   UNL     1      41.605 -17.228  -1.573  1.00  0.00     0.184 HD
ENDROOT
BRANCH  10  12
HETATM   12  C   UNL     1      41.213 -13.965   1.620  1.00  0.00     0.256 C 
HETATM   13  N   UNL     1      40.014 -13.930   2.300  1.00  0.00    -0.323 N 
HETATM   14  H   UNL     1      39.198 -14.286   1.818  1.00  0.00     0.169 HD
HETATM   15  O   UNL     1      42.318 -13.635   2.028  1.00  0.00    -0.267 OA
BRANCH  13  16
HETATM   16  C   UNL     1      39.790 -13.445   3.605  1.00  0.00     0.035 A 
HETATM   17  C   UNL     1      39.316 -12.166   3.892  1.00  0.00     0.032 A 
HETATM   18  C   UNL     1      39.119 -11.767   5.219  1.00  0.00     0.039 A 
HETATM   19  C   UNL     1      39.380 -12.638   6.277  1.00  0.00     0.068 A 
HETATM   20  C   UNL     1      39.852 -13.916   5.997  1.00  0.00     0.039 A 
HETATM   21  C   UNL     1      40.060 -14.315   4.669  1.00  0.00     0.032 A 
BRANCH  19  22
HETATM   22  O   UNL     1      39.137 -12.120   7.518  1.00  0.00    -0.356 OA
HETATM   23  C   UNL     1      39.622 -10.809   7.777  1.00  0.00     0.210 C 
ENDBRANCH  19  22
ENDBRANCH  13  16
ENDBRANCH  10  12
BRANCH   9  24
HETATM   24  C   UNL     1      41.090 -12.355  -0.993  1.00  0.00    -0.026 A 
HETATM   25  C   UNL     1      40.490 -11.106  -0.751  1.00  0.00     0.035 A 
HETATM   26  C   UNL     1      41.180  -9.917  -1.016  1.00  0.00     0.056 A 
HETATM   27 CL   UNL     1      40.364  -8.429  -0.688  1.00  0.00    -0.083 Cl
HETATM   28  C   UNL     1      42.477  -9.962  -1.535  1.00  0.00     0.055 A 
HETATM   29 CL   UNL     1      43.387  -8.536  -1.888  1.00  0.00    -0.083 Cl
HETATM   30  C   UNL     1      43.077 -11.197  -1.791  1.00  0.00     0.026 A 
HETATM   31  C   UNL     1      42.389 -12.384  -1.525  1.00  0.00     0.011 A 
ENDBRANCH   9  24
TORSDOF 4
ENDMDL
MODEL 10
REMARK VINA RESULT:      -7.2      4.153      8.350
REMARK  4 active torsions:
REMARK  status: ('A' for Active; 'I' for Inactive)
REMARK    1  A    between atoms: C_9  and  C_10 
REMARK    2  A    between atoms: C_18  and  C_19 
REMARK       I    between atoms: C_19  and  N_20 
REMARK    3  A    between atoms: N_20  and  C_21 
REMARK    4  A    between atoms: C_24  and  O_25 
ROOT
HETATM    1  C   UNL     1      45.218 -13.615   7.098  1.00  0.00     0.070 C 
HETATM    2  C   UNL     1      44.400 -14.800   6.650  1.00  0.00     0.037 C 
HETATM    3  N   UNL     1      44.905 -16.047   7.008  1.00  0.00    -0.192 N 
HETATM    4  C   UNL     1      44.203 -17.190   6.885  1.00  0.00     0.725 A 
HETATM    5  N   UNL     1      42.982 -17.165   6.268  1.00  0.00    -0.084 N 
HETATM    6  N   UNL     1      42.394 -18.379   6.293  1.00  0.00    -0.149 NA
HETATM    7  C   UNL     1      43.339 -19.098   6.913  1.00  0.00     0.275 A 
HETATM    8  N   UNL     1      44.462 -18.406   7.289  1.00  0.00    -0.054 NA
HETATM    9  C   UNL     1      42.377 -15.960   5.690  1.00  0.00     0.202 C 
HETATM   10  C   UNL     1      43.212 -14.721   6.002  1.00  0.00     0.062 C 
HETATM   11  H   UNL     1      45.759 -16.070   7.560  1.00  0.00     0.184 HD
ENDROOT
BRANCH  10  12
HETATM   12  C   UNL     1      42.543 -13.449   5.616  1.00  0.00     0.256 C 
HETATM   13  N   UNL     1      41.479 -13.120   6.427  1.00  0.00    -0.323 N 
HETATM   14  H   UNL     1      41.251 -13.762   7.175  1.00  0.00     0.169 HD
HETATM   15  O   UNL     1      43.014 -12.797   4.693  1.00  0.00    -0.267 OA
BRANCH  13  16
HETATM   16  C   UNL     1      40.656 -11.978   6.331  1.00  0.00     0.035 A 
HETATM   17  C   UNL     1      39.838 -11.695   5.238  1.00  0.00     0.032 A 
HETATM   18  C   UNL     1      39.050 -10.538   5.226  1.00  0.00     0.039 A 
HETATM   19  C   UNL     1      39.057  -9.653   6.305  1.00  0.00     0.068 A 
HETATM   20  C   UNL     1      39.871  -9.931   7.399  1.00  0.00     0.039 A 
HETATM   21  C   UNL     1      40.669 -11.084   7.409  1.00  0.00     0.032 A 
BRANCH  19  22
HETATM   22  O   UNL     1      38.236  -8.570   6.162  1.00  0.00    -0.356 OA
HETATM   23  C   UNL     1      37.637  -8.378   4.888  1.00  0.00     0.210 C 
ENDBRANCH  19  22
ENDBRANCH  13  16
ENDBRANCH  10  12
BRANCH   9  24
HETATM   24  C   UNL     1      42.158 -16.141   4.187  1.00  0.00    -0.026 A 
HETATM   25  C   UNL     1      43.160 -16.663   3.349  1.00  0.00     0.035 A 
HETATM   26  C   UNL     1      42.940 -16.805   1.973  1.00  0.00     0.056 A 
HETATM   27 CL   UNL     1      44.228 -17.455   1.021  1.00  0.00    -0.083 Cl
HETATM   28  C   UNL     1      41.718 -16.418   1.417  1.00  0.00     0.055 A 
HETATM   29 CL   UNL     1      41.379 -16.562  -0.271  1.00  0.00    -0.083 Cl
HETATM   30  C   UNL     1      40.721 -15.887   2.238  1.00  0.00     0.026 A 
HETATM   31  C   UNL     1      40.940 -15.746   3.611  1.00  0.00     0.011 A 
ENDBRANCH   9  24
TORSDOF 4
ENDMDL
