MODEL 1
REMARK VINA RESULT:      -9.0      0.000      0.000
REMARK  3 active torsions:
REMARK  status: ('A' for Active; 'I' for Inactive)
REMARK    1  A    between atoms: C_2  and  C_3 
REMARK    2  A    between atoms: C_9  and  C_10 
REMARK    3  A    between atoms: C_23  and  N_24 
ROOT
HETATM    1  C   UNL     1      44.452 -20.629   4.548  1.00  0.00     0.066 A 
HETATM    2  N   UNL     1      44.447 -21.847   5.120  1.00  0.00    -0.177 NA
HETATM    3  N   UNL     1      44.221 -21.602   6.426  1.00  0.00    -0.256 N 
HETATM    4  H   UNL     1      44.188 -22.383   7.072  1.00  0.00     0.191 HD
HETATM    5  C   UNL     1      44.101 -20.279   6.698  1.00  0.00     0.175 A 
HETATM    6  C   UNL     1      44.210 -19.612   5.504  1.00  0.00     0.035 A 
HETATM    7  C   UNL     1      44.136 -18.123   5.475  1.00  0.00     0.106 A 
HETATM    8  C   UNL     1      44.067 -17.566   6.903  1.00  0.00     0.081 A 
HETATM    9  C   UNL     1      44.145 -16.149   7.035  1.00  0.00     0.100 C 
HETATM   10  N   UNL     1      44.206 -14.996   7.152  1.00  0.00    -0.191 NA
HETATM   11  C   UNL     1      43.975 -18.362   8.005  1.00  0.00     0.140 A 
HETATM   12  O   UNL     1      43.939 -19.765   7.910  1.00  0.00    -0.279 OA
ENDROOT
BRANCH   7  13
HETATM   13  C   UNL     1      42.899 -17.775   4.639  1.00  0.00    -0.033 A 
HETATM   14  C   UNL     1      42.969 -17.516   3.233  1.00  0.00    -0.019 A 
HETATM   15  C   UNL     1      41.770 -17.184   2.544  1.00  0.00    -0.025 A 
HETATM   16  C   UNL     1      44.154 -17.565   2.456  1.00  0.00     0.013 A 
HETATM   17  C   UNL     1      41.787 -16.932   1.163  1.00  0.00     0.012 A 
HETATM   18  C   UNL     1      40.554 -17.104   3.234  1.00  0.00     0.012 A 
HETATM   19  C   UNL     1      42.970 -16.997   0.433  1.00  0.00     0.001 A 
HETATM   20  C   UNL     1      44.154 -17.313   1.081  1.00  0.00     0.001 A 
HETATM   21  C   UNL     1      40.489 -17.349   4.599  1.00  0.00     0.001 A 
HETATM   22  C   UNL     1      41.646 -17.680   5.292  1.00  0.00     0.009 A 
ENDBRANCH   7  13
BRANCH  11  23
HETATM   23  N   UNL     1      43.908 -17.917   9.306  1.00  0.00    -0.282 NA
HETATM   24  H   UNL     1      43.807 -18.641  10.014  1.00  0.00     0.126 HD
HETATM   25  H   UNL     1      44.642 -17.247   9.521  1.00  0.00     0.126 HD
ENDBRANCH  11  23
BRANCH   1  26
HETATM   26  C   UNL     1      44.725 -20.497   3.087  1.00  0.00     0.057 C 
HETATM   27  C   UNL     1      43.723 -21.249   2.227  1.00  0.00     0.011 C 
ENDBRANCH   1  26
TORSDOF 3
ENDMDL
MODEL 2
REMARK VINA RESULT:      -7.9      3.989      6.186
REMARK  3 active torsions:
REMARK  status: ('A' for Active; 'I' for Inactive)
REMARK    1  A    between atoms: C_2  and  C_3 
REMARK    2  A    between atoms: C_9  and  C_10 
REMARK    3  A    between atoms: C_23  and  N_24 
ROOT
HETATM    1  C   UNL     1      43.322 -13.294   6.257  1.00  0.00     0.066 A 
HETATM    2  N   UNL     1      43.016 -12.467   7.273  1.00  0.00    -0.177 NA
HETATM    3  N   UNL     1      41.812 -11.960   6.940  1.00  0.00    -0.256 N 
HETATM    4  H   UNL     1      41.376 -11.288   7.560  1.00  0.00     0.191 HD
HETATM    5  C   UNL     1      41.360 -12.425   5.749  1.00  0.00     0.175 A 
HETATM    6  C   UNL     1      42.291 -13.318   5.286  1.00  0.00     0.035 A 
HETATM    7  C   UNL     1      42.085 -13.995   3.973  1.00  0.00     0.106 A 
HETATM    8  C   UNL     1      40.839 -13.434   3.276  1.00  0.00     0.081 A 
HETATM    9  C   UNL     1      40.602 -13.879   1.943  1.00  0.00     0.100 C 
HETATM   10  N   UNL     1      40.402 -14.237   0.858  1.00  0.00    -0.191 NA
HETATM   11  C   UNL     1      40.006 -12.529   3.863  1.00  0.00     0.140 A 
HETATM   12  O   UNL     1      40.235 -12.037   5.162  1.00  0.00    -0.279 OA
ENDROOT
BRANCH   7  13
HETATM   13  C   UNL     1      41.974 -15.492   4.278  1.00  0.00    -0.033 A 
HETATM   14  C   UNL     1      42.658 -16.486   3.508  1.00  0.00    -0.019 A 
HETATM   15  C   UNL     1      42.481 -17.854   3.856  1.00  0.00    -0.025 A 
HETATM   16  C   UNL     1      43.513 -16.218   2.410  1.00  0.00     0.013 A 
HETATM   17  C   UNL     1      43.139 -18.864   3.136  1.00  0.00     0.012 A 
HETATM   18  C   UNL     1      41.647 -18.213   4.922  1.00  0.00     0.012 A 
HETATM   19  C   UNL     1      43.977 -18.559   2.069  1.00  0.00     0.001 A 
HETATM   20  C   UNL     1      44.163 -17.235   1.705  1.00  0.00     0.001 A 
HETATM   21  C   UNL     1      40.979 -17.248   5.663  1.00  0.00     0.001 A 
HETATM   22  C   UNL     1      41.140 -15.905   5.345  1.00  0.00     0.009 A 
ENDBRANCH   7  13
BRANCH  11  23
HETATM   23  N   UNL     1      38.875 -11.995   3.287  1.00  0.00    -0.282 NA
HETATM   24  H   UNL     1      38.826 -12.058   2.273  1.00  0.00     0.126 HD
HETATM   25  H   UNL     1      38.025 -12.307   3.749  1.00  0.00     0.126 HD
ENDBRANCH  11  23
BRANCH   1  26
HETATM   26  C   UNL     1      44.630 -14.012   6.254  1.00  0.00     0.057 C 
HETATM   27  C   UNL     1      44.534 -15.420   6.819  1.00  0.00     0.011 C 
ENDBRANCH   1  26
TORSDOF 3
ENDMDL
MODEL 3
REMARK VINA RESULT:      -7.8      3.282      6.073
REMARK  3 active torsions:
REMARK  status: ('A' for Active; 'I' for Inactive)
REMARK    1  A    between atoms: C_2  and  C_3 
REMARK    2  A    between atoms: C_9  and  C_10 
REMARK    3  A    between atoms: C_23  and  N_24 
ROOT
HETATM    1  C   UNL     1      42.942 -13.748   5.150  1.00  0.00     0.066 A 
HETATM    2  N   UNL     1      42.270 -12.686   5.630  1.00  0.00    -0.177 NA
HETATM    3  N   UNL     1      41.028 -12.818   5.121  1.00  0.00    -0.256 N 
HETATM    4  H   UNL     1      40.333 -12.113   5.338  1.00  0.00     0.191 HD
HETATM    5  C   UNL     1      40.901 -13.911   4.329  1.00  0.00     0.175 A 
HETATM    6  C   UNL     1      42.108 -14.562   4.346  1.00  0.00     0.035 A 
HETATM    7  C   UNL     1      42.292 -15.808   3.547  1.00  0.00     0.106 A 
HETATM    8  C   UNL     1      41.045 -16.083   2.696  1.00  0.00     0.081 A 
HETATM    9  C   UNL     1      41.136 -17.159   1.766  1.00  0.00     0.100 C 
HETATM   10  N   UNL     1      41.202 -18.034   1.006  1.00  0.00    -0.191 NA
HETATM   11  C   UNL     1      39.911 -15.332   2.779  1.00  0.00     0.140 A 
HETATM   12  O   UNL     1      39.805 -14.237   3.657  1.00  0.00    -0.279 OA
ENDROOT
BRANCH   7  13
HETATM   13  C   UNL     1      42.583 -16.923   4.556  1.00  0.00    -0.033 A 
HETATM   14  C   UNL     1      43.361 -18.077   4.224  1.00  0.00    -0.019 A 
HETATM   15  C   UNL     1      43.565 -19.069   5.223  1.00  0.00    -0.025 A 
HETATM   16  C   UNL     1      43.960 -18.318   2.961  1.00  0.00     0.013 A 
HETATM   17  C   UNL     1      44.330 -20.214   4.947  1.00  0.00     0.012 A 
HETATM   18  C   UNL     1      43.003 -18.918   6.497  1.00  0.00     0.012 A 
HETATM   19  C   UNL     1      44.907 -20.410   3.696  1.00  0.00     0.001 A 
HETATM   20  C   UNL     1      44.721 -19.462   2.703  1.00  0.00     0.001 A 
HETATM   21  C   UNL     1      42.242 -17.802   6.815  1.00  0.00     0.001 A 
HETATM   22  C   UNL     1      42.035 -16.817   5.858  1.00  0.00     0.009 A 
ENDBRANCH   7  13
BRANCH  11  23
HETATM   23  N   UNL     1      38.765 -15.534   2.044  1.00  0.00    -0.282 NA
HETATM   24  H   UNL     1      38.411 -16.488   2.035  1.00  0.00     0.126 HD
HETATM   25  H   UNL     1      38.049 -14.844   2.251  1.00  0.00     0.126 HD
ENDBRANCH  11  23
BRANCH   1  26
HETATM   26  C   UNL     1      44.390 -13.914   5.469  1.00  0.00     0.057 C 
HETATM   27  C   UNL     1      44.632 -14.377   6.896  1.00  0.00     0.011 C 
ENDBRANCH   1  26
TORSDOF 3
ENDMDL
MODEL 4
REMARK VINA RESULT:      -7.6      3.001      5.271
REMARK  3 active torsions:
REMARK  status: ('A' for Active; 'I' for Inactive)
REMARK    1  A    between atoms: C_2  and  C_3 
REMARK    2  A    between atoms: C_9  and  C_10 
REMARK    3  A    between atoms: C_23  and  N_24 
ROOT
HETATM    1  C   UNL     1      43.015 -15.116   2.349  1.00  0.00     0.066 A 
HETATM    2  N   UNL     1      43.193 -13.829   2.003  1.00  0.00    -0.177 NA
HETATM    3  N   UNL     1      42.608 -13.131   2.997  1.00  0.00    -0.256 N 
HETATM    4  H   UNL     1      42.603 -12.119   2.948  1.00  0.00     0.191 HD
HETATM    5  C   UNL     1      42.057 -13.931   3.943  1.00  0.00     0.175 A 
HETATM    6  C   UNL     1      42.326 -15.226   3.581  1.00  0.00     0.035 A 
HETATM    7  C   UNL     1      41.830 -16.352   4.423  1.00  0.00     0.106 A 
HETATM    8  C   UNL     1      40.942 -15.818   5.555  1.00  0.00     0.081 A 
HETATM    9  C   UNL     1      40.273 -16.793   6.351  1.00  0.00     0.100 C 
HETATM   10  N   UNL     1      39.725 -17.581   7.005  1.00  0.00    -0.191 NA
HETATM   11  C   UNL     1      40.755 -14.488   5.786  1.00  0.00     0.140 A 
HETATM   12  O   UNL     1      41.367 -13.501   4.992  1.00  0.00    -0.279 OA
ENDROOT
BRANCH   7  13
HETATM   13  C   UNL     1      43.075 -17.081   4.937  1.00  0.00    -0.033 A 
HETATM   14  C   UNL     1      43.554 -18.294   4.348  1.00  0.00    -0.019 A 
HETATM   15  C   UNL     1      44.711 -18.909   4.904  1.00  0.00    -0.025 A 
HETATM   16  C   UNL     1      42.964 -18.946   3.235  1.00  0.00     0.013 A 
HETATM   17  C   UNL     1      45.224 -20.094   4.353  1.00  0.00     0.012 A 
HETATM   18  C   UNL     1      45.354 -18.339   6.009  1.00  0.00     0.012 A 
HETATM   19  C   UNL     1      44.619 -20.699   3.255  1.00  0.00     0.001 A 
HETATM   20  C   UNL     1      43.488 -20.125   2.697  1.00  0.00     0.001 A 
HETATM   21  C   UNL     1      44.884 -17.167   6.585  1.00  0.00     0.001 A 
HETATM   22  C   UNL     1      43.760 -16.546   6.056  1.00  0.00     0.009 A 
ENDBRANCH   7  13
BRANCH  11  23
HETATM   23  N   UNL     1      39.973 -13.954   6.785  1.00  0.00    -0.282 NA
HETATM   24  H   UNL     1      40.103 -14.360   7.709  1.00  0.00     0.126 HD
HETATM   25  H   UNL     1      39.994 -12.938   6.788  1.00  0.00     0.126 HD
ENDBRANCH  11  23
BRANCH   1  26
HETATM   26  C   UNL     1      43.499 -16.200   1.445  1.00  0.00     0.057 C 
HETATM   27  C   UNL     1      42.393 -16.797   0.590  1.00  0.00     0.011 C 
ENDBRANCH   1  26
TORSDOF 3
ENDMDL
MODEL 5
REMARK VINA RESULT:      -7.5      4.195      6.433
REMARK  3 active torsions:
REMARK  status: ('A' for Active; 'I' for Inactive)
REMARK    1  A    between atoms: C_2  and  C_3 
REMARK    2  A    between atoms: C_9  and  C_10 
REMARK    3  A    between atoms: C_23  and  N_24 
ROOT
HETATM    1  C   UNL     1      41.344 -16.950   2.014  1.00  0.00     0.066 A 
HETATM    2  N   UNL     1      41.308 -17.008   0.670  1.00  0.00    -0.177 NA
HETATM    3  N   UNL     1      40.724 -15.851   0.301  1.00  0.00    -0.256 N 
HETATM    4  H   UNL     1      40.573 -15.672  -0.685  1.00  0.00     0.191 HD
HETATM    5  C   UNL     1      40.379 -15.077   1.359  1.00  0.00     0.175 A 
HETATM    6  C   UNL     1      40.792 -15.735   2.489  1.00  0.00     0.035 A 
HETATM    7  C   UNL     1      40.537 -15.140   3.832  1.00  0.00     0.106 A 
HETATM    8  C   UNL     1      39.690 -13.867   3.697  1.00  0.00     0.081 A 
HETATM    9  C   UNL     1      39.239 -13.273   4.911  1.00  0.00     0.100 C 
HETATM   10  N   UNL     1      38.869 -12.782   5.896  1.00  0.00    -0.191 NA
HETATM   11  C   UNL     1      39.341 -13.334   2.493  1.00  0.00     0.140 A 
HETATM   12  O   UNL     1      39.734 -13.921   1.275  1.00  0.00    -0.279 OA
ENDROOT
BRANCH   7  13
HETATM   13  C   UNL     1      41.914 -14.875   4.450  1.00  0.00    -0.033 A 
HETATM   14  C   UNL     1      42.396 -15.593   5.591  1.00  0.00    -0.019 A 
HETATM   15  C   UNL     1      43.681 -15.267   6.105  1.00  0.00    -0.025 A 
HETATM   16  C   UNL     1      41.688 -16.622   6.262  1.00  0.00     0.013 A 
HETATM   17  C   UNL     1      44.201 -15.951   7.215  1.00  0.00     0.012 A 
HETATM   18  C   UNL     1      44.448 -14.258   5.509  1.00  0.00     0.012 A 
HETATM   19  C   UNL     1      43.477 -16.961   7.842  1.00  0.00     0.001 A 
HETATM   20  C   UNL     1      42.220 -17.296   7.365  1.00  0.00     0.001 A 
HETATM   21  C   UNL     1      43.976 -13.557   4.408  1.00  0.00     0.001 A 
HETATM   22  C   UNL     1      42.726 -13.862   3.885  1.00  0.00     0.009 A 
ENDBRANCH   7  13
BRANCH  11  23
HETATM   23  N   UNL     1      38.586 -12.197   2.313  1.00  0.00    -0.282 NA
HETATM   24  H   UNL     1      37.586 -12.345   2.200  1.00  0.00     0.126 HD
HETATM   25  H   UNL     1      38.809 -11.476   2.994  1.00  0.00     0.126 HD
ENDBRANCH  11  23
BRANCH   1  26
HETATM   26  C   UNL     1      41.891 -18.100   2.791  1.00  0.00     0.057 C 
HETATM   27  C   UNL     1      43.394 -18.013   3.000  1.00  0.00     0.011 C 
ENDBRANCH   1  26
TORSDOF 3
ENDMDL
MODEL 6
REMARK VINA RESULT:      -7.5      4.259      7.160
REMARK  3 active torsions:
REMARK  status: ('A' for Active; 'I' for Inactive)
REMARK    1  A    between atoms: C_2  and  C_3 
REMARK    2  A    between atoms: C_9  and  C_10 
REMARK    3  A    between atoms: C_23  and  N_24 
ROOT
HETATM    1  C   UNL     1      40.323 -12.860   3.542  1.00  0.00     0.066 A 
HETATM    2  N   UNL     1      39.122 -12.459   3.088  1.00  0.00    -0.177 NA
HETATM    3  N   UNL     1      38.855 -13.295   2.065  1.00  0.00    -0.256 N 
HETATM    4  H   UNL     1      37.992 -13.176   1.547  1.00  0.00     0.191 HD
HETATM    5  C   UNL     1      39.849 -14.193   1.850  1.00  0.00     0.175 A 
HETATM    6  C   UNL     1      40.806 -13.970   2.806  1.00  0.00     0.035 A 
HETATM    7  C   UNL     1      42.047 -14.796   2.824  1.00  0.00     0.106 A 
HETATM    8  C   UNL     1      42.081 -15.730   1.607  1.00  0.00     0.081 A 
HETATM    9  C   UNL     1      43.281 -16.472   1.410  1.00  0.00     0.100 C 
HETATM   10  N   UNL     1      44.255 -17.082   1.243  1.00  0.00    -0.191 NA
HETATM   11  C   UNL     1      41.048 -15.835   0.725  1.00  0.00     0.140 A 
HETATM   12  O   UNL     1      39.866 -15.084   0.867  1.00  0.00    -0.279 OA
ENDROOT
BRANCH   7  13
HETATM   13  C   UNL     1      42.036 -15.553   4.155  1.00  0.00    -0.033 A 
HETATM   14  C   UNL     1      42.922 -15.229   5.232  1.00  0.00    -0.019 A 
HETATM   15  C   UNL     1      42.849 -15.998   6.426  1.00  0.00    -0.025 A 
HETATM   16  C   UNL     1      43.880 -14.184   5.209  1.00  0.00     0.013 A 
HETATM   17  C   UNL     1      43.690 -15.711   7.513  1.00  0.00     0.012 A 
HETATM   18  C   UNL     1      41.937 -17.056   6.534  1.00  0.00     0.012 A 
HETATM   19  C   UNL     1      44.614 -14.672   7.454  1.00  0.00     0.001 A 
HETATM   20  C   UNL     1      44.709 -13.909   6.301  1.00  0.00     0.001 A 
HETATM   21  C   UNL     1      41.084 -17.374   5.486  1.00  0.00     0.001 A 
HETATM   22  C   UNL     1      41.133 -16.633   4.313  1.00  0.00     0.009 A 
ENDBRANCH   7  13
BRANCH  11  23
HETATM   23  N   UNL     1      41.023 -16.656  -0.380  1.00  0.00    -0.282 NA
HETATM   24  H   UNL     1      41.418 -16.261  -1.231  1.00  0.00     0.126 HD
HETATM   25  H   UNL     1      41.371 -17.589  -0.174  1.00  0.00     0.126 HD
ENDBRANCH  11  23
BRANCH   1  26
HETATM   26  C   UNL     1      40.975 -12.123   4.664  1.00  0.00     0.057 C 
HETATM   27  C   UNL     1      40.532 -12.615   6.032  1.00  0.00     0.011 C 
ENDBRANCH   1  26
TORSDOF 3
ENDMDL
MODEL 7
REMARK VINA RESULT:      -7.4      3.826      5.814
REMARK  3 active torsions:
REMARK  status: ('A' for Active; 'I' for Inactive)
REMARK    1  A    between atoms: C_2  and  C_3 
REMARK    2  A    between atoms: C_9  and  C_10 
REMARK    3  A    between atoms: C_23  and  N_24 
ROOT
HETATM    1  C   UNL     1      42.755 -18.139   5.300  1.00  0.00     0.066 A 
HETATM    2  N   UNL     1      43.593 -19.135   4.964  1.00  0.00    -0.177 NA
HETATM    3  N   UNL     1      43.480 -19.230   3.624  1.00  0.00    -0.256 N 
HETATM    4  H   UNL     1      44.018 -19.937   3.135  1.00  0.00     0.191 HD
HETATM    5  C   UNL     1      42.591 -18.344   3.110  1.00  0.00     0.175 A 
HETATM    6  C   UNL     1      42.122 -17.593   4.156  1.00  0.00     0.035 A 
HETATM    7  C   UNL     1      41.104 -16.531   3.912  1.00  0.00     0.106 A 
HETATM    8  C   UNL     1      40.648 -16.559   2.447  1.00  0.00     0.081 A 
HETATM    9  C   UNL     1      39.565 -15.698   2.103  1.00  0.00     0.100 C 
HETATM   10  N   UNL     1      38.684 -14.999   1.814  1.00  0.00    -0.191 NA
HETATM   11  C   UNL     1      41.205 -17.380   1.513  1.00  0.00     0.140 A 
HETATM   12  O   UNL     1      42.246 -18.272   1.830  1.00  0.00    -0.279 OA
ENDROOT
BRANCH   7  13
HETATM   13  C   UNL     1      41.768 -15.207   4.303  1.00  0.00    -0.033 A 
HETATM   14  C   UNL     1      41.088 -14.200   5.061  1.00  0.00    -0.019 A 
HETATM   15  C   UNL     1      41.780 -12.995   5.364  1.00  0.00    -0.025 A 
HETATM   16  C   UNL     1      39.759 -14.306   5.546  1.00  0.00     0.013 A 
HETATM   17  C   UNL     1      41.158 -11.983   6.113  1.00  0.00     0.012 A 
HETATM   18  C   UNL     1      43.093 -12.800   4.917  1.00  0.00     0.012 A 
HETATM   19  C   UNL     1      39.854 -12.129   6.577  1.00  0.00     0.001 A 
HETATM   20  C   UNL     1      39.155 -13.291   6.292  1.00  0.00     0.001 A 
HETATM   21  C   UNL     1      43.748 -13.774   4.176  1.00  0.00     0.001 A 
HETATM   22  C   UNL     1      43.094 -14.961   3.874  1.00  0.00     0.009 A 
ENDBRANCH   7  13
BRANCH  11  23
HETATM   23  N   UNL     1      40.837 -17.446   0.188  1.00  0.00    -0.282 NA
HETATM   24  H   UNL     1      41.333 -16.816  -0.438  1.00  0.00     0.126 HD
HETATM   25  H   UNL     1      40.801 -18.402  -0.154  1.00  0.00     0.126 HD
ENDBRANCH  11  23
BRANCH   1  26
HETATM   26  C   UNL     1      42.577 -17.772   6.735  1.00  0.00     0.057 C 
HETATM   27  C   UNL     1      43.528 -16.677   7.189  1.00  0.00     0.011 C 
ENDBRANCH   1  26
TORSDOF 3
ENDMDL
MODEL 8
REMARK VINA RESULT:      -7.4      8.799     10.714
REMARK  3 active torsions:
REMARK  status: ('A' for Active; 'I' for Inactive)
REMARK    1  A    between atoms: C_2  and  C_3 
REMARK    2  A    between atoms: C_9  and  C_10 
REMARK    3  A    between atoms: C_23  and  N_24 
ROOT
HETATM    1  C   UNL     1      37.913 -15.170  -3.799  1.00  0.00     0.066 A 
HETATM    2  N   UNL     1      38.263 -16.392  -4.237  1.00  0.00    -0.177 NA
HETATM    3  N   UNL     1      39.606 -16.416  -4.125  1.00  0.00    -0.256 N 
HETATM    4  H   UNL     1      40.107 -17.247  -4.415  1.00  0.00     0.191 HD
HETATM    5  C   UNL     1      40.112 -15.251  -3.648  1.00  0.00     0.175 A 
HETATM    6  C   UNL     1      39.047 -14.427  -3.391  1.00  0.00     0.035 A 
HETATM    7  C   UNL     1      39.282 -13.050  -2.868  1.00  0.00     0.106 A 
HETATM    8  C   UNL     1      40.786 -12.747  -2.825  1.00  0.00     0.081 A 
HETATM    9  C   UNL     1      41.155 -11.412  -2.489  1.00  0.00     0.100 C 
HETATM   10  N   UNL     1      41.465 -10.328  -2.214  1.00  0.00    -0.191 NA
HETATM   11  C   UNL     1      41.737 -13.675  -3.125  1.00  0.00     0.140 A 
HETATM   12  O   UNL     1      41.404 -14.989  -3.503  1.00  0.00    -0.279 OA
ENDROOT
BRANCH   7  13
HETATM   13  C   UNL     1      38.626 -13.003  -1.484  1.00  0.00    -0.033 A 
HETATM   14  C   UNL     1      37.468 -12.208  -1.209  1.00  0.00    -0.019 A 
HETATM   15  C   UNL     1      36.938 -12.215   0.112  1.00  0.00    -0.025 A 
HETATM   16  C   UNL     1      36.790 -11.403  -2.159  1.00  0.00     0.013 A 
HETATM   17  C   UNL     1      35.797 -11.460   0.427  1.00  0.00     0.012 A 
HETATM   18  C   UNL     1      37.548 -12.976   1.117  1.00  0.00     0.012 A 
HETATM   19  C   UNL     1      35.156 -10.688  -0.537  1.00  0.00     0.001 A 
HETATM   20  C   UNL     1      35.654 -10.659  -1.830  1.00  0.00     0.001 A 
HETATM   21  C   UNL     1      38.676 -13.740   0.850  1.00  0.00     0.001 A 
HETATM   22  C   UNL     1      39.208 -13.753  -0.433  1.00  0.00     0.009 A 
ENDBRANCH   7  13
BRANCH  11  23
HETATM   23  N   UNL     1      43.097 -13.459  -3.102  1.00  0.00    -0.282 NA
HETATM   24  H   UNL     1      43.656 -14.114  -3.644  1.00  0.00     0.126 HD
HETATM   25  H   UNL     1      43.335 -12.487  -3.282  1.00  0.00     0.126 HD
ENDBRANCH  11  23
BRANCH   1  26
HETATM   26  C   UNL     1      36.479 -14.757  -3.821  1.00  0.00     0.057 C 
HETATM   27  C   UNL     1      36.145 -13.841  -4.987  1.00  0.00     0.011 C 
ENDBRANCH   1  26
TORSDOF 3
ENDMDL
MODEL 9
REMARK VINA RESULT:      -7.4      4.514      6.874
REMARK  3 active torsions:
REMARK  status: ('A' for Active; 'I' for Inactive)
REMARK    1  A    between atoms: C_2  and  C_3 
REMARK    2  A    between atoms: C_9  and  C_10 
REMARK    3  A    between atoms: C_23  and  N_24 
ROOT
HETATM    1  C   UNL     1      42.560 -13.405   5.020  1.00  0.00     0.066 A 
HETATM    2  N   UNL     1      42.126 -12.606   6.011  1.00  0.00    -0.177 NA
HETATM    3  N   UNL     1      41.452 -11.625   5.379  1.00  0.00    -0.256 N 
HETATM    4  H   UNL     1      41.038 -10.882   5.930  1.00  0.00     0.191 HD
HETATM    5  C   UNL     1      41.460 -11.769   4.031  1.00  0.00     0.175 A 
HETATM    6  C   UNL     1      42.139 -12.928   3.755  1.00  0.00     0.035 A 
HETATM    7  C   UNL     1      42.335 -13.357   2.340  1.00  0.00     0.106 A 
HETATM    8  C   UNL     1      41.808 -12.281   1.381  1.00  0.00     0.081 A 
HETATM    9  C   UNL     1      42.066 -12.485  -0.005  1.00  0.00     0.100 C 
HETATM   10  N   UNL     1      42.270 -12.645  -1.137  1.00  0.00    -0.191 NA
HETATM   11  C   UNL     1      41.159 -11.161   1.808  1.00  0.00     0.140 A 
HETATM   12  O   UNL     1      40.926 -10.909   3.173  1.00  0.00    -0.279 OA
ENDROOT
BRANCH   7  13
HETATM   13  C   UNL     1      41.602 -14.694   2.195  1.00  0.00    -0.033 A 
HETATM   14  C   UNL     1      42.292 -15.930   1.982  1.00  0.00    -0.019 A 
HETATM   15  C   UNL     1      41.525 -17.121   1.842  1.00  0.00    -0.025 A 
HETATM   16  C   UNL     1      43.700 -16.071   1.900  1.00  0.00     0.013 A 
HETATM   17  C   UNL     1      42.158 -18.358   1.643  1.00  0.00     0.012 A 
HETATM   18  C   UNL     1      40.127 -17.074   1.902  1.00  0.00     0.012 A 
HETATM   19  C   UNL     1      43.545 -18.455   1.575  1.00  0.00     0.001 A 
HETATM   20  C   UNL     1      44.316 -17.311   1.703  1.00  0.00     0.001 A 
HETATM   21  C   UNL     1      39.459 -15.874   2.100  1.00  0.00     0.001 A 
HETATM   22  C   UNL     1      40.187 -14.699   2.245  1.00  0.00     0.009 A 
ENDBRANCH   7  13
BRANCH  11  23
HETATM   23  N   UNL     1      40.665 -10.167   0.994  1.00  0.00    -0.282 NA
HETATM   24  H   UNL     1      39.683 -10.252   0.742  1.00  0.00     0.126 HD
HETATM   25  H   UNL     1      40.913  -9.239   1.328  1.00  0.00     0.126 HD
ENDBRANCH  11  23
BRANCH   1  26
HETATM   26  C   UNL     1      43.401 -14.595   5.342  1.00  0.00     0.057 C 
HETATM   27  C   UNL     1      42.578 -15.839   5.635  1.00  0.00     0.011 C 
ENDBRANCH   1  26
TORSDOF 3
ENDMDL
MODEL 10
REMARK VINA RESULT:      -7.4      3.423      5.673
REMARK  3 active torsions:
REMARK  status: ('A' for Active; 'I' for Inactive)
REMARK    1  A    between atoms: C_2  and  C_3 
REMARK    2  A    between atoms: C_9  and  C_10 
REMARK    3  A    between atoms: C_23  and  N_24 
ROOT
HETATM    1  C   UNL     1      43.442 -18.801   2.999  1.00  0.00     0.066 A 
HETATM    2  N   UNL     1      44.064 -19.394   1.964  1.00  0.00    -0.177 NA
HETATM    3  N   UNL     1      43.654 -18.698   0.885  1.00  0.00    -0.256 N 
HETATM    4  H   UNL     1      43.986 -18.975  -0.032  1.00  0.00     0.191 HD
HETATM    5  C   UNL     1      42.788 -17.704   1.201  1.00  0.00     0.175 A 
HETATM    6  C   UNL     1      42.648 -17.712   2.565  1.00  0.00     0.035 A 
HETATM    7  C   UNL     1      41.735 -16.735   3.224  1.00  0.00     0.106 A 
HETATM    8  C   UNL     1      40.974 -15.922   2.169  1.00  0.00     0.081 A 
HETATM    9  C   UNL     1      39.953 -15.052   2.651  1.00  0.00     0.100 C 
HETATM   10  N   UNL     1      39.120 -14.340   3.036  1.00  0.00    -0.191 NA
HETATM   11  C   UNL     1      41.215 -16.033   0.832  1.00  0.00     0.140 A 
HETATM   12  O   UNL     1      42.187 -16.913   0.321  1.00  0.00    -0.279 OA
ENDROOT
BRANCH   7  13
HETATM   13  C   UNL     1      42.620 -15.864   4.122  1.00  0.00    -0.033 A 
HETATM   14  C   UNL     1      42.850 -16.168   5.502  1.00  0.00    -0.019 A 
HETATM   15  C   UNL     1      43.674 -15.292   6.262  1.00  0.00    -0.025 A 
HETATM   16  C   UNL     1      42.317 -17.290   6.187  1.00  0.00     0.013 A 
HETATM   17  C   UNL     1      43.936 -15.554   7.616  1.00  0.00     0.012 A 
HETATM   18  C   UNL     1      44.235 -14.154   5.669  1.00  0.00     0.012 A 
HETATM   19  C   UNL     1      43.401 -16.671   8.250  1.00  0.00     0.001 A 
HETATM   20  C   UNL     1      42.590 -17.538   7.536  1.00  0.00     0.001 A 
HETATM   21  C   UNL     1      44.005 -13.857   4.333  1.00  0.00     0.001 A 
HETATM   22  C   UNL     1      43.208 -14.701   3.569  1.00  0.00     0.009 A 
ENDBRANCH   7  13
BRANCH  11  23
HETATM   23  N   UNL     1      40.566 -15.329  -0.157  1.00  0.00    -0.282 NA
HETATM   24  H   UNL     1      40.772 -14.333  -0.196  1.00  0.00     0.126 HD
HETATM   25  H   UNL     1      40.634 -15.787  -1.062  1.00  0.00     0.126 HD
ENDBRANCH  11  23
BRANCH   1  26
HETATM   26  C   UNL     1      43.621 -19.340   4.379  1.00  0.00     0.057 C 
HETATM   27  C   UNL     1      45.052 -19.221   4.879  1.00  0.00     0.011 C 
ENDBRANCH   1  26
TORSDOF 3
ENDMDL
