MODEL 1
REMARK VINA RESULT:      -8.5      0.000      0.000
REMARK  5 active torsions:
REMARK  status: ('A' for Active; 'I' for Inactive)
REMARK    1  A    between atoms: C_3  and  C_4 
REMARK    2  A    between atoms: C_9  and  N_10 
REMARK       I    between atoms: N_10  and  C_11 
REMARK    3  A    between atoms: C_11  and  C_12 
REMARK    4  A    between atoms: C_14  and  C_15 
REMARK    5  A    between atoms: C_17  and  O_18 
ROOT
HETATM    1  C   UNL     1      41.522 -16.291   0.477  1.00  0.00     0.149 A 
HETATM    2  N   UNL     1      42.547 -17.209   0.681  1.00  0.00    -0.223 NA
HETATM    3  C   UNL     1      42.344 -17.735   1.877  1.00  0.00     0.139 A 
HETATM    4  N   UNL     1      41.234 -17.164   2.456  1.00  0.00    -0.342 N 
HETATM    5  H   UNL     1      40.893 -17.370   3.384  1.00  0.00     0.167 HD
HETATM    6  C   UNL     1      40.700 -16.250   1.588  1.00  0.00     0.041 A 
HETATM    7  C   UNL     1      39.497 -15.445   1.898  1.00  0.00     0.071 C 
ENDROOT
BRANCH   1   8
HETATM    8  C   UNL     1      41.389 -15.503  -0.758  1.00  0.00     0.276 C 
HETATM    9  N   UNL     1      41.926 -14.240  -0.609  1.00  0.00    -0.322 N 
HETATM   10  H   UNL     1      42.328 -14.074   0.310  1.00  0.00     0.169 HD
HETATM   11  O   UNL     1      40.863 -15.961  -1.766  1.00  0.00    -0.266 OA
BRANCH   9  12
HETATM   12  C   UNL     1      41.968 -13.198  -1.553  1.00  0.00     0.035 A 
HETATM   13  C   UNL     1      41.314 -13.240  -2.782  1.00  0.00     0.030 A 
HETATM   14  C   UNL     1      41.381 -12.154  -3.661  1.00  0.00     0.018 A 
HETATM   15  C   UNL     1      42.113 -11.006  -3.329  1.00  0.00     0.015 A 
HETATM   16  C   UNL     1      42.793 -10.952  -2.097  1.00  0.00    -0.046 A 
HETATM   17  C   UNL     1      43.598  -9.755  -1.669  1.00  0.00     0.049 C 
HETATM   18  C   UNL     1      42.702 -12.052  -1.220  1.00  0.00     0.037 A 
BRANCH  15  19
HETATM   19  C   UNL     1      42.126  -9.857  -4.286  1.00  0.00     0.156 C 
HETATM   20  C   UNL     1      41.141  -8.736  -4.072  1.00  0.00     0.097 C 
HETATM   21  O   UNL     1      42.939  -9.816  -5.205  1.00  0.00    -0.293 OA
ENDBRANCH  15  19
ENDBRANCH   9  12
ENDBRANCH   1   8
BRANCH   3  22
HETATM   22  C   UNL     1      43.175 -18.742   2.544  1.00  0.00     0.013 A 
HETATM   23  C   UNL     1      43.608 -18.520   3.862  1.00  0.00     0.052 A 
HETATM   24  C   UNL     1      44.376 -19.475   4.532  1.00  0.00     0.069 A 
HETATM   25  C   UNL     1      44.729 -20.654   3.874  1.00  0.00     0.037 A 
HETATM   26  C   UNL     1      44.321 -20.884   2.561  1.00  0.00     0.004 A 
HETATM   27  C   UNL     1      43.546 -19.931   1.899  1.00  0.00     0.015 A 
BRANCH  24  28
HETATM   28  O   UNL     1      44.842 -19.380   5.815  1.00  0.00    -0.356 OA
HETATM   29  C   UNL     1      45.076 -18.072   6.319  1.00  0.00     0.210 C 
ENDBRANCH  24  28
ENDBRANCH   3  22
TORSDOF 5
ENDMDL
MODEL 2
REMARK VINA RESULT:      -8.3      3.115      4.154
REMARK  5 active torsions:
REMARK  status: ('A' for Active; 'I' for Inactive)
REMARK    1  A    between atoms: C_3  and  C_4 
REMARK    2  A    between atoms: C_9  and  N_10 
REMARK       I    between atoms: N_10  and  C_11 
REMARK    3  A    between atoms: C_11  and  C_12 
REMARK    4  A    between atoms: C_14  and  C_15 
REMARK    5  A    between atoms: C_17  and  O_18 
ROOT
HETATM    1  C   UNL     1      42.892 -16.074   3.483  1.00  0.00     0.149 A 
HETATM    2  N   UNL     1      43.102 -17.422   3.212  1.00  0.00    -0.223 NA
HETATM    3  C   UNL     1      43.552 -17.962   4.332  1.00  0.00     0.139 A 
HETATM    4  N   UNL     1      43.661 -16.995   5.306  1.00  0.00    -0.342 N 
HETATM    5  H   UNL     1      44.017 -17.149   6.239  1.00  0.00     0.167 HD
HETATM    6  C   UNL     1      43.248 -15.797   4.790  1.00  0.00     0.041 A 
HETATM    7  C   UNL     1      43.242 -14.538   5.570  1.00  0.00     0.071 C 
ENDROOT
BRANCH   1   8
HETATM    8  C   UNL     1      42.373 -15.129   2.482  1.00  0.00     0.276 C 
HETATM    9  N   UNL     1      41.391 -15.710   1.704  1.00  0.00    -0.322 N 
HETATM   10  H   UNL     1      41.187 -16.674   1.958  1.00  0.00     0.169 HD
HETATM   11  O   UNL     1      42.792 -13.982   2.395  1.00  0.00    -0.266 OA
BRANCH   9  12
HETATM   12  C   UNL     1      40.679 -15.137   0.635  1.00  0.00     0.035 A 
HETATM   13  C   UNL     1      39.514 -14.390   0.793  1.00  0.00     0.030 A 
HETATM   14  C   UNL     1      38.872 -13.829  -0.315  1.00  0.00     0.018 A 
HETATM   15  C   UNL     1      39.381 -14.014  -1.608  1.00  0.00     0.015 A 
HETATM   16  C   UNL     1      40.549 -14.780  -1.789  1.00  0.00    -0.046 A 
HETATM   17  C   UNL     1      41.156 -15.023  -3.144  1.00  0.00     0.049 C 
HETATM   18  C   UNL     1      41.188 -15.325  -0.657  1.00  0.00     0.037 A 
BRANCH  15  19
HETATM   19  C   UNL     1      38.679 -13.366  -2.759  1.00  0.00     0.156 C 
HETATM   20  C   UNL     1      37.565 -14.122  -3.437  1.00  0.00     0.097 C 
HETATM   21  O   UNL     1      38.985 -12.233  -3.122  1.00  0.00    -0.293 OA
ENDBRANCH  15  19
ENDBRANCH   9  12
ENDBRANCH   1   8
BRANCH   3  22
HETATM   22  C   UNL     1      43.935 -19.362   4.538  1.00  0.00     0.013 A 
HETATM   23  C   UNL     1      44.125 -20.200   3.426  1.00  0.00     0.052 A 
HETATM   24  C   UNL     1      44.517 -21.530   3.593  1.00  0.00     0.069 A 
HETATM   25  C   UNL     1      44.705 -22.033   4.881  1.00  0.00     0.037 A 
HETATM   26  C   UNL     1      44.506 -21.220   5.996  1.00  0.00     0.004 A 
HETATM   27  C   UNL     1      44.123 -19.889   5.825  1.00  0.00     0.015 A 
BRANCH  24  28
HETATM   28  O   UNL     1      44.748 -22.435   2.592  1.00  0.00    -0.356 OA
HETATM   29  C   UNL     1      44.189 -22.140   1.318  1.00  0.00     0.210 C 
ENDBRANCH  24  28
ENDBRANCH   3  22
TORSDOF 5
ENDMDL
MODEL 3
REMARK VINA RESULT:      -8.2      1.763      2.104
REMARK  5 active torsions:
REMARK  status: ('A' for Active; 'I' for Inactive)
REMARK    1  A    between atoms: C_3  and  C_4 
REMARK    2  A    between atoms: C_9  and  N_10 
REMARK       I    between atoms: N_10  and  C_11 
REMARK    3  A    between atoms: C_11  and  C_12 
REMARK    4  A    between atoms: C_14  and  C_15 
REMARK    5  A    between atoms: C_17  and  O_18 
ROOT
HETATM    1  C   UNL     1      42.275 -16.334   1.594  1.00  0.00     0.149 A 
HETATM    2  N   UNL     1      42.365 -17.715   1.452  1.00  0.00    -0.223 NA
HETATM    3  C   UNL     1      43.234 -18.127   2.359  1.00  0.00     0.139 A 
HETATM    4  N   UNL     1      43.724 -17.048   3.061  1.00  0.00    -0.342 N 
HETATM    5  H   UNL     1      44.429 -17.098   3.782  1.00  0.00     0.167 HD
HETATM    6  C   UNL     1      43.130 -15.907   2.593  1.00  0.00     0.041 A 
HETATM    7  C   UNL     1      43.434 -14.560   3.125  1.00  0.00     0.071 C 
ENDROOT
BRANCH   1   8
HETATM    8  C   UNL     1      41.388 -15.502   0.766  1.00  0.00     0.276 C 
HETATM    9  N   UNL     1      42.055 -14.991  -0.330  1.00  0.00    -0.322 N 
HETATM   10  H   UNL     1      43.029 -15.282  -0.386  1.00  0.00     0.169 HD
HETATM   11  O   UNL     1      40.212 -15.321   1.056  1.00  0.00    -0.266 OA
BRANCH   9  12
HETATM   12  C   UNL     1      41.555 -14.140  -1.332  1.00  0.00     0.035 A 
HETATM   13  C   UNL     1      40.791 -14.580  -2.411  1.00  0.00     0.030 A 
HETATM   14  C   UNL     1      40.306 -13.671  -3.357  1.00  0.00     0.018 A 
HETATM   15  C   UNL     1      40.585 -12.302  -3.245  1.00  0.00     0.015 A 
HETATM   16  C   UNL     1      41.368 -11.842  -2.168  1.00  0.00    -0.046 A 
HETATM   17  C   UNL     1      41.710 -10.388  -1.979  1.00  0.00     0.049 C 
HETATM   18  C   UNL     1      41.836 -12.773  -1.219  1.00  0.00     0.037 A 
BRANCH  15  19
HETATM   19  C   UNL     1      40.015 -11.365  -4.261  1.00  0.00     0.156 C 
HETATM   20  C   UNL     1      38.563 -10.977  -4.143  1.00  0.00     0.097 C 
HETATM   21  O   UNL     1      40.722 -10.901  -5.151  1.00  0.00    -0.293 OA
ENDBRANCH  15  19
ENDBRANCH   9  12
ENDBRANCH   1   8
BRANCH   3  22
HETATM   22  C   UNL     1      43.676 -19.506   2.588  1.00  0.00     0.013 A 
HETATM   23  C   UNL     1      44.162 -19.878   3.853  1.00  0.00     0.052 A 
HETATM   24  C   UNL     1      44.562 -21.192   4.106  1.00  0.00     0.069 A 
HETATM   25  C   UNL     1      44.492 -22.138   3.083  1.00  0.00     0.037 A 
HETATM   26  C   UNL     1      44.027 -21.784   1.818  1.00  0.00     0.004 A 
HETATM   27  C   UNL     1      43.620 -20.472   1.572  1.00  0.00     0.015 A 
BRANCH  24  28
HETATM   28  O   UNL     1      45.035 -21.675   5.296  1.00  0.00    -0.356 OA
HETATM   29  C   UNL     1      44.213 -21.484   6.440  1.00  0.00     0.210 C 
ENDBRANCH  24  28
ENDBRANCH   3  22
TORSDOF 5
ENDMDL
MODEL 4
REMARK VINA RESULT:      -8.1      1.322      2.116
REMARK  5 active torsions:
REMARK  status: ('A' for Active; 'I' for Inactive)
REMARK    1  A    between atoms: C_3  and  C_4 
REMARK    2  A    between atoms: C_9  and  N_10 
REMARK       I    between atoms: N_10  and  C_11 
REMARK    3  A    between atoms: C_11  and  C_12 
REMARK    4  A    between atoms: C_14  and  C_15 
REMARK    5  A    between atoms: C_17  and  O_18 
ROOT
HETATM    1  C   UNL     1      41.389 -15.983   0.644  1.00  0.00     0.149 A 
HETATM    2  N   UNL     1      42.463 -16.803   0.977  1.00  0.00    -0.223 NA
HETATM    3  C   UNL     1      42.225 -17.251   2.198  1.00  0.00     0.139 A 
HETATM    4  N   UNL     1      41.044 -16.723   2.667  1.00  0.00    -0.342 N 
HETATM    5  H   UNL     1      40.662 -16.884   3.589  1.00  0.00     0.167 HD
HETATM    6  C   UNL     1      40.500 -15.920   1.701  1.00  0.00     0.041 A 
HETATM    7  C   UNL     1      39.227 -15.187   1.880  1.00  0.00     0.071 C 
ENDROOT
BRANCH   1   8
HETATM    8  C   UNL     1      41.277 -15.303  -0.655  1.00  0.00     0.276 C 
HETATM    9  N   UNL     1      41.646 -13.975  -0.562  1.00  0.00    -0.322 N 
HETATM   10  H   UNL     1      41.941 -13.699   0.372  1.00  0.00     0.169 HD
HETATM   11  O   UNL     1      40.901 -15.889  -1.663  1.00  0.00    -0.266 OA
BRANCH   9  12
HETATM   12  C   UNL     1      41.650 -13.002  -1.578  1.00  0.00     0.035 A 
HETATM   13  C   UNL     1      42.609 -12.939  -2.585  1.00  0.00     0.030 A 
HETATM   14  C   UNL     1      42.535 -11.956  -3.578  1.00  0.00     0.018 A 
HETATM   15  C   UNL     1      41.501 -11.010  -3.574  1.00  0.00     0.015 A 
HETATM   16  C   UNL     1      40.531 -11.050  -2.554  1.00  0.00    -0.046 A 
HETATM   17  C   UNL     1      39.390 -10.070  -2.483  1.00  0.00     0.049 C 
HETATM   18  C   UNL     1      40.617 -12.056  -1.571  1.00  0.00     0.037 A 
BRANCH  15  19
HETATM   19  C   UNL     1      41.444 -10.000  -4.676  1.00  0.00     0.156 C 
HETATM   20  C   UNL     1      42.247  -8.733  -4.529  1.00  0.00     0.097 C 
HETATM   21  O   UNL     1      40.781 -10.214  -5.688  1.00  0.00    -0.293 OA
ENDBRANCH  15  19
ENDBRANCH   9  12
ENDBRANCH   1   8
BRANCH   3  22
HETATM   22  C   UNL     1      43.082 -18.140   2.988  1.00  0.00     0.013 A 
HETATM   23  C   UNL     1      43.458 -19.388   2.464  1.00  0.00     0.052 A 
HETATM   24  C   UNL     1      44.297 -20.242   3.183  1.00  0.00     0.069 A 
HETATM   25  C   UNL     1      44.752 -19.853   4.444  1.00  0.00     0.037 A 
HETATM   26  C   UNL     1      44.378 -18.625   4.986  1.00  0.00     0.004 A 
HETATM   27  C   UNL     1      43.546 -17.771   4.260  1.00  0.00     0.015 A 
BRANCH  24  28
HETATM   28  O   UNL     1      44.742 -21.470   2.773  1.00  0.00    -0.356 OA
HETATM   29  C   UNL     1      44.175 -21.993   1.579  1.00  0.00     0.210 C 
ENDBRANCH  24  28
ENDBRANCH   3  22
TORSDOF 5
ENDMDL
MODEL 5
REMARK VINA RESULT:      -8.0      4.337      6.198
REMARK  5 active torsions:
REMARK  status: ('A' for Active; 'I' for Inactive)
REMARK    1  A    between atoms: C_3  and  C_4 
REMARK    2  A    between atoms: C_9  and  N_10 
REMARK       I    between atoms: N_10  and  C_11 
REMARK    3  A    between atoms: C_11  and  C_12 
REMARK    4  A    between atoms: C_14  and  C_15 
REMARK    5  A    between atoms: C_17  and  O_18 
ROOT
HETATM    1  C   UNL     1      41.322 -16.210   2.384  1.00  0.00     0.149 A 
HETATM    2  N   UNL     1      41.852 -17.250   3.141  1.00  0.00    -0.223 NA
HETATM    3  C   UNL     1      42.528 -18.015   2.301  1.00  0.00     0.139 A 
HETATM    4  N   UNL     1      42.427 -17.511   1.024  1.00  0.00    -0.342 N 
HETATM    5  H   UNL     1      42.825 -17.936   0.199  1.00  0.00     0.167 HD
HETATM    6  C   UNL     1      41.670 -16.371   1.056  1.00  0.00     0.041 A 
HETATM    7  C   UNL     1      41.355 -15.574  -0.152  1.00  0.00     0.071 C 
ENDROOT
BRANCH   1   8
HETATM    8  C   UNL     1      40.510 -15.131   2.968  1.00  0.00     0.276 C 
HETATM    9  N   UNL     1      41.177 -14.502   4.000  1.00  0.00    -0.322 N 
HETATM   10  H   UNL     1      42.108 -14.876   4.171  1.00  0.00     0.169 HD
HETATM   11  O   UNL     1      39.390 -14.864   2.550  1.00  0.00    -0.266 OA
BRANCH   9  12
HETATM   12  C   UNL     1      40.723 -13.446   4.811  1.00  0.00     0.035 A 
HETATM   13  C   UNL     1      39.860 -13.616   5.891  1.00  0.00     0.030 A 
HETATM   14  C   UNL     1      39.469 -12.522   6.669  1.00  0.00     0.018 A 
HETATM   15  C   UNL     1      39.930 -11.232   6.374  1.00  0.00     0.015 A 
HETATM   16  C   UNL     1      40.792 -11.039   5.277  1.00  0.00    -0.046 A 
HETATM   17  C   UNL     1      41.329  -9.685   4.898  1.00  0.00     0.049 C 
HETATM   18  C   UNL     1      41.183 -12.157   4.514  1.00  0.00     0.037 A 
BRANCH  15  19
HETATM   19  C   UNL     1      39.513 -10.098   7.257  1.00  0.00     0.156 C 
HETATM   20  C   UNL     1      40.330  -9.813   8.491  1.00  0.00     0.097 C 
HETATM   21  O   UNL     1      38.546  -9.400   6.964  1.00  0.00    -0.293 OA
ENDBRANCH  15  19
ENDBRANCH   9  12
ENDBRANCH   1   8
BRANCH   3  22
HETATM   22  C   UNL     1      43.252 -19.248   2.627  1.00  0.00     0.013 A 
HETATM   23  C   UNL     1      43.720 -19.452   3.936  1.00  0.00     0.052 A 
HETATM   24  C   UNL     1      44.387 -20.629   4.281  1.00  0.00     0.069 A 
HETATM   25  C   UNL     1      44.605 -21.604   3.306  1.00  0.00     0.037 A 
HETATM   26  C   UNL     1      44.161 -21.412   1.999  1.00  0.00     0.004 A 
HETATM   27  C   UNL     1      43.487 -20.238   1.660  1.00  0.00     0.015 A 
BRANCH  24  28
HETATM   28  O   UNL     1      44.873 -20.948   5.520  1.00  0.00    -0.356 OA
HETATM   29  C   UNL     1      43.928 -21.029   6.579  1.00  0.00     0.210 C 
ENDBRANCH  24  28
ENDBRANCH   3  22
TORSDOF 5
ENDMDL
MODEL 6
REMARK VINA RESULT:      -8.0      2.005      3.123
REMARK  5 active torsions:
REMARK  status: ('A' for Active; 'I' for Inactive)
REMARK    1  A    between atoms: C_3  and  C_4 
REMARK    2  A    between atoms: C_9  and  N_10 
REMARK       I    between atoms: N_10  and  C_11 
REMARK    3  A    between atoms: C_11  and  C_12 
REMARK    4  A    between atoms: C_14  and  C_15 
REMARK    5  A    between atoms: C_17  and  O_18 
ROOT
HETATM    1  C   UNL     1      41.174 -15.737   3.156  1.00  0.00     0.149 A 
HETATM    2  N   UNL     1      42.002 -16.827   2.907  1.00  0.00    -0.223 NA
HETATM    3  C   UNL     1      42.270 -17.368   4.083  1.00  0.00     0.139 A 
HETATM    4  N   UNL     1      41.659 -16.643   5.081  1.00  0.00    -0.342 N 
HETATM    5  H   UNL     1      41.742 -16.833   6.070  1.00  0.00     0.167 HD
HETATM    6  C   UNL     1      40.961 -15.610   4.517  1.00  0.00     0.041 A 
HETATM    7  C   UNL     1      40.190 -14.625   5.309  1.00  0.00     0.071 C 
ENDROOT
BRANCH   1   8
HETATM    8  C   UNL     1      40.640 -14.878   2.088  1.00  0.00     0.276 C 
HETATM    9  N   UNL     1      41.607 -14.587   1.146  1.00  0.00    -0.322 N 
HETATM   10  H   UNL     1      42.508 -15.019   1.340  1.00  0.00     0.169 HD
HETATM   11  O   UNL     1      39.475 -14.500   2.081  1.00  0.00    -0.266 OA
BRANCH   9  12
HETATM   12  C   UNL     1      41.487 -13.783  -0.002  1.00  0.00     0.035 A 
HETATM   13  C   UNL     1      41.825 -12.433  -0.040  1.00  0.00     0.030 A 
HETATM   14  C   UNL     1      41.702 -11.701  -1.226  1.00  0.00     0.018 A 
HETATM   15  C   UNL     1      41.228 -12.308  -2.396  1.00  0.00     0.015 A 
HETATM   16  C   UNL     1      40.866 -13.669  -2.372  1.00  0.00    -0.046 A 
HETATM   17  C   UNL     1      40.350 -14.392  -3.588  1.00  0.00     0.049 C 
HETATM   18  C   UNL     1      41.011 -14.391  -1.170  1.00  0.00     0.037 A 
BRANCH  15  19
HETATM   19  C   UNL     1      41.146 -11.495  -3.649  1.00  0.00     0.156 C 
HETATM   20  C   UNL     1      42.397 -11.321  -4.473  1.00  0.00     0.097 C 
HETATM   21  O   UNL     1      40.080 -11.005  -4.010  1.00  0.00    -0.293 OA
ENDBRANCH  15  19
ENDBRANCH   9  12
ENDBRANCH   1   8
BRANCH   3  22
HETATM   22  C   UNL     1      43.121 -18.534   4.338  1.00  0.00     0.013 A 
HETATM   23  C   UNL     1      43.608 -19.287   3.256  1.00  0.00     0.052 A 
HETATM   24  C   UNL     1      44.443 -20.386   3.468  1.00  0.00     0.069 A 
HETATM   25  C   UNL     1      44.783 -20.746   4.773  1.00  0.00     0.037 A 
HETATM   26  C   UNL     1      44.297 -20.020   5.859  1.00  0.00     0.004 A 
HETATM   27  C   UNL     1      43.469 -18.917   5.642  1.00  0.00     0.015 A 
BRANCH  24  28
HETATM   28  O   UNL     1      44.990 -21.183   2.499  1.00  0.00    -0.356 OA
HETATM   29  C   UNL     1      44.085 -21.845   1.626  1.00  0.00     0.210 C 
ENDBRANCH  24  28
ENDBRANCH   3  22
TORSDOF 5
ENDMDL
MODEL 7
REMARK VINA RESULT:      -7.9      2.349      9.753
REMARK  5 active torsions:
REMARK  status: ('A' for Active; 'I' for Inactive)
REMARK    1  A    between atoms: C_3  and  C_4 
REMARK    2  A    between atoms: C_9  and  N_10 
REMARK       I    between atoms: N_10  and  C_11 
REMARK    3  A    between atoms: C_11  and  C_12 
REMARK    4  A    between atoms: C_14  and  C_15 
REMARK    5  A    between atoms: C_17  and  O_18 
ROOT
HETATM    1  C   UNL     1      42.240 -14.671   2.369  1.00  0.00     0.149 A 
HETATM    2  N   UNL     1      42.049 -14.577   0.994  1.00  0.00    -0.223 NA
HETATM    3  C   UNL     1      42.056 -13.286   0.704  1.00  0.00     0.139 A 
HETATM    4  N   UNL     1      42.221 -12.550   1.856  1.00  0.00    -0.342 N 
HETATM    5  H   UNL     1      42.223 -11.541   1.904  1.00  0.00     0.167 HD
HETATM    6  C   UNL     1      42.340 -13.406   2.917  1.00  0.00     0.041 A 
HETATM    7  C   UNL     1      42.523 -12.945   4.312  1.00  0.00     0.071 C 
ENDROOT
BRANCH   1   8
HETATM    8  C   UNL     1      42.308 -15.958   3.079  1.00  0.00     0.276 C 
HETATM    9  N   UNL     1      43.349 -16.735   2.612  1.00  0.00    -0.322 N 
HETATM   10  H   UNL     1      43.892 -16.289   1.877  1.00  0.00     0.169 HD
HETATM   11  O   UNL     1      41.517 -16.250   3.967  1.00  0.00    -0.266 OA
BRANCH   9  12
HETATM   12  C   UNL     1      43.718 -18.029   3.023  1.00  0.00     0.035 A 
HETATM   13  C   UNL     1      44.227 -18.325   4.285  1.00  0.00     0.030 A 
HETATM   14  C   UNL     1      44.550 -19.640   4.632  1.00  0.00     0.018 A 
HETATM   15  C   UNL     1      44.377 -20.687   3.716  1.00  0.00     0.015 A 
HETATM   16  C   UNL     1      43.877 -20.404   2.430  1.00  0.00    -0.046 A 
HETATM   17  C   UNL     1      43.662 -21.473   1.392  1.00  0.00     0.049 C 
HETATM   18  C   UNL     1      43.546 -19.073   2.105  1.00  0.00     0.037 A 
BRANCH  15  19
HETATM   19  C   UNL     1      44.702 -22.082   4.145  1.00  0.00     0.156 C 
HETATM   20  C   UNL     1      44.875 -22.357   5.617  1.00  0.00     0.097 C 
HETATM   21  O   UNL     1      44.797 -22.986   3.319  1.00  0.00    -0.293 OA
ENDBRANCH  15  19
ENDBRANCH   9  12
ENDBRANCH   1   8
BRANCH   3  22
HETATM   22  C   UNL     1      41.874 -12.684  -0.620  1.00  0.00     0.013 A 
HETATM   23  C   UNL     1      40.838 -13.140  -1.452  1.00  0.00     0.052 A 
HETATM   24  C   UNL     1      40.624 -12.565  -2.707  1.00  0.00     0.069 A 
HETATM   25  C   UNL     1      41.461 -11.536  -3.140  1.00  0.00     0.037 A 
HETATM   26  C   UNL     1      42.503 -11.081  -2.334  1.00  0.00     0.004 A 
HETATM   27  C   UNL     1      42.708 -11.653  -1.078  1.00  0.00     0.015 A 
BRANCH  24  28
HETATM   28  O   UNL     1      39.643 -12.911  -3.596  1.00  0.00    -0.356 OA
HETATM   29  C   UNL     1      38.415 -12.200  -3.508  1.00  0.00     0.210 C 
ENDBRANCH  24  28
ENDBRANCH   3  22
TORSDOF 5
ENDMDL
MODEL 8
REMARK VINA RESULT:      -7.9      3.080      3.734
REMARK  5 active torsions:
REMARK  status: ('A' for Active; 'I' for Inactive)
REMARK    1  A    between atoms: C_3  and  C_4 
REMARK    2  A    between atoms: C_9  and  N_10 
REMARK       I    between atoms: N_10  and  C_11 
REMARK    3  A    between atoms: C_11  and  C_12 
REMARK    4  A    between atoms: C_14  and  C_15 
REMARK    5  A    between atoms: C_17  and  O_18 
ROOT
HETATM    1  C   UNL     1      41.361 -15.709   2.797  1.00  0.00     0.149 A 
HETATM    2  N   UNL     1      42.060 -16.745   2.186  1.00  0.00    -0.223 NA
HETATM    3  C   UNL     1      42.324 -17.627   3.135  1.00  0.00     0.139 A 
HETATM    4  N   UNL     1      41.837 -17.176   4.341  1.00  0.00    -0.342 N 
HETATM    5  H   UNL     1      41.945 -17.652   5.226  1.00  0.00     0.167 HD
HETATM    6  C   UNL     1      41.225 -15.967   4.149  1.00  0.00     0.041 A 
HETATM    7  C   UNL     1      40.595 -15.194   5.244  1.00  0.00     0.071 C 
ENDROOT
BRANCH   1   8
HETATM    8  C   UNL     1      40.871 -14.533   2.061  1.00  0.00     0.276 C 
HETATM    9  N   UNL     1      39.732 -14.830   1.339  1.00  0.00    -0.322 N 
HETATM   10  H   UNL     1      39.421 -15.793   1.446  1.00  0.00     0.169 HD
HETATM   11  O   UNL     1      41.438 -13.449   2.119  1.00  0.00    -0.266 OA
BRANCH   9  12
HETATM   12  C   UNL     1      38.990 -13.980   0.499  1.00  0.00     0.035 A 
HETATM   13  C   UNL     1      37.882 -13.250   0.920  1.00  0.00     0.030 A 
HETATM   14  C   UNL     1      37.207 -12.405   0.033  1.00  0.00     0.018 A 
HETATM   15  C   UNL     1      37.626 -12.281  -1.298  1.00  0.00     0.015 A 
HETATM   16  C   UNL     1      38.737 -13.023  -1.746  1.00  0.00    -0.046 A 
HETATM   17  C   UNL     1      39.247 -12.944  -3.160  1.00  0.00     0.049 C 
HETATM   18  C   UNL     1      39.410 -13.860  -0.832  1.00  0.00     0.037 A 
BRANCH  15  19
HETATM   19  C   UNL     1      36.895 -11.338  -2.200  1.00  0.00     0.156 C 
HETATM   20  C   UNL     1      37.325  -9.893  -2.225  1.00  0.00     0.097 C 
HETATM   21  O   UNL     1      35.987 -11.739  -2.922  1.00  0.00    -0.293 OA
ENDBRANCH  15  19
ENDBRANCH   9  12
ENDBRANCH   1   8
BRANCH   3  22
HETATM   22  C   UNL     1      43.061 -18.885   2.983  1.00  0.00     0.013 A 
HETATM   23  C   UNL     1      43.904 -19.325   4.018  1.00  0.00     0.052 A 
HETATM   24  C   UNL     1      44.595 -20.534   3.911  1.00  0.00     0.069 A 
HETATM   25  C   UNL     1      44.457 -21.302   2.753  1.00  0.00     0.037 A 
HETATM   26  C   UNL     1      43.637 -20.873   1.711  1.00  0.00     0.004 A 
HETATM   27  C   UNL     1      42.941 -19.669   1.825  1.00  0.00     0.015 A 
BRANCH  24  28
HETATM   28  O   UNL     1      45.428 -21.072   4.853  1.00  0.00    -0.356 OA
HETATM   29  C   UNL     1      45.184 -22.421   5.231  1.00  0.00     0.210 C 
ENDBRANCH  24  28
ENDBRANCH   3  22
TORSDOF 5
ENDMDL
MODEL 9
REMARK VINA RESULT:      -7.8      2.985      3.361
REMARK  5 active torsions:
REMARK  status: ('A' for Active; 'I' for Inactive)
REMARK    1  A    between atoms: C_3  and  C_4 
REMARK    2  A    between atoms: C_9  and  N_10 
REMARK       I    between atoms: N_10  and  C_11 
REMARK    3  A    between atoms: C_11  and  C_12 
REMARK    4  A    between atoms: C_14  and  C_15 
REMARK    5  A    between atoms: C_17  and  O_18 
ROOT
HETATM    1  C   UNL     1      41.189 -15.612   1.058  1.00  0.00     0.149 A 
HETATM    2  N   UNL     1      42.104 -16.659   0.999  1.00  0.00    -0.223 NA
HETATM    3  C   UNL     1      42.146 -17.186   2.211  1.00  0.00     0.139 A 
HETATM    4  N   UNL     1      41.304 -16.492   3.051  1.00  0.00    -0.342 N 
HETATM    5  H   UNL     1      41.188 -16.677   4.038  1.00  0.00     0.167 HD
HETATM    6  C   UNL     1      40.690 -15.495   2.342  1.00  0.00     0.041 A 
HETATM    7  C   UNL     1      39.722 -14.551   2.945  1.00  0.00     0.071 C 
ENDROOT
BRANCH   1   8
HETATM    8  C   UNL     1      40.850 -14.782  -0.108  1.00  0.00     0.276 C 
HETATM    9  N   UNL     1      39.485 -14.736  -0.314  1.00  0.00    -0.322 N 
HETATM   10  H   UNL     1      38.952 -15.266   0.372  1.00  0.00     0.169 HD
HETATM   11  O   UNL     1      41.710 -14.220  -0.776  1.00  0.00    -0.266 OA
BRANCH   9  12
HETATM   12  C   UNL     1      38.783 -14.070  -1.334  1.00  0.00     0.035 A 
HETATM   13  C   UNL     1      38.723 -14.516  -2.652  1.00  0.00     0.030 A 
HETATM   14  C   UNL     1      37.984 -13.813  -3.609  1.00  0.00     0.018 A 
HETATM   15  C   UNL     1      37.297 -12.641  -3.265  1.00  0.00     0.015 A 
HETATM   16  C   UNL     1      37.359 -12.166  -1.940  1.00  0.00    -0.046 A 
HETATM   17  C   UNL     1      36.648 -10.917  -1.494  1.00  0.00     0.049 C 
HETATM   18  C   UNL     1      38.099 -12.897  -0.989  1.00  0.00     0.037 A 
BRANCH  15  19
HETATM   19  C   UNL     1      36.491 -11.943  -4.314  1.00  0.00     0.156 C 
HETATM   20  C   UNL     1      35.047 -12.340  -4.490  1.00  0.00     0.097 C 
HETATM   21  O   UNL     1      36.988 -11.050  -4.994  1.00  0.00    -0.293 OA
ENDBRANCH  15  19
ENDBRANCH   9  12
ENDBRANCH   1   8
BRANCH   3  22
HETATM   22  C   UNL     1      42.980 -18.308   2.651  1.00  0.00     0.013 A 
HETATM   23  C   UNL     1      43.579 -18.270   3.922  1.00  0.00     0.052 A 
HETATM   24  C   UNL     1      44.356 -19.338   4.377  1.00  0.00     0.069 A 
HETATM   25  C   UNL     1      44.550 -20.445   3.550  1.00  0.00     0.037 A 
HETATM   26  C   UNL     1      43.977 -20.493   2.281  1.00  0.00     0.004 A 
HETATM   27  C   UNL     1      43.194 -19.428   1.833  1.00  0.00     0.015 A 
BRANCH  24  28
HETATM   28  O   UNL     1      44.973 -19.424   5.595  1.00  0.00    -0.356 OA
HETATM   29  C   UNL     1      45.116 -18.215   6.330  1.00  0.00     0.210 C 
ENDBRANCH  24  28
ENDBRANCH   3  22
TORSDOF 5
ENDMDL
MODEL 10
REMARK VINA RESULT:      -7.7      5.767      9.471
REMARK  5 active torsions:
REMARK  status: ('A' for Active; 'I' for Inactive)
REMARK    1  A    between atoms: C_3  and  C_4 
REMARK    2  A    between atoms: C_9  and  N_10 
REMARK       I    between atoms: N_10  and  C_11 
REMARK    3  A    between atoms: C_11  and  C_12 
REMARK    4  A    between atoms: C_14  and  C_15 
REMARK    5  A    between atoms: C_17  and  O_18 
ROOT
HETATM    1  C   UNL     1      42.247 -12.788   4.532  1.00  0.00     0.149 A 
HETATM    2  N   UNL     1      42.251 -12.444   5.880  1.00  0.00    -0.223 NA
HETATM    3  C   UNL     1      41.407 -11.435   6.010  1.00  0.00     0.139 A 
HETATM    4  N   UNL     1      40.880 -11.106   4.781  1.00  0.00    -0.342 N 
HETATM    5  H   UNL     1      40.239 -10.343   4.610  1.00  0.00     0.167 HD
HETATM    6  C   UNL     1      41.398 -11.948   3.835  1.00  0.00     0.041 A 
HETATM    7  C   UNL     1      41.047 -11.867   2.399  1.00  0.00     0.071 C 
ENDROOT
BRANCH   1   8
HETATM    8  C   UNL     1      43.056 -13.889   3.986  1.00  0.00     0.276 C 
HETATM    9  N   UNL     1      42.374 -15.088   4.036  1.00  0.00    -0.322 N 
HETATM   10  H   UNL     1      41.437 -15.007   4.424  1.00  0.00     0.169 HD
HETATM   11  O   UNL     1      44.187 -13.708   3.552  1.00  0.00    -0.266 OA
BRANCH   9  12
HETATM   12  C   UNL     1      42.821 -16.359   3.632  1.00  0.00     0.035 A 
HETATM   13  C   UNL     1      42.983 -16.735   2.301  1.00  0.00     0.030 A 
HETATM   14  C   UNL     1      43.457 -18.010   1.974  1.00  0.00     0.018 A 
HETATM   15  C   UNL     1      43.768 -18.938   2.978  1.00  0.00     0.015 A 
HETATM   16  C   UNL     1      43.596 -18.580   4.329  1.00  0.00    -0.046 A 
HETATM   17  C   UNL     1      43.910 -19.520   5.462  1.00  0.00     0.049 C 
HETATM   18  C   UNL     1      43.130 -17.285   4.636  1.00  0.00     0.037 A 
BRANCH  15  19
HETATM   19  C   UNL     1      44.305 -20.276   2.580  1.00  0.00     0.156 C 
HETATM   20  C   UNL     1      43.405 -21.208   1.808  1.00  0.00     0.097 C 
HETATM   21  O   UNL     1      45.459 -20.595   2.852  1.00  0.00    -0.293 OA
ENDBRANCH  15  19
ENDBRANCH   9  12
ENDBRANCH   1   8
BRANCH   3  22
HETATM   22  C   UNL     1      41.084 -10.715   7.246  1.00  0.00     0.013 A 
HETATM   23  C   UNL     1      42.037 -10.646   8.276  1.00  0.00     0.052 A 
HETATM   24  C   UNL     1      41.767  -9.943   9.453  1.00  0.00     0.069 A 
HETATM   25  C   UNL     1      40.529  -9.318   9.608  1.00  0.00     0.037 A 
HETATM   26  C   UNL     1      39.566  -9.389   8.602  1.00  0.00     0.004 A 
HETATM   27  C   UNL     1      39.843 -10.085   7.425  1.00  0.00     0.015 A 
BRANCH  24  28
HETATM   28  O   UNL     1      42.616  -9.792  10.515  1.00  0.00    -0.356 OA
HETATM   29  C   UNL     1      43.225 -10.971  11.024  1.00  0.00     0.210 C 
ENDBRANCH  24  28
ENDBRANCH   3  22
TORSDOF 5
ENDMDL
