MODEL 1
REMARK VINA RESULT:      -9.6      0.000      0.000
REMARK  8 active torsions:
REMARK  status: ('A' for Active; 'I' for Inactive)
REMARK       I    between atoms: N_2  and  C_3 
REMARK    1  A    between atoms: N_2  and  C_29 
REMARK    2  A    between atoms: C_3  and  C_4 
REMARK    3  A    between atoms: C_7  and  C_8 
REMARK       I    between atoms: C_8  and  N_9 
REMARK    4  A    between atoms: N_9  and  C_10 
REMARK    5  A    between atoms: N_20  and  C_21 
REMARK    6  A    between atoms: C_21  and  C_22 
REMARK    7  A    between atoms: C_29  and  C_30 
REMARK    8  A    between atoms: C_30  and  C_31 
ROOT
HETATM    1  C   UNL     1      43.361 -16.216   6.645  1.00  0.00     0.098 C 
HETATM    2  C   UNL     1      42.569 -15.666   5.521  1.00  0.00     0.206 C 
HETATM    3  O   UNL     1      41.555 -16.226   5.106  1.00  0.00    -0.286 OA
HETATM    4  C   UNL     1      43.058 -14.411   4.877  1.00  0.00     0.098 C 
HETATM    5  C   UNL     1      43.989 -13.709   5.550  1.00  0.00     0.111 C 
HETATM    6  N   UNL     1      44.568 -14.114   6.748  1.00  0.00    -0.362 N 
HETATM    7  C   UNL     1      44.261 -15.391   7.209  1.00  0.00     0.111 C 
ENDROOT
BRANCH   1   8
HETATM    8  C   UNL     1      43.227 -17.565   7.241  1.00  0.00     0.258 C 
HETATM    9  N   UNL     1      44.118 -18.574   6.878  1.00  0.00    -0.352 N 
HETATM   10  C   UNL     1      44.031 -19.823   7.623  1.00  0.00     0.152 C 
HETATM   11  O   UNL     1      42.406 -17.715   8.151  1.00  0.00    -0.267 OA
BRANCH   9  12
HETATM   12  C   UNL     1      44.912 -18.649   5.638  1.00  0.00     0.131 C 
BRANCH  12  13
HETATM   13  C   UNL     1      44.128 -18.667   4.326  1.00  0.00     0.079 C 
BRANCH  13  14
HETATM   14  C   UNL     1      44.229 -19.983   3.606  1.00  0.00     0.035 A 
HETATM   15  N   UNL     1      44.688 -21.037   4.325  1.00  0.00    -0.266 NA
HETATM   16  C   UNL     1      44.750 -22.231   3.698  1.00  0.00     0.117 A 
HETATM   17  C   UNL     1      44.377 -22.430   2.380  1.00  0.00     0.019 A 
HETATM   18  C   UNL     1      43.920 -21.335   1.656  1.00  0.00     0.003 A 
HETATM   19  C   UNL     1      43.847 -20.092   2.273  1.00  0.00     0.027 A 
ENDBRANCH  13  14
ENDBRANCH  12  13
ENDBRANCH   9  12
ENDBRANCH   1   8
BRANCH   4  20
HETATM   20  C   UNL     1      42.638 -13.952   3.524  1.00  0.00     0.257 C 
HETATM   21  N   UNL     1      41.418 -14.433   3.118  1.00  0.00    -0.352 N 
HETATM   22  H   UNL     1      40.824 -14.881   3.816  1.00  0.00     0.163 HD
HETATM   23  O   UNL     1      43.367 -13.262   2.818  1.00  0.00    -0.267 OA
BRANCH  21  24
HETATM   24  C   UNL     1      40.863 -14.255   1.775  1.00  0.00     0.084 C 
HETATM   25  C   UNL     1      41.475 -15.345   0.883  1.00  0.00     0.025 C 
HETATM   26  C   UNL     1      41.147 -15.335  -0.609  1.00  0.00     0.002 C 
HETATM   27  C   UNL     1      41.180 -13.962  -1.278  1.00  0.00     0.000 C 
HETATM   28  C   UNL     1      39.801 -13.347  -1.523  1.00  0.00     0.000 C 
HETATM   29  C   UNL     1      39.018 -12.902  -0.286  1.00  0.00     0.000 C 
HETATM   30  C   UNL     1      38.529 -14.048   0.600  1.00  0.00     0.002 C 
HETATM   31  C   UNL     1      39.334 -14.273   1.880  1.00  0.00     0.025 C 
ENDBRANCH  21  24
ENDBRANCH   4  20
BRANCH   6  32
HETATM   32  C   UNL     1      45.458 -13.219   7.525  1.00  0.00     0.159 C 
BRANCH  32  33
HETATM   33  C   UNL     1      44.756 -12.428   8.640  1.00  0.00     0.139 C 
HETATM   34  O   UNL     1      44.436 -13.252   9.778  1.00  0.00    -0.384 OA
HETATM   35  C   UNL     1      44.413 -12.389  10.918  1.00  0.00     0.168 C 
HETATM   36  C   UNL     1      45.514 -11.388  10.670  1.00  0.00     0.029 C 
HETATM   37  C   UNL     1      45.492 -11.200   9.169  1.00  0.00     0.035 C 
ENDBRANCH  32  33
ENDBRANCH   6  32
TORSDOF 8
ENDMDL
MODEL 2
REMARK VINA RESULT:      -9.3      1.463      2.571
REMARK  8 active torsions:
REMARK  status: ('A' for Active; 'I' for Inactive)
REMARK       I    between atoms: N_2  and  C_3 
REMARK    1  A    between atoms: N_2  and  C_29 
REMARK    2  A    between atoms: C_3  and  C_4 
REMARK    3  A    between atoms: C_7  and  C_8 
REMARK       I    between atoms: C_8  and  N_9 
REMARK    4  A    between atoms: N_9  and  C_10 
REMARK    5  A    between atoms: N_20  and  C_21 
REMARK    6  A    between atoms: C_21  and  C_22 
REMARK    7  A    between atoms: C_29  and  C_30 
REMARK    8  A    between atoms: C_30  and  C_31 
ROOT
HETATM    1  C   UNL     1      43.310 -16.307   6.410  1.00  0.00     0.098 C 
HETATM    2  C   UNL     1      42.336 -15.615   5.534  1.00  0.00     0.206 C 
HETATM    3  O   UNL     1      41.307 -16.166   5.145  1.00  0.00    -0.286 OA
HETATM    4  C   UNL     1      42.655 -14.221   5.109  1.00  0.00     0.098 C 
HETATM    5  C   UNL     1      43.630 -13.589   5.789  1.00  0.00     0.111 C 
HETATM    6  N   UNL     1      44.396 -14.172   6.794  1.00  0.00    -0.362 N 
HETATM    7  C   UNL     1      44.231 -15.537   7.014  1.00  0.00     0.111 C 
ENDROOT
BRANCH   1   8
HETATM    8  C   UNL     1      43.339 -17.754   6.724  1.00  0.00     0.258 C 
HETATM    9  N   UNL     1      43.976 -18.639   5.854  1.00  0.00    -0.352 N 
HETATM   10  C   UNL     1      44.111 -20.018   6.306  1.00  0.00     0.152 C 
HETATM   11  O   UNL     1      42.913 -18.115   7.825  1.00  0.00    -0.267 OA
BRANCH   9  12
HETATM   12  C   UNL     1      44.242 -18.431   4.419  1.00  0.00     0.131 C 
BRANCH  12  13
HETATM   13  C   UNL     1      43.194 -18.971   3.446  1.00  0.00     0.079 C 
BRANCH  13  14
HETATM   14  C   UNL     1      42.756 -17.946   2.436  1.00  0.00     0.035 A 
HETATM   15  N   UNL     1      41.608 -18.205   1.764  1.00  0.00    -0.266 NA
HETATM   16  C   UNL     1      41.187 -17.275   0.880  1.00  0.00     0.117 A 
HETATM   17  C   UNL     1      41.861 -16.092   0.627  1.00  0.00     0.019 A 
HETATM   18  C   UNL     1      43.043 -15.850   1.316  1.00  0.00     0.003 A 
HETATM   19  C   UNL     1      43.503 -16.790   2.231  1.00  0.00     0.027 A 
ENDBRANCH  13  14
ENDBRANCH  12  13
ENDBRANCH   9  12
ENDBRANCH   1   8
BRANCH   4  20
HETATM   20  C   UNL     1      42.021 -13.540   3.946  1.00  0.00     0.257 C 
HETATM   21  N   UNL     1      40.656 -13.673   3.888  1.00  0.00    -0.352 N 
HETATM   22  H   UNL     1      40.176 -14.036   4.712  1.00  0.00     0.163 HD
HETATM   23  O   UNL     1      42.687 -12.975   3.083  1.00  0.00    -0.267 OA
BRANCH  21  24
HETATM   24  C   UNL     1      39.827 -13.234   2.764  1.00  0.00     0.084 C 
HETATM   25  C   UNL     1      39.057 -14.463   2.261  1.00  0.00     0.025 C 
HETATM   26  C   UNL     1      38.183 -14.316   1.017  1.00  0.00     0.002 C 
HETATM   27  C   UNL     1      38.804 -13.519  -0.129  1.00  0.00     0.000 C 
HETATM   28  C   UNL     1      38.283 -12.087  -0.257  1.00  0.00     0.000 C 
HETATM   29  C   UNL     1      38.685 -11.110   0.851  1.00  0.00     0.000 C 
HETATM   30  C   UNL     1      38.044 -11.394   2.209  1.00  0.00     0.002 C 
HETATM   31  C   UNL     1      38.961 -12.061   3.236  1.00  0.00     0.025 C 
ENDBRANCH  21  24
ENDBRANCH   4  20
BRANCH   6  32
HETATM   32  C   UNL     1      45.334 -13.377   7.621  1.00  0.00     0.159 C 
BRANCH  32  33
HETATM   33  C   UNL     1      44.665 -12.539   8.722  1.00  0.00     0.139 C 
HETATM   34  O   UNL     1      44.411 -13.306   9.915  1.00  0.00    -0.384 OA
HETATM   35  C   UNL     1      44.421 -12.383  11.007  1.00  0.00     0.168 C 
HETATM   36  C   UNL     1      45.490 -11.378  10.657  1.00  0.00     0.029 C 
HETATM   37  C   UNL     1      45.399 -11.272   9.151  1.00  0.00     0.035 C 
ENDBRANCH  32  33
ENDBRANCH   6  32
TORSDOF 8
ENDMDL
MODEL 3
REMARK VINA RESULT:      -9.1      3.339      9.041
REMARK  8 active torsions:
REMARK  status: ('A' for Active; 'I' for Inactive)
REMARK       I    between atoms: N_2  and  C_3 
REMARK    1  A    between atoms: N_2  and  C_29 
REMARK    2  A    between atoms: C_3  and  C_4 
REMARK    3  A    between atoms: C_7  and  C_8 
REMARK       I    between atoms: C_8  and  N_9 
REMARK    4  A    between atoms: N_9  and  C_10 
REMARK    5  A    between atoms: N_20  and  C_21 
REMARK    6  A    between atoms: C_21  and  C_22 
REMARK    7  A    between atoms: C_29  and  C_30 
REMARK    8  A    between atoms: C_30  and  C_31 
ROOT
HETATM    1  C   UNL     1      39.304 -14.236   0.580  1.00  0.00     0.098 C 
HETATM    2  C   UNL     1      39.989 -15.186   1.487  1.00  0.00     0.206 C 
HETATM    3  O   UNL     1      39.575 -15.411   2.624  1.00  0.00    -0.286 OA
HETATM    4  C   UNL     1      41.228 -15.850   0.987  1.00  0.00     0.098 C 
HETATM    5  C   UNL     1      41.458 -15.783  -0.337  1.00  0.00     0.111 C 
HETATM    6  N   UNL     1      40.668 -15.079  -1.240  1.00  0.00    -0.362 N 
HETATM    7  C   UNL     1      39.651 -14.285  -0.717  1.00  0.00     0.111 C 
ENDROOT
BRANCH   1   8
HETATM    8  C   UNL     1      38.241 -13.274   0.952  1.00  0.00     0.258 C 
HETATM    9  N   UNL     1      38.585 -12.050   1.525  1.00  0.00    -0.352 N 
HETATM   10  C   UNL     1      37.506 -11.088   1.711  1.00  0.00     0.152 C 
HETATM   11  O   UNL     1      37.083 -13.533   0.613  1.00  0.00    -0.267 OA
BRANCH   9  12
HETATM   12  C   UNL     1      39.828 -11.731   2.251  1.00  0.00     0.131 C 
BRANCH  12  13
HETATM   13  C   UNL     1      39.868 -12.107   3.732  1.00  0.00     0.079 C 
BRANCH  13  14
HETATM   14  C   UNL     1      41.195 -12.678   4.151  1.00  0.00     0.035 A 
HETATM   15  N   UNL     1      41.386 -12.864   5.480  1.00  0.00    -0.266 NA
HETATM   16  C   UNL     1      42.560 -13.408   5.864  1.00  0.00     0.117 A 
HETATM   17  C   UNL     1      43.564 -13.775   4.984  1.00  0.00     0.019 A 
HETATM   18  C   UNL     1      43.356 -13.564   3.627  1.00  0.00     0.003 A 
HETATM   19  C   UNL     1      42.157 -13.004   3.200  1.00  0.00     0.027 A 
ENDBRANCH  13  14
ENDBRANCH  12  13
ENDBRANCH   9  12
ENDBRANCH   1   8
BRANCH   4  20
HETATM   20  C   UNL     1      42.239 -16.497   1.869  1.00  0.00     0.257 C 
HETATM   21  N   UNL     1      41.774 -16.821   3.119  1.00  0.00    -0.352 N 
HETATM   22  H   UNL     1      40.767 -16.785   3.279  1.00  0.00     0.163 HD
HETATM   23  O   UNL     1      43.404 -16.651   1.515  1.00  0.00    -0.267 OA
BRANCH  21  24
HETATM   24  C   UNL     1      42.612 -17.317   4.212  1.00  0.00     0.084 C 
HETATM   25  C   UNL     1      41.847 -17.065   5.520  1.00  0.00     0.025 C 
HETATM   26  C   UNL     1      42.537 -17.394   6.842  1.00  0.00     0.002 C 
HETATM   27  C   UNL     1      44.000 -16.966   6.942  1.00  0.00     0.000 C 
HETATM   28  C   UNL     1      45.004 -18.105   6.758  1.00  0.00     0.000 C 
HETATM   29  C   UNL     1      45.110 -18.706   5.355  1.00  0.00     0.000 C 
HETATM   30  C   UNL     1      43.882 -19.501   4.911  1.00  0.00     0.002 C 
HETATM   31  C   UNL     1      42.961 -18.781   3.926  1.00  0.00     0.025 C 
ENDBRANCH  21  24
ENDBRANCH   4  20
BRANCH   6  32
HETATM   32  C   UNL     1      40.874 -15.183  -2.704  1.00  0.00     0.159 C 
BRANCH  32  33
HETATM   33  C   UNL     1      41.457 -13.922  -3.361  1.00  0.00     0.139 C 
HETATM   34  O   UNL     1      40.434 -12.982  -3.745  1.00  0.00    -0.384 OA
HETATM   35  C   UNL     1      41.035 -11.685  -3.719  1.00  0.00     0.168 C 
HETATM   36  C   UNL     1      41.989 -11.723  -2.550  1.00  0.00     0.029 C 
HETATM   37  C   UNL     1      42.492 -13.150  -2.547  1.00  0.00     0.035 C 
ENDBRANCH  32  33
ENDBRANCH   6  32
TORSDOF 8
ENDMDL
MODEL 4
REMARK VINA RESULT:      -9.0      2.197      7.555
REMARK  8 active torsions:
REMARK  status: ('A' for Active; 'I' for Inactive)
REMARK       I    between atoms: N_2  and  C_3 
REMARK    1  A    between atoms: N_2  and  C_29 
REMARK    2  A    between atoms: C_3  and  C_4 
REMARK    3  A    between atoms: C_7  and  C_8 
REMARK       I    between atoms: C_8  and  N_9 
REMARK    4  A    between atoms: N_9  and  C_10 
REMARK    5  A    between atoms: N_20  and  C_21 
REMARK    6  A    between atoms: C_21  and  C_22 
REMARK    7  A    between atoms: C_29  and  C_30 
REMARK    8  A    between atoms: C_30  and  C_31 
ROOT
HETATM    1  C   UNL     1      44.201 -14.258   6.701  1.00  0.00     0.098 C 
HETATM    2  C   UNL     1      43.239 -14.028   5.598  1.00  0.00     0.206 C 
HETATM    3  O   UNL     1      43.393 -13.121   4.781  1.00  0.00    -0.286 OA
HETATM    4  C   UNL     1      42.046 -14.922   5.521  1.00  0.00     0.098 C 
HETATM    5  C   UNL     1      42.087 -16.050   6.254  1.00  0.00     0.111 C 
HETATM    6  N   UNL     1      43.120 -16.389   7.123  1.00  0.00    -0.362 N 
HETATM    7  C   UNL     1      44.108 -15.434   7.346  1.00  0.00     0.111 C 
ENDROOT
BRANCH   1   8
HETATM    8  C   UNL     1      45.284 -13.344   7.131  1.00  0.00     0.258 C 
HETATM    9  N   UNL     1      45.166 -12.649   8.334  1.00  0.00    -0.352 N 
HETATM   10  C   UNL     1      46.336 -11.899   8.774  1.00  0.00     0.152 C 
HETATM   11  O   UNL     1      46.325 -13.332   6.469  1.00  0.00    -0.267 OA
BRANCH   9  12
HETATM   12  C   UNL     1      43.919 -12.321   9.048  1.00  0.00     0.131 C 
BRANCH  12  13
HETATM   13  C   UNL     1      43.729 -10.859   9.453  1.00  0.00     0.079 C 
BRANCH  13  14
HETATM   14  C   UNL     1      43.182 -10.708  10.845  1.00  0.00     0.035 A 
HETATM   15  N   UNL     1      41.975 -11.272  11.090  1.00  0.00    -0.266 NA
HETATM   16  C   UNL     1      41.490 -11.173  12.347  1.00  0.00     0.117 A 
HETATM   17  C   UNL     1      42.152 -10.530  13.379  1.00  0.00     0.019 A 
HETATM   18  C   UNL     1      43.383  -9.946  13.105  1.00  0.00     0.003 A 
HETATM   19  C   UNL     1      43.907 -10.031  11.821  1.00  0.00     0.027 A 
ENDBRANCH  13  14
ENDBRANCH  12  13
ENDBRANCH   9  12
ENDBRANCH   1   8
BRANCH   4  20
HETATM   20  C   UNL     1      40.811 -14.596   4.756  1.00  0.00     0.257 C 
HETATM   21  N   UNL     1      41.036 -14.191   3.464  1.00  0.00    -0.352 N 
HETATM   22  H   UNL     1      41.969 -14.330   3.075  1.00  0.00     0.163 HD
HETATM   23  O   UNL     1      39.699 -14.623   5.277  1.00  0.00    -0.267 OA
BRANCH  21  24
HETATM   24  C   UNL     1      40.004 -13.667   2.567  1.00  0.00     0.084 C 
HETATM   25  C   UNL     1      40.308 -12.179   2.345  1.00  0.00     0.025 C 
HETATM   26  C   UNL     1      39.325 -11.349   1.523  1.00  0.00     0.002 C 
HETATM   27  C   UNL     1      37.847 -11.592   1.828  1.00  0.00     0.000 C 
HETATM   28  C   UNL     1      37.128 -12.469   0.802  1.00  0.00     0.000 C 
HETATM   29  C   UNL     1      37.526 -13.945   0.761  1.00  0.00     0.000 C 
HETATM   30  C   UNL     1      38.937 -14.206   0.234  1.00  0.00     0.002 C 
HETATM   31  C   UNL     1      39.982 -14.531   1.302  1.00  0.00     0.025 C 
ENDBRANCH  21  24
ENDBRANCH   4  20
BRANCH   6  32
HETATM   32  C   UNL     1      43.189 -17.720   7.770  1.00  0.00     0.159 C 
BRANCH  32  33
HETATM   33  C   UNL     1      44.183 -18.696   7.122  1.00  0.00     0.139 C 
HETATM   34  O   UNL     1      43.667 -20.040   7.057  1.00  0.00    -0.384 OA
HETATM   35  C   UNL     1      44.301 -20.671   5.941  1.00  0.00     0.168 C 
HETATM   36  C   UNL     1      44.430 -19.585   4.902  1.00  0.00     0.029 C 
HETATM   37  C   UNL     1      44.673 -18.336   5.722  1.00  0.00     0.035 C 
ENDBRANCH  32  33
ENDBRANCH   6  32
TORSDOF 8
ENDMDL
MODEL 5
REMARK VINA RESULT:      -9.0      3.177      8.971
REMARK  8 active torsions:
REMARK  status: ('A' for Active; 'I' for Inactive)
REMARK       I    between atoms: N_2  and  C_3 
REMARK    1  A    between atoms: N_2  and  C_29 
REMARK    2  A    between atoms: C_3  and  C_4 
REMARK    3  A    between atoms: C_7  and  C_8 
REMARK       I    between atoms: C_8  and  N_9 
REMARK    4  A    between atoms: N_9  and  C_10 
REMARK    5  A    between atoms: N_20  and  C_21 
REMARK    6  A    between atoms: C_21  and  C_22 
REMARK    7  A    between atoms: C_29  and  C_30 
REMARK    8  A    between atoms: C_30  and  C_31 
ROOT
HETATM    1  C   UNL     1      39.559 -14.454   0.622  1.00  0.00     0.098 C 
HETATM    2  C   UNL     1      40.313 -15.490   1.367  1.00  0.00     0.206 C 
HETATM    3  O   UNL     1      40.014 -15.810   2.517  1.00  0.00    -0.286 OA
HETATM    4  C   UNL     1      41.479 -16.124   0.684  1.00  0.00     0.098 C 
HETATM    5  C   UNL     1      41.572 -15.943  -0.647  1.00  0.00     0.111 C 
HETATM    6  N   UNL     1      40.709 -15.150  -1.397  1.00  0.00    -0.362 N 
HETATM    7  C   UNL     1      39.770 -14.392  -0.704  1.00  0.00     0.111 C 
ENDROOT
BRANCH   1   8
HETATM    8  C   UNL     1      38.563 -13.514   1.185  1.00  0.00     0.258 C 
HETATM    9  N   UNL     1      38.985 -12.300   1.726  1.00  0.00    -0.352 N 
HETATM   10  C   UNL     1      37.942 -11.356   2.109  1.00  0.00     0.152 C 
HETATM   11  O   UNL     1      37.367 -13.781   1.033  1.00  0.00    -0.267 OA
BRANCH   9  12
HETATM   12  C   UNL     1      40.327 -11.982   2.248  1.00  0.00     0.131 C 
BRANCH  12  13
HETATM   13  C   UNL     1      40.486 -11.991   3.768  1.00  0.00     0.079 C 
BRANCH  13  14
HETATM   14  C   UNL     1      41.724 -12.717   4.219  1.00  0.00     0.035 A 
HETATM   15  N   UNL     1      41.920 -12.815   5.556  1.00  0.00    -0.266 NA
HETATM   16  C   UNL     1      43.009 -13.495   5.972  1.00  0.00     0.117 A 
HETATM   17  C   UNL     1      43.923 -14.084   5.115  1.00  0.00     0.019 A 
HETATM   18  C   UNL     1      43.712 -13.963   3.747  1.00  0.00     0.003 A 
HETATM   19  C   UNL     1      42.600 -13.266   3.288  1.00  0.00     0.027 A 
ENDBRANCH  13  14
ENDBRANCH  12  13
ENDBRANCH   9  12
ENDBRANCH   1   8
BRANCH   4  20
HETATM   20  C   UNL     1      42.560 -16.860   1.395  1.00  0.00     0.257 C 
HETATM   21  N   UNL     1      42.119 -17.913   2.158  1.00  0.00    -0.352 N 
HETATM   22  H   UNL     1      41.157 -18.227   2.030  1.00  0.00     0.163 HD
HETATM   23  O   UNL     1      43.731 -16.497   1.349  1.00  0.00    -0.267 OA
BRANCH  21  24
HETATM   24  C   UNL     1      42.964 -18.686   3.071  1.00  0.00     0.084 C 
HETATM   25  C   UNL     1      44.006 -19.419   2.214  1.00  0.00     0.025 C 
HETATM   26  C   UNL     1      44.964 -20.389   2.903  1.00  0.00     0.002 C 
HETATM   27  C   UNL     1      44.327 -21.309   3.944  1.00  0.00     0.000 C 
HETATM   28  C   UNL     1      44.574 -20.887   5.393  1.00  0.00     0.000 C 
HETATM   29  C   UNL     1      43.876 -19.609   5.863  1.00  0.00     0.000 C 
HETATM   30  C   UNL     1      44.409 -18.325   5.228  1.00  0.00     0.002 C 
HETATM   31  C   UNL     1      43.533 -17.730   4.125  1.00  0.00     0.025 C 
ENDBRANCH  21  24
ENDBRANCH   4  20
BRANCH   6  32
HETATM   32  C   UNL     1      40.760 -15.128  -2.878  1.00  0.00     0.159 C 
BRANCH  32  33
HETATM   33  C   UNL     1      41.313 -13.826  -3.480  1.00  0.00     0.139 C 
HETATM   34  O   UNL     1      40.286 -12.835  -3.679  1.00  0.00    -0.384 OA
HETATM   35  C   UNL     1      40.925 -11.558  -3.603  1.00  0.00     0.168 C 
HETATM   36  C   UNL     1      41.987 -11.718  -2.542  1.00  0.00     0.029 C 
HETATM   37  C   UNL     1      42.445 -13.149  -2.711  1.00  0.00     0.035 C 
ENDBRANCH  32  33
ENDBRANCH   6  32
TORSDOF 8
ENDMDL
MODEL 6
REMARK VINA RESULT:      -8.9      3.329      8.236
REMARK  8 active torsions:
REMARK  status: ('A' for Active; 'I' for Inactive)
REMARK       I    between atoms: N_2  and  C_3 
REMARK    1  A    between atoms: N_2  and  C_29 
REMARK    2  A    between atoms: C_3  and  C_4 
REMARK    3  A    between atoms: C_7  and  C_8 
REMARK       I    between atoms: C_8  and  N_9 
REMARK    4  A    between atoms: N_9  and  C_10 
REMARK    5  A    between atoms: N_20  and  C_21 
REMARK    6  A    between atoms: C_21  and  C_22 
REMARK    7  A    between atoms: C_29  and  C_30 
REMARK    8  A    between atoms: C_30  and  C_31 
ROOT
HETATM    1  C   UNL     1      39.791 -14.700   2.423  1.00  0.00     0.098 C 
HETATM    2  C   UNL     1      40.752 -15.817   2.579  1.00  0.00     0.206 C 
HETATM    3  O   UNL     1      41.230 -16.402   1.608  1.00  0.00    -0.286 OA
HETATM    4  C   UNL     1      41.107 -16.237   3.966  1.00  0.00     0.098 C 
HETATM    5  C   UNL     1      40.782 -15.387   4.958  1.00  0.00     0.111 C 
HETATM    6  N   UNL     1      40.078 -14.200   4.779  1.00  0.00    -0.362 N 
HETATM    7  C   UNL     1      39.563 -13.945   3.511  1.00  0.00     0.111 C 
ENDROOT
BRANCH   1   8
HETATM    8  C   UNL     1      39.095 -14.304   1.177  1.00  0.00     0.258 C 
HETATM    9  N   UNL     1      39.828 -13.794   0.107  1.00  0.00    -0.352 N 
HETATM   10  C   UNL     1      39.105 -13.582  -1.141  1.00  0.00     0.152 C 
HETATM   11  O   UNL     1      37.893 -14.568   1.078  1.00  0.00    -0.267 OA
BRANCH   9  12
HETATM   12  C   UNL     1      41.153 -13.150   0.169  1.00  0.00     0.131 C 
BRANCH  12  13
HETATM   13  C   UNL     1      41.985 -13.177  -1.113  1.00  0.00     0.079 C 
BRANCH  13  14
HETATM   14  C   UNL     1      42.430 -11.807  -1.546  1.00  0.00     0.035 A 
HETATM   15  N   UNL     1      43.232 -11.128  -0.691  1.00  0.00    -0.266 NA
HETATM   16  C   UNL     1      43.666  -9.912  -1.084  1.00  0.00     0.117 A 
HETATM   17  C   UNL     1      43.334  -9.332  -2.297  1.00  0.00     0.019 A 
HETATM   18  C   UNL     1      42.501 -10.037  -3.156  1.00  0.00     0.003 A 
HETATM   19  C   UNL     1      42.037 -11.292  -2.777  1.00  0.00     0.027 A 
ENDBRANCH  13  14
ENDBRANCH  12  13
ENDBRANCH   9  12
ENDBRANCH   1   8
BRANCH   4  20
HETATM   20  C   UNL     1      41.715 -17.553   4.307  1.00  0.00     0.257 C 
HETATM   21  N   UNL     1      42.808 -17.884   3.547  1.00  0.00    -0.352 N 
HETATM   22  H   UNL     1      43.230 -17.154   2.971  1.00  0.00     0.163 HD
HETATM   23  O   UNL     1      41.221 -18.297   5.149  1.00  0.00    -0.267 OA
BRANCH  21  24
HETATM   24  C   UNL     1      43.479 -19.185   3.581  1.00  0.00     0.084 C 
HETATM   25  C   UNL     1      43.921 -19.506   2.146  1.00  0.00     0.025 C 
HETATM   26  C   UNL     1      44.563 -20.864   1.868  1.00  0.00     0.002 C 
HETATM   27  C   UNL     1      43.887 -22.058   2.541  1.00  0.00     0.000 C 
HETATM   28  C   UNL     1      44.614 -22.576   3.783  1.00  0.00     0.000 C 
HETATM   29  C   UNL     1      44.597 -21.669   5.016  1.00  0.00     0.000 C 
HETATM   30  C   UNL     1      45.418 -20.389   4.871  1.00  0.00     0.002 C 
HETATM   31  C   UNL     1      44.606 -19.118   4.618  1.00  0.00     0.025 C 
ENDBRANCH  21  24
ENDBRANCH   4  20
BRANCH   6  32
HETATM   32  C   UNL     1      39.900 -13.225   5.881  1.00  0.00     0.159 C 
BRANCH  32  33
HETATM   33  C   UNL     1      39.877 -11.754   5.438  1.00  0.00     0.139 C 
HETATM   34  O   UNL     1      39.064 -10.935   6.302  1.00  0.00    -0.384 OA
HETATM   35  C   UNL     1      39.594  -9.609   6.231  1.00  0.00     0.168 C 
HETATM   36  C   UNL     1      41.088  -9.794   6.121  1.00  0.00     0.029 C 
HETATM   37  C   UNL     1      41.231 -11.062   5.309  1.00  0.00     0.035 C 
ENDBRANCH  32  33
ENDBRANCH   6  32
TORSDOF 8
ENDMDL
MODEL 7
REMARK VINA RESULT:      -8.7      3.467      9.319
REMARK  8 active torsions:
REMARK  status: ('A' for Active; 'I' for Inactive)
REMARK       I    between atoms: N_2  and  C_3 
REMARK    1  A    between atoms: N_2  and  C_29 
REMARK    2  A    between atoms: C_3  and  C_4 
REMARK    3  A    between atoms: C_7  and  C_8 
REMARK       I    between atoms: C_8  and  N_9 
REMARK    4  A    between atoms: N_9  and  C_10 
REMARK    5  A    between atoms: N_20  and  C_21 
REMARK    6  A    between atoms: C_21  and  C_22 
REMARK    7  A    between atoms: C_29  and  C_30 
REMARK    8  A    between atoms: C_30  and  C_31 
ROOT
HETATM    1  C   UNL     1      39.480 -13.538   0.673  1.00  0.00     0.098 C 
HETATM    2  C   UNL     1      40.178 -14.656   1.351  1.00  0.00     0.206 C 
HETATM    3  O   UNL     1      39.716 -15.195   2.356  1.00  0.00    -0.286 OA
HETATM    4  C   UNL     1      41.488 -15.097   0.789  1.00  0.00     0.098 C 
HETATM    5  C   UNL     1      41.789 -14.671  -0.452  1.00  0.00     0.111 C 
HETATM    6  N   UNL     1      41.004 -13.796  -1.197  1.00  0.00    -0.362 N 
HETATM    7  C   UNL     1      39.905 -13.224  -0.563  1.00  0.00     0.111 C 
ENDROOT
BRANCH   1   8
HETATM    8  C   UNL     1      38.333 -12.766   1.202  1.00  0.00     0.258 C 
HETATM    9  N   UNL     1      38.556 -11.553   1.854  1.00  0.00    -0.352 N 
HETATM   10  C   UNL     1      37.377 -10.769   2.199  1.00  0.00     0.152 C 
HETATM   11  O   UNL     1      37.196 -13.158   0.925  1.00  0.00    -0.267 OA
BRANCH   9  12
HETATM   12  C   UNL     1      39.800 -11.120   2.515  1.00  0.00     0.131 C 
BRANCH  12  13
HETATM   13  C   UNL     1      39.826 -11.204   4.041  1.00  0.00     0.079 C 
BRANCH  13  14
HETATM   14  C   UNL     1      40.478 -12.463   4.543  1.00  0.00     0.035 A 
HETATM   15  N   UNL     1      41.791 -12.627   4.251  1.00  0.00    -0.266 NA
HETATM   16  C   UNL     1      42.396 -13.736   4.726  1.00  0.00     0.117 A 
HETATM   17  C   UNL     1      41.750 -14.701   5.481  1.00  0.00     0.019 A 
HETATM   18  C   UNL     1      40.401 -14.522   5.759  1.00  0.00     0.003 A 
HETATM   19  C   UNL     1      39.751 -13.390   5.282  1.00  0.00     0.027 A 
ENDBRANCH  13  14
ENDBRANCH  12  13
ENDBRANCH   9  12
ENDBRANCH   1   8
BRANCH   4  20
HETATM   20  C   UNL     1      42.489 -15.899   1.544  1.00  0.00     0.257 C 
HETATM   21  N   UNL     1      42.158 -17.223   1.691  1.00  0.00    -0.352 N 
HETATM   22  H   UNL     1      41.392 -17.590   1.127  1.00  0.00     0.163 HD
HETATM   23  O   UNL     1      43.483 -15.386   2.050  1.00  0.00    -0.267 OA
BRANCH  21  24
HETATM   24  C   UNL     1      42.896 -18.175   2.525  1.00  0.00     0.084 C 
HETATM   25  C   UNL     1      42.293 -18.105   3.935  1.00  0.00     0.025 C 
HETATM   26  C   UNL     1      42.943 -18.926   5.047  1.00  0.00     0.002 C 
HETATM   27  C   UNL     1      44.470 -18.899   5.074  1.00  0.00     0.000 C 
HETATM   28  C   UNL     1      45.133 -20.153   4.501  1.00  0.00     0.000 C 
HETATM   29  C   UNL     1      45.005 -20.368   2.992  1.00  0.00     0.000 C 
HETATM   30  C   UNL     1      43.592 -20.702   2.517  1.00  0.00     0.002 C 
HETATM   31  C   UNL     1      42.838 -19.550   1.852  1.00  0.00     0.025 C 
ENDBRANCH  21  24
ENDBRANCH   4  20
BRANCH   6  32
HETATM   32  C   UNL     1      41.301 -13.500  -2.618  1.00  0.00     0.159 C 
BRANCH  32  33
HETATM   33  C   UNL     1      40.371 -14.194  -3.626  1.00  0.00     0.139 C 
HETATM   34  O   UNL     1      40.460 -15.630  -3.554  1.00  0.00    -0.384 OA
HETATM   35  C   UNL     1      39.199 -16.144  -3.991  1.00  0.00     0.168 C 
HETATM   36  C   UNL     1      38.178 -15.164  -3.466  1.00  0.00     0.029 C 
HETATM   37  C   UNL     1      38.890 -13.832  -3.544  1.00  0.00     0.035 C 
ENDBRANCH  32  33
ENDBRANCH   6  32
TORSDOF 8
ENDMDL
MODEL 8
REMARK VINA RESULT:      -8.5      2.355      3.295
REMARK  8 active torsions:
REMARK  status: ('A' for Active; 'I' for Inactive)
REMARK       I    between atoms: N_2  and  C_3 
REMARK    1  A    between atoms: N_2  and  C_29 
REMARK    2  A    between atoms: C_3  and  C_4 
REMARK    3  A    between atoms: C_7  and  C_8 
REMARK       I    between atoms: C_8  and  N_9 
REMARK    4  A    between atoms: N_9  and  C_10 
REMARK    5  A    between atoms: N_20  and  C_21 
REMARK    6  A    between atoms: C_21  and  C_22 
REMARK    7  A    between atoms: C_29  and  C_30 
REMARK    8  A    between atoms: C_30  and  C_31 
ROOT
HETATM    1  C   UNL     1      41.612 -15.804   5.055  1.00  0.00     0.098 C 
HETATM    2  C   UNL     1      41.077 -16.088   3.703  1.00  0.00     0.206 C 
HETATM    3  O   UNL     1      40.578 -17.176   3.417  1.00  0.00    -0.286 OA
HETATM    4  C   UNL     1      41.189 -15.013   2.674  1.00  0.00     0.098 C 
HETATM    5  C   UNL     1      41.474 -13.776   3.120  1.00  0.00     0.111 C 
HETATM    6  N   UNL     1      41.744 -13.459   4.448  1.00  0.00    -0.362 N 
HETATM    7  C   UNL     1      41.856 -14.516   5.348  1.00  0.00     0.111 C 
ENDROOT
BRANCH   1   8
HETATM    8  C   UNL     1      41.856 -16.792   6.131  1.00  0.00     0.258 C 
HETATM    9  N   UNL     1      43.085 -17.448   6.202  1.00  0.00    -0.352 N 
HETATM   10  C   UNL     1      43.317 -18.279   7.377  1.00  0.00     0.152 C 
HETATM   11  O   UNL     1      41.005 -16.903   7.018  1.00  0.00    -0.267 OA
BRANCH   9  12
HETATM   12  C   UNL     1      44.041 -17.659   5.099  1.00  0.00     0.131 C 
BRANCH  12  13
HETATM   13  C   UNL     1      44.797 -18.987   5.097  1.00  0.00     0.079 C 
BRANCH  13  14
HETATM   14  C   UNL     1      44.430 -19.863   3.931  1.00  0.00     0.035 A 
HETATM   15  N   UNL     1      44.829 -21.156   3.992  1.00  0.00    -0.266 NA
HETATM   16  C   UNL     1      44.474 -21.960   2.967  1.00  0.00     0.117 A 
HETATM   17  C   UNL     1      43.739 -21.535   1.873  1.00  0.00     0.019 A 
HETATM   18  C   UNL     1      43.350 -20.202   1.822  1.00  0.00     0.003 A 
HETATM   19  C   UNL     1      43.702 -19.350   2.862  1.00  0.00     0.027 A 
ENDBRANCH  13  14
ENDBRANCH  12  13
ENDBRANCH   9  12
ENDBRANCH   1   8
BRANCH   4  20
HETATM   20  C   UNL     1      41.083 -15.250   1.208  1.00  0.00     0.257 C 
HETATM   21  N   UNL     1      40.191 -14.428   0.565  1.00  0.00    -0.352 N 
HETATM   22  H   UNL     1      39.834 -13.619   1.074  1.00  0.00     0.163 HD
HETATM   23  O   UNL     1      41.694 -16.158   0.652  1.00  0.00    -0.267 OA
BRANCH  21  24
HETATM   24  C   UNL     1      39.794 -14.571  -0.837  1.00  0.00     0.084 C 
HETATM   25  C   UNL     1      38.644 -13.583  -1.086  1.00  0.00     0.025 C 
HETATM   26  C   UNL     1      37.961 -13.590  -2.451  1.00  0.00     0.002 C 
HETATM   27  C   UNL     1      37.663 -14.974  -3.028  1.00  0.00     0.000 C 
HETATM   28  C   UNL     1      38.638 -15.426  -4.117  1.00  0.00     0.000 C 
HETATM   29  C   UNL     1      40.066 -15.744  -3.670  1.00  0.00     0.000 C 
HETATM   30  C   UNL     1      40.876 -14.527  -3.224  1.00  0.00     0.002 C 
HETATM   31  C   UNL     1      41.036 -14.369  -1.712  1.00  0.00     0.025 C 
ENDBRANCH  21  24
ENDBRANCH   4  20
BRANCH   6  32
HETATM   32  C   UNL     1      41.882 -12.056   4.903  1.00  0.00     0.159 C 
BRANCH  32  33
HETATM   33  C   UNL     1      41.208 -11.750   6.251  1.00  0.00     0.139 C 
HETATM   34  O   UNL     1      42.163 -11.404   7.273  1.00  0.00    -0.384 OA
HETATM   35  C   UNL     1      41.482 -10.557   8.203  1.00  0.00     0.168 C 
HETATM   36  C   UNL     1      40.554  -9.719   7.357  1.00  0.00     0.029 C 
HETATM   37  C   UNL     1      40.142 -10.657   6.244  1.00  0.00     0.035 C 
ENDBRANCH  32  33
ENDBRANCH   6  32
TORSDOF 8
ENDMDL
MODEL 9
REMARK VINA RESULT:      -8.4      3.689      8.692
REMARK  8 active torsions:
REMARK  status: ('A' for Active; 'I' for Inactive)
REMARK       I    between atoms: N_2  and  C_3 
REMARK    1  A    between atoms: N_2  and  C_29 
REMARK    2  A    between atoms: C_3  and  C_4 
REMARK    3  A    between atoms: C_7  and  C_8 
REMARK       I    between atoms: C_8  and  N_9 
REMARK    4  A    between atoms: N_9  and  C_10 
REMARK    5  A    between atoms: N_20  and  C_21 
REMARK    6  A    between atoms: C_21  and  C_22 
REMARK    7  A    between atoms: C_29  and  C_30 
REMARK    8  A    between atoms: C_30  and  C_31 
ROOT
HETATM    1  C   UNL     1      39.075 -13.095   0.916  1.00  0.00     0.098 C 
HETATM    2  C   UNL     1      39.224 -14.504   1.349  1.00  0.00     0.206 C 
HETATM    3  O   UNL     1      38.268 -15.162   1.757  1.00  0.00    -0.286 OA
HETATM    4  C   UNL     1      40.590 -15.102   1.303  1.00  0.00     0.098 C 
HETATM    5  C   UNL     1      41.518 -14.437   0.590  1.00  0.00     0.111 C 
HETATM    6  N   UNL     1      41.306 -13.209  -0.029  1.00  0.00    -0.362 N 
HETATM    7  C   UNL     1      40.096 -12.568   0.219  1.00  0.00     0.111 C 
ENDROOT
BRANCH   1   8
HETATM    8  C   UNL     1      37.896 -12.226   1.133  1.00  0.00     0.258 C 
HETATM    9  N   UNL     1      38.007 -11.096   1.943  1.00  0.00    -0.352 N 
HETATM   10  C   UNL     1      36.859 -10.200   1.978  1.00  0.00     0.152 C 
HETATM   11  O   UNL     1      36.878 -12.459   0.474  1.00  0.00    -0.267 OA
BRANCH   9  12
HETATM   12  C   UNL     1      39.005 -10.862   3.002  1.00  0.00     0.131 C 
BRANCH  12  13
HETATM   13  C   UNL     1      38.866 -11.706   4.269  1.00  0.00     0.079 C 
BRANCH  13  14
HETATM   14  C   UNL     1      40.037 -12.624   4.487  1.00  0.00     0.035 A 
HETATM   15  N   UNL     1      41.225 -12.230   3.967  1.00  0.00    -0.266 NA
HETATM   16  C   UNL     1      42.291 -13.029   4.188  1.00  0.00     0.117 A 
HETATM   17  C   UNL     1      42.231 -14.213   4.903  1.00  0.00     0.019 A 
HETATM   18  C   UNL     1      41.002 -14.607   5.417  1.00  0.00     0.003 A 
HETATM   19  C   UNL     1      39.886 -13.806   5.206  1.00  0.00     0.027 A 
ENDBRANCH  13  14
ENDBRANCH  12  13
ENDBRANCH   9  12
ENDBRANCH   1   8
BRANCH   4  20
HETATM   20  C   UNL     1      40.988 -16.325   2.053  1.00  0.00     0.257 C 
HETATM   21  N   UNL     1      42.342 -16.463   2.233  1.00  0.00    -0.352 N 
HETATM   22  H   UNL     1      42.936 -15.658   2.030  1.00  0.00     0.163 HD
HETATM   23  O   UNL     1      40.166 -17.165   2.408  1.00  0.00    -0.267 OA
BRANCH  21  24
HETATM   24  C   UNL     1      42.987 -17.651   2.796  1.00  0.00     0.084 C 
HETATM   25  C   UNL     1      42.484 -17.800   4.239  1.00  0.00     0.025 C 
HETATM   26  C   UNL     1      43.076 -18.909   5.106  1.00  0.00     0.002 C 
HETATM   27  C   UNL     1      44.592 -19.079   5.007  1.00  0.00     0.000 C 
HETATM   28  C   UNL     1      45.039 -20.259   4.143  1.00  0.00     0.000 C 
HETATM   29  C   UNL     1      44.794 -20.138   2.638  1.00  0.00     0.000 C 
HETATM   30  C   UNL     1      43.322 -20.188   2.229  1.00  0.00     0.002 C 
HETATM   31  C   UNL     1      42.698 -18.838   1.872  1.00  0.00     0.025 C 
ENDBRANCH  21  24
ENDBRANCH   4  20
BRANCH   6  32
HETATM   32  C   UNL     1      42.311 -12.612  -0.940  1.00  0.00     0.159 C 
BRANCH  32  33
HETATM   33  C   UNL     1      42.404 -11.079  -0.874  1.00  0.00     0.139 C 
HETATM   34  O   UNL     1      43.750 -10.622  -0.637  1.00  0.00    -0.384 OA
HETATM   35  C   UNL     1      43.849  -9.318  -1.215  1.00  0.00     0.168 C 
HETATM   36  C   UNL     1      43.006  -9.381  -2.465  1.00  0.00     0.029 C 
HETATM   37  C   UNL     1      41.877 -10.314  -2.085  1.00  0.00     0.035 C 
ENDBRANCH  32  33
ENDBRANCH   6  32
TORSDOF 8
ENDMDL
MODEL 10
REMARK VINA RESULT:      -8.4      3.755      8.701
REMARK  8 active torsions:
REMARK  status: ('A' for Active; 'I' for Inactive)
REMARK       I    between atoms: N_2  and  C_3 
REMARK    1  A    between atoms: N_2  and  C_29 
REMARK    2  A    between atoms: C_3  and  C_4 
REMARK    3  A    between atoms: C_7  and  C_8 
REMARK       I    between atoms: C_8  and  N_9 
REMARK    4  A    between atoms: N_9  and  C_10 
REMARK    5  A    between atoms: N_20  and  C_21 
REMARK    6  A    between atoms: C_21  and  C_22 
REMARK    7  A    between atoms: C_29  and  C_30 
REMARK    8  A    between atoms: C_30  and  C_31 
ROOT
HETATM    1  C   UNL     1      40.127 -13.742  -0.193  1.00  0.00     0.098 C 
HETATM    2  C   UNL     1      41.234 -14.658   0.171  1.00  0.00     0.206 C 
HETATM    3  O   UNL     1      41.512 -15.643  -0.511  1.00  0.00    -0.286 OA
HETATM    4  C   UNL     1      41.995 -14.362   1.420  1.00  0.00     0.098 C 
HETATM    5  C   UNL     1      41.834 -13.136   1.951  1.00  0.00     0.111 C 
HETATM    6  N   UNL     1      40.957 -12.173   1.461  1.00  0.00    -0.362 N 
HETATM    7  C   UNL     1      40.097 -12.554   0.434  1.00  0.00     0.111 C 
ENDROOT
BRANCH   1   8
HETATM    8  C   UNL     1      39.081 -13.986  -1.212  1.00  0.00     0.258 C 
HETATM    9  N   UNL     1      39.449 -14.264  -2.528  1.00  0.00    -0.352 N 
HETATM   10  C   UNL     1      38.379 -14.656  -3.438  1.00  0.00     0.152 C 
HETATM   11  O   UNL     1      37.911 -14.070  -0.830  1.00  0.00    -0.267 OA
BRANCH   9  12
HETATM   12  C   UNL     1      40.718 -13.906  -3.187  1.00  0.00     0.131 C 
BRANCH  12  13
HETATM   13  C   UNL     1      40.820 -12.487  -3.745  1.00  0.00     0.079 C 
BRANCH  13  14
HETATM   14  C   UNL     1      41.512 -11.541  -2.803  1.00  0.00     0.035 A 
HETATM   15  N   UNL     1      40.930 -10.331  -2.619  1.00  0.00    -0.266 NA
HETATM   16  C   UNL     1      41.523  -9.486  -1.748  1.00  0.00     0.117 A 
HETATM   17  C   UNL     1      42.680  -9.788  -1.050  1.00  0.00     0.019 A 
HETATM   18  C   UNL     1      43.269 -11.028  -1.261  1.00  0.00     0.003 A 
HETATM   19  C   UNL     1      42.683 -11.919  -2.153  1.00  0.00     0.027 A 
ENDBRANCH  13  14
ENDBRANCH  12  13
ENDBRANCH   9  12
ENDBRANCH   1   8
BRANCH   4  20
HETATM   20  C   UNL     1      42.841 -15.359   2.134  1.00  0.00     0.257 C 
HETATM   21  N   UNL     1      42.475 -16.665   1.924  1.00  0.00    -0.352 N 
HETATM   22  H   UNL     1      41.814 -16.861   1.172  1.00  0.00     0.163 HD
HETATM   23  O   UNL     1      43.738 -15.018   2.900  1.00  0.00    -0.267 OA
BRANCH  21  24
HETATM   24  C   UNL     1      43.045 -17.810   2.635  1.00  0.00     0.084 C 
HETATM   25  C   UNL     1      42.389 -17.856   4.023  1.00  0.00     0.025 C 
HETATM   26  C   UNL     1      42.875 -18.901   5.025  1.00  0.00     0.002 C 
HETATM   27  C   UNL     1      44.391 -19.080   5.101  1.00  0.00     0.000 C 
HETATM   28  C   UNL     1      44.917 -20.319   4.376  1.00  0.00     0.000 C 
HETATM   29  C   UNL     1      44.836 -20.306   2.848  1.00  0.00     0.000 C 
HETATM   30  C   UNL     1      43.416 -20.382   2.288  1.00  0.00     0.002 C 
HETATM   31  C   UNL     1      42.846 -19.060   1.771  1.00  0.00     0.025 C 
ENDBRANCH  21  24
ENDBRANCH   4  20
BRANCH   6  32
HETATM   32  C   UNL     1      40.950 -10.787   1.984  1.00  0.00     0.159 C 
BRANCH  32  33
HETATM   33  C   UNL     1      40.283 -10.625   3.359  1.00  0.00     0.139 C 
HETATM   34  O   UNL     1      39.198 -11.554   3.555  1.00  0.00    -0.384 OA
HETATM   35  C   UNL     1      39.096 -11.776   4.963  1.00  0.00     0.168 C 
HETATM   36  C   UNL     1      40.520 -11.762   5.464  1.00  0.00     0.029 C 
HETATM   37  C   UNL     1      41.198 -10.743   4.575  1.00  0.00     0.035 C 
ENDBRANCH  32  33
ENDBRANCH   6  32
TORSDOF 8
ENDMDL
