MODEL 1
REMARK VINA RESULT:      -8.7      0.000      0.000
REMARK  9 active torsions:
REMARK  status: ('A' for Active; 'I' for Inactive)
REMARK    1  A    between atoms: C_2  and  N_3 
REMARK    2  A    between atoms: C_2  and  C_23 
REMARK       I    between atoms: N_3  and  C_4 
REMARK       I    between atoms: C_4  and  N_5 
REMARK    3  A    between atoms: N_5  and  C_6 
REMARK    4  A    between atoms: C_6  and  C_7 
REMARK    5  A    between atoms: C_7  and  N_8 
REMARK    6  A    between atoms: C_7  and  C_14 
REMARK    7  A    between atoms: C_16  and  O_17 
REMARK    8  A    between atoms: C_23  and  C_24 
REMARK    9  A    between atoms: C_27  and  O_28 
ROOT
HETATM    1  N   UNL     1      40.920 -13.500   1.159  1.00  0.00    -0.339 N 
HETATM    2  C   UNL     1      42.012 -14.048   1.728  1.00  0.00     0.316 C 
HETATM    3  N   UNL     1      42.140 -15.400   1.665  1.00  0.00    -0.341 N 
HETATM    4  O   UNL     1      42.865 -13.337   2.247  1.00  0.00    -0.248 OA
HETATM    5  H   UNL     1      40.886 -12.496   1.301  1.00  0.00     0.164 HD
HETATM    6  H   UNL     1      41.309 -15.918   1.416  1.00  0.00     0.164 HD
ENDROOT
BRANCH   3   7
HETATM    7  C   UNL     1      43.112 -16.095   2.509  1.00  0.00     0.162 C 
BRANCH   7   8
HETATM    8  C   UNL     1      42.501 -17.154   3.474  1.00  0.00     0.238 C 
BRANCH   8   9
HETATM    9  N   UNL     1      42.565 -16.691   4.932  1.00  0.00    -0.061 N 
HETATM   10  H   UNL     1      43.074 -17.434   5.431  1.00  0.00     0.280 HD
HETATM   11  C   UNL     1      41.221 -16.461   5.593  1.00  0.00     0.236 C 
HETATM   12  C   UNL     1      41.021 -14.965   5.492  1.00  0.00     0.029 C 
HETATM   13  C   UNL     1      42.397 -14.432   5.820  1.00  0.00     0.029 C 
HETATM   14  C   UNL     1      43.355 -15.399   5.139  1.00  0.00     0.236 C 
ENDBRANCH   8   9
BRANCH   8  15
HETATM   15  C   UNL     1      43.166 -18.502   3.224  1.00  0.00    -0.023 A 
HETATM   16  C   UNL     1      43.957 -19.078   4.242  1.00  0.00     0.046 A 
HETATM   17  C   UNL     1      44.577 -20.315   4.051  1.00  0.00     0.068 A 
HETATM   18  C   UNL     1      44.410 -20.982   2.838  1.00  0.00     0.037 A 
HETATM   19  C   UNL     1      43.628 -20.430   1.823  1.00  0.00     0.003 A 
HETATM   20  C   UNL     1      43.006 -19.198   2.014  1.00  0.00     0.009 A 
BRANCH  17  21
HETATM   21  O   UNL     1      45.364 -20.969   4.954  1.00  0.00    -0.356 OA
HETATM   22  C   UNL     1      45.102 -22.348   5.185  1.00  0.00     0.210 C 
ENDBRANCH  17  21
ENDBRANCH   8  15
ENDBRANCH   7   8
ENDBRANCH   3   7
BRANCH   1  23
HETATM   23  C   UNL     1      39.738 -14.115   0.545  1.00  0.00     0.086 C 
HETATM   24  C   UNL     1      38.562 -14.096   1.527  1.00  0.00     0.032 C 
BRANCH  23  25
HETATM   25  C   UNL     1      39.324 -13.376  -0.748  1.00  0.00     0.063 C 
BRANCH  25  26
HETATM   26  C   UNL     1      39.186 -14.276  -1.953  1.00  0.00    -0.056 A 
HETATM   27  C   UNL     1      37.986 -14.310  -2.681  1.00  0.00     0.010 A 
HETATM   28  C   UNL     1      37.868 -15.115  -3.818  1.00  0.00     0.037 A 
HETATM   29  C   UNL     1      38.948 -15.893  -4.220  1.00  0.00     0.065 A 
HETATM   30  C   UNL     1      40.138 -15.881  -3.507  1.00  0.00     0.037 A 
HETATM   31  C   UNL     1      40.261 -15.070  -2.377  1.00  0.00     0.010 A 
BRANCH  29  32
HETATM   32  O   UNL     1      38.881 -16.684  -5.328  1.00  0.00    -0.361 OA
HETATM   33  H   UNL     1      39.520 -17.411  -5.233  1.00  0.00     0.217 HD
ENDBRANCH  29  32
ENDBRANCH  25  26
ENDBRANCH  23  25
ENDBRANCH   1  23
TORSDOF 9
ENDMDL
MODEL 2
REMARK VINA RESULT:      -8.6      3.383      8.020
REMARK  9 active torsions:
REMARK  status: ('A' for Active; 'I' for Inactive)
REMARK    1  A    between atoms: C_2  and  N_3 
REMARK    2  A    between atoms: C_2  and  C_23 
REMARK       I    between atoms: N_3  and  C_4 
REMARK       I    between atoms: C_4  and  N_5 
REMARK    3  A    between atoms: N_5  and  C_6 
REMARK    4  A    between atoms: C_6  and  C_7 
REMARK    5  A    between atoms: C_7  and  N_8 
REMARK    6  A    between atoms: C_7  and  C_14 
REMARK    7  A    between atoms: C_16  and  O_17 
REMARK    8  A    between atoms: C_23  and  C_24 
REMARK    9  A    between atoms: C_27  and  O_28 
ROOT
HETATM    1  N   UNL     1      44.317 -19.356   2.104  1.00  0.00    -0.339 N 
HETATM    2  C   UNL     1      43.588 -18.228   1.985  1.00  0.00     0.316 C 
HETATM    3  N   UNL     1      42.467 -18.123   2.746  1.00  0.00    -0.341 N 
HETATM    4  O   UNL     1      43.957 -17.326   1.241  1.00  0.00    -0.248 OA
HETATM    5  H   UNL     1      45.103 -19.365   1.462  1.00  0.00     0.164 HD
HETATM    6  H   UNL     1      42.125 -18.979   3.162  1.00  0.00     0.164 HD
ENDROOT
BRANCH   3   7
HETATM    7  C   UNL     1      41.468 -17.094   2.459  1.00  0.00     0.162 C 
BRANCH   7   8
HETATM    8  C   UNL     1      41.003 -16.270   3.697  1.00  0.00     0.238 C 
BRANCH   8   9
HETATM    9  N   UNL     1      39.734 -15.468   3.396  1.00  0.00    -0.061 N 
HETATM   10  H   UNL     1      38.971 -15.982   3.858  1.00  0.00     0.280 HD
HETATM   11  C   UNL     1      39.414 -15.298   1.924  1.00  0.00     0.236 C 
HETATM   12  C   UNL     1      39.944 -13.919   1.598  1.00  0.00     0.029 C 
HETATM   13  C   UNL     1      39.523 -13.117   2.807  1.00  0.00     0.029 C 
HETATM   14  C   UNL     1      39.736 -14.058   3.985  1.00  0.00     0.236 C 
ENDBRANCH   8   9
BRANCH   8  15
HETATM   15  C   UNL     1      42.165 -15.420   4.198  1.00  0.00    -0.023 A 
HETATM   16  C   UNL     1      42.505 -15.458   5.567  1.00  0.00     0.046 A 
HETATM   17  C   UNL     1      43.567 -14.698   6.061  1.00  0.00     0.068 A 
HETATM   18  C   UNL     1      44.295 -13.894   5.185  1.00  0.00     0.037 A 
HETATM   19  C   UNL     1      43.977 -13.847   3.829  1.00  0.00     0.003 A 
HETATM   20  C   UNL     1      42.919 -14.608   3.335  1.00  0.00     0.009 A 
BRANCH  17  21
HETATM   21  O   UNL     1      43.988 -14.650   7.359  1.00  0.00    -0.356 OA
HETATM   22  C   UNL     1      44.745 -13.518   7.769  1.00  0.00     0.210 C 
ENDBRANCH  17  21
ENDBRANCH   8  15
ENDBRANCH   7   8
ENDBRANCH   3   7
BRANCH   1  23
HETATM   23  C   UNL     1      44.070 -20.592   2.854  1.00  0.00     0.086 C 
HETATM   24  C   UNL     1      44.150 -21.803   1.918  1.00  0.00     0.032 C 
BRANCH  23  25
HETATM   25  C   UNL     1      45.092 -20.773   3.998  1.00  0.00     0.063 C 
BRANCH  25  26
HETATM   26  C   UNL     1      44.716 -20.061   5.277  1.00  0.00    -0.056 A 
HETATM   27  C   UNL     1      43.983 -20.728   6.271  1.00  0.00     0.010 A 
HETATM   28  C   UNL     1      43.665 -20.084   7.471  1.00  0.00     0.037 A 
HETATM   29  C   UNL     1      44.073 -18.770   7.670  1.00  0.00     0.065 A 
HETATM   30  C   UNL     1      44.788 -18.091   6.694  1.00  0.00     0.037 A 
HETATM   31  C   UNL     1      45.116 -18.736   5.500  1.00  0.00     0.010 A 
BRANCH  29  32
HETATM   32  O   UNL     1      43.794 -18.107   8.827  1.00  0.00    -0.361 OA
HETATM   33  H   UNL     1      42.889 -18.327   9.105  1.00  0.00     0.217 HD
ENDBRANCH  29  32
ENDBRANCH  25  26
ENDBRANCH  23  25
ENDBRANCH   1  23
TORSDOF 9
ENDMDL
MODEL 3
REMARK VINA RESULT:      -8.5      2.821      8.065
REMARK  9 active torsions:
REMARK  status: ('A' for Active; 'I' for Inactive)
REMARK    1  A    between atoms: C_2  and  N_3 
REMARK    2  A    between atoms: C_2  and  C_23 
REMARK       I    between atoms: N_3  and  C_4 
REMARK       I    between atoms: C_4  and  N_5 
REMARK    3  A    between atoms: N_5  and  C_6 
REMARK    4  A    between atoms: C_6  and  C_7 
REMARK    5  A    between atoms: C_7  and  N_8 
REMARK    6  A    between atoms: C_7  and  C_14 
REMARK    7  A    between atoms: C_16  and  O_17 
REMARK    8  A    between atoms: C_23  and  C_24 
REMARK    9  A    between atoms: C_27  and  O_28 
ROOT
HETATM    1  N   UNL     1      44.419 -19.070   2.267  1.00  0.00    -0.339 N 
HETATM    2  C   UNL     1      43.742 -17.985   1.838  1.00  0.00     0.316 C 
HETATM    3  N   UNL     1      42.413 -17.926   2.116  1.00  0.00    -0.341 N 
HETATM    4  O   UNL     1      44.326 -17.080   1.254  1.00  0.00    -0.248 OA
HETATM    5  H   UNL     1      45.389 -19.048   1.969  1.00  0.00     0.164 HD
HETATM    6  H   UNL     1      41.977 -18.791   2.405  1.00  0.00     0.164 HD
ENDROOT
BRANCH   3   7
HETATM    7  C   UNL     1      41.553 -16.960   1.433  1.00  0.00     0.162 C 
BRANCH   7   8
HETATM    8  C   UNL     1      40.677 -16.083   2.377  1.00  0.00     0.238 C 
BRANCH   8   9
HETATM    9  N   UNL     1      40.425 -14.694   1.783  1.00  0.00    -0.061 N 
HETATM   10  H   UNL     1      41.234 -14.125   2.070  1.00  0.00     0.280 HD
HETATM   11  C   UNL     1      39.144 -14.024   2.235  1.00  0.00     0.236 C 
HETATM   12  C   UNL     1      38.175 -14.300   1.107  1.00  0.00     0.029 C 
HETATM   13  C   UNL     1      39.035 -14.082  -0.117  1.00  0.00     0.029 C 
HETATM   14  C   UNL     1      40.389 -14.670   0.255  1.00  0.00     0.236 C 
ENDBRANCH   8   9
BRANCH   8  15
HETATM   15  C   UNL     1      41.308 -16.056   3.765  1.00  0.00    -0.023 A 
HETATM   16  C   UNL     1      42.239 -15.043   4.078  1.00  0.00     0.046 A 
HETATM   17  C   UNL     1      42.832 -14.983   5.340  1.00  0.00     0.068 A 
HETATM   18  C   UNL     1      42.497 -15.940   6.298  1.00  0.00     0.037 A 
HETATM   19  C   UNL     1      41.575 -16.945   6.008  1.00  0.00     0.003 A 
HETATM   20  C   UNL     1      40.980 -17.003   4.749  1.00  0.00     0.009 A 
BRANCH  17  21
HETATM   21  O   UNL     1      43.744 -14.057   5.759  1.00  0.00    -0.356 OA
HETATM   22  C   UNL     1      44.656 -14.439   6.781  1.00  0.00     0.210 C 
ENDBRANCH  17  21
ENDBRANCH   8  15
ENDBRANCH   7   8
ENDBRANCH   3   7
BRANCH   1  23
HETATM   23  C   UNL     1      43.960 -20.302   2.915  1.00  0.00     0.086 C 
HETATM   24  C   UNL     1      43.864 -21.435   1.889  1.00  0.00     0.032 C 
BRANCH  23  25
HETATM   25  C   UNL     1      44.916 -20.733   4.050  1.00  0.00     0.063 C 
BRANCH  25  26
HETATM   26  C   UNL     1      44.631 -20.073   5.379  1.00  0.00    -0.056 A 
HETATM   27  C   UNL     1      43.868 -20.736   6.352  1.00  0.00     0.010 A 
HETATM   28  C   UNL     1      43.634 -20.142   7.596  1.00  0.00     0.037 A 
HETATM   29  C   UNL     1      44.154 -18.881   7.861  1.00  0.00     0.065 A 
HETATM   30  C   UNL     1      44.901 -18.204   6.906  1.00  0.00     0.037 A 
HETATM   31  C   UNL     1      45.145 -18.801   5.668  1.00  0.00     0.010 A 
BRANCH  29  32
HETATM   32  O   UNL     1      43.959 -18.268   9.062  1.00  0.00    -0.361 OA
HETATM   33  H   UNL     1      43.004 -18.147   9.202  1.00  0.00     0.217 HD
ENDBRANCH  29  32
ENDBRANCH  25  26
ENDBRANCH  23  25
ENDBRANCH   1  23
TORSDOF 9
ENDMDL
MODEL 4
REMARK VINA RESULT:      -8.1      2.921      8.428
REMARK  9 active torsions:
REMARK  status: ('A' for Active; 'I' for Inactive)
REMARK    1  A    between atoms: C_2  and  N_3 
REMARK    2  A    between atoms: C_2  and  C_23 
REMARK       I    between atoms: N_3  and  C_4 
REMARK       I    between atoms: C_4  and  N_5 
REMARK    3  A    between atoms: N_5  and  C_6 
REMARK    4  A    between atoms: C_6  and  C_7 
REMARK    5  A    between atoms: C_7  and  N_8 
REMARK    6  A    between atoms: C_7  and  C_14 
REMARK    7  A    between atoms: C_16  and  O_17 
REMARK    8  A    between atoms: C_23  and  C_24 
REMARK    9  A    between atoms: C_27  and  O_28 
ROOT
HETATM    1  N   UNL     1      44.421 -19.439   2.051  1.00  0.00    -0.339 N 
HETATM    2  C   UNL     1      43.640 -18.371   1.790  1.00  0.00     0.316 C 
HETATM    3  N   UNL     1      42.467 -18.272   2.468  1.00  0.00    -0.341 N 
HETATM    4  O   UNL     1      44.008 -17.514   0.995  1.00  0.00    -0.248 OA
HETATM    5  H   UNL     1      45.247 -19.453   1.463  1.00  0.00     0.164 HD
HETATM    6  H   UNL     1      42.146 -19.110   2.934  1.00  0.00     0.164 HD
ENDROOT
BRANCH   3   7
HETATM    7  C   UNL     1      41.433 -17.334   2.031  1.00  0.00     0.162 C 
BRANCH   7   8
HETATM    8  C   UNL     1      41.427 -15.970   2.785  1.00  0.00     0.238 C 
BRANCH   8   9
HETATM    9  N   UNL     1      40.508 -16.008   4.009  1.00  0.00    -0.061 N 
HETATM   10  H   UNL     1      39.589 -16.304   3.651  1.00  0.00     0.280 HD
HETATM   11  C   UNL     1      40.367 -14.693   4.749  1.00  0.00     0.236 C 
HETATM   12  C   UNL     1      41.334 -14.824   5.905  1.00  0.00     0.029 C 
HETATM   13  C   UNL     1      41.107 -16.249   6.354  1.00  0.00     0.029 C 
HETATM   14  C   UNL     1      40.921 -17.034   5.064  1.00  0.00     0.236 C 
ENDBRANCH   8   9
BRANCH   8  15
HETATM   15  C   UNL     1      41.097 -14.854   1.800  1.00  0.00    -0.023 A 
HETATM   16  C   UNL     1      42.048 -13.838   1.568  1.00  0.00     0.046 A 
HETATM   17  C   UNL     1      41.783 -12.804   0.669  1.00  0.00     0.068 A 
HETATM   18  C   UNL     1      40.562 -12.781  -0.004  1.00  0.00     0.037 A 
HETATM   19  C   UNL     1      39.612 -13.779   0.209  1.00  0.00     0.003 A 
HETATM   20  C   UNL     1      39.878 -14.813   1.103  1.00  0.00     0.009 A 
BRANCH  17  21
HETATM   21  O   UNL     1      42.619 -11.768   0.363  1.00  0.00    -0.356 OA
HETATM   22  C   UNL     1      42.744 -11.398  -1.005  1.00  0.00     0.210 C 
ENDBRANCH  17  21
ENDBRANCH   8  15
ENDBRANCH   7   8
ENDBRANCH   3   7
BRANCH   1  23
HETATM   23  C   UNL     1      44.193 -20.622   2.888  1.00  0.00     0.086 C 
HETATM   24  C   UNL     1      44.366 -21.898   2.059  1.00  0.00     0.032 C 
BRANCH  23  25
HETATM   25  C   UNL     1      45.170 -20.664   4.085  1.00  0.00     0.063 C 
BRANCH  25  26
HETATM   26  C   UNL     1      44.687 -19.907   5.300  1.00  0.00    -0.056 A 
HETATM   27  C   UNL     1      44.023 -20.579   6.338  1.00  0.00     0.010 A 
HETATM   28  C   UNL     1      43.609 -19.888   7.480  1.00  0.00     0.037 A 
HETATM   29  C   UNL     1      43.849 -18.522   7.578  1.00  0.00     0.065 A 
HETATM   30  C   UNL     1      44.493 -17.838   6.556  1.00  0.00     0.037 A 
HETATM   31  C   UNL     1      44.917 -18.529   5.420  1.00  0.00     0.010 A 
BRANCH  29  32
HETATM   32  O   UNL     1      43.471 -17.810   8.676  1.00  0.00    -0.361 OA
HETATM   33  H   UNL     1      44.169 -17.167   8.889  1.00  0.00     0.217 HD
ENDBRANCH  29  32
ENDBRANCH  25  26
ENDBRANCH  23  25
ENDBRANCH   1  23
TORSDOF 9
ENDMDL
MODEL 5
REMARK VINA RESULT:      -8.0      5.579     10.279
REMARK  9 active torsions:
REMARK  status: ('A' for Active; 'I' for Inactive)
REMARK    1  A    between atoms: C_2  and  N_3 
REMARK    2  A    between atoms: C_2  and  C_23 
REMARK       I    between atoms: N_3  and  C_4 
REMARK       I    between atoms: C_4  and  N_5 
REMARK    3  A    between atoms: N_5  and  C_6 
REMARK    4  A    between atoms: C_6  and  C_7 
REMARK    5  A    between atoms: C_7  and  N_8 
REMARK    6  A    between atoms: C_7  and  C_14 
REMARK    7  A    between atoms: C_16  and  O_17 
REMARK    8  A    between atoms: C_23  and  C_24 
REMARK    9  A    between atoms: C_27  and  O_28 
ROOT
HETATM    1  N   UNL     1      45.086 -12.103   9.224  1.00  0.00    -0.339 N 
HETATM    2  C   UNL     1      45.232 -12.917   8.159  1.00  0.00     0.316 C 
HETATM    3  N   UNL     1      44.209 -13.767   7.875  1.00  0.00    -0.341 N 
HETATM    4  O   UNL     1      46.238 -12.854   7.462  1.00  0.00    -0.248 OA
HETATM    5  H   UNL     1      45.918 -11.545   9.386  1.00  0.00     0.164 HD
HETATM    6  H   UNL     1      43.525 -13.905   8.607  1.00  0.00     0.164 HD
ENDROOT
BRANCH   3   7
HETATM    7  C   UNL     1      44.405 -14.881   6.948  1.00  0.00     0.162 C 
BRANCH   7   8
HETATM    8  C   UNL     1      43.371 -14.952   5.784  1.00  0.00     0.238 C 
BRANCH   8   9
HETATM    9  N   UNL     1      41.963 -14.582   6.257  1.00  0.00    -0.061 N 
HETATM   10  H   UNL     1      42.017 -14.564   7.285  1.00  0.00     0.280 HD
HETATM   11  C   UNL     1      40.867 -15.533   5.821  1.00  0.00     0.236 C 
HETATM   12  C   UNL     1      40.261 -14.856   4.612  1.00  0.00     0.029 C 
HETATM   13  C   UNL     1      40.210 -13.409   5.046  1.00  0.00     0.029 C 
HETATM   14  C   UNL     1      41.504 -13.192   5.816  1.00  0.00     0.236 C 
ENDBRANCH   8   9
BRANCH   8  15
HETATM   15  C   UNL     1      43.460 -16.320   5.118  1.00  0.00    -0.023 A 
HETATM   16  C   UNL     1      43.676 -17.462   5.919  1.00  0.00     0.046 A 
HETATM   17  C   UNL     1      43.756 -18.732   5.345  1.00  0.00     0.068 A 
HETATM   18  C   UNL     1      43.622 -18.866   3.963  1.00  0.00     0.037 A 
HETATM   19  C   UNL     1      43.403 -17.750   3.157  1.00  0.00     0.003 A 
HETATM   20  C   UNL     1      43.319 -16.483   3.730  1.00  0.00     0.009 A 
BRANCH  17  21
HETATM   21  O   UNL     1      43.963 -19.906   6.011  1.00  0.00    -0.356 OA
HETATM   22  C   UNL     1      44.637 -20.951   5.320  1.00  0.00     0.210 C 
ENDBRANCH  17  21
ENDBRANCH   8  15
ENDBRANCH   7   8
ENDBRANCH   3   7
BRANCH   1  23
HETATM   23  C   UNL     1      44.035 -12.024  10.244  1.00  0.00     0.086 C 
HETATM   24  C   UNL     1      44.484 -12.737  11.523  1.00  0.00     0.032 C 
BRANCH  23  25
HETATM   25  C   UNL     1      43.687 -10.557  10.583  1.00  0.00     0.063 C 
BRANCH  25  26
HETATM   26  C   UNL     1      43.043 -10.375  11.938  1.00  0.00    -0.056 A 
HETATM   27  C   UNL     1      41.807 -10.975  12.224  1.00  0.00     0.010 A 
HETATM   28  C   UNL     1      41.227 -10.839  13.488  1.00  0.00     0.037 A 
HETATM   29  C   UNL     1      41.879 -10.092  14.463  1.00  0.00     0.065 A 
HETATM   30  C   UNL     1      43.096  -9.480  14.195  1.00  0.00     0.037 A 
HETATM   31  C   UNL     1      43.682  -9.625  12.936  1.00  0.00     0.010 A 
BRANCH  29  32
HETATM   32  O   UNL     1      41.356  -9.940  15.711  1.00  0.00    -0.361 OA
HETATM   33  H   UNL     1      40.412  -9.718  15.631  1.00  0.00     0.217 HD
ENDBRANCH  29  32
ENDBRANCH  25  26
ENDBRANCH  23  25
ENDBRANCH   1  23
TORSDOF 9
ENDMDL
MODEL 6
REMARK VINA RESULT:      -8.0      2.872      7.951
REMARK  9 active torsions:
REMARK  status: ('A' for Active; 'I' for Inactive)
REMARK    1  A    between atoms: C_2  and  N_3 
REMARK    2  A    between atoms: C_2  and  C_23 
REMARK       I    between atoms: N_3  and  C_4 
REMARK       I    between atoms: C_4  and  N_5 
REMARK    3  A    between atoms: N_5  and  C_6 
REMARK    4  A    between atoms: C_6  and  C_7 
REMARK    5  A    between atoms: C_7  and  N_8 
REMARK    6  A    between atoms: C_7  and  C_14 
REMARK    7  A    between atoms: C_16  and  O_17 
REMARK    8  A    between atoms: C_23  and  C_24 
REMARK    9  A    between atoms: C_27  and  O_28 
ROOT
HETATM    1  N   UNL     1      44.439 -19.011   2.218  1.00  0.00    -0.339 N 
HETATM    2  C   UNL     1      43.893 -17.941   1.605  1.00  0.00     0.316 C 
HETATM    3  N   UNL     1      42.541 -17.814   1.655  1.00  0.00    -0.341 N 
HETATM    4  O   UNL     1      44.606 -17.106   1.061  1.00  0.00    -0.248 OA
HETATM    5  H   UNL     1      45.444 -19.048   2.084  1.00  0.00     0.164 HD
HETATM    6  H   UNL     1      42.022 -18.637   1.930  1.00  0.00     0.164 HD
ENDROOT
BRANCH   3   7
HETATM    7  C   UNL     1      41.850 -16.875   0.772  1.00  0.00     0.162 C 
BRANCH   7   8
HETATM    8  C   UNL     1      40.793 -15.971   1.475  1.00  0.00     0.238 C 
BRANCH   8   9
HETATM    9  N   UNL     1      40.003 -15.136   0.464  1.00  0.00    -0.061 N 
HETATM   10  H   UNL     1      39.126 -15.652   0.311  1.00  0.00     0.280 HD
HETATM   11  C   UNL     1      40.697 -14.908  -0.864  1.00  0.00     0.236 C 
HETATM   12  C   UNL     1      41.301 -13.529  -0.722  1.00  0.00     0.029 C 
HETATM   13  C   UNL     1      40.198 -12.762  -0.031  1.00  0.00     0.029 C 
HETATM   14  C   UNL     1      39.616 -13.748   0.972  1.00  0.00     0.236 C 
ENDBRANCH   8   9
BRANCH   8  15
HETATM   15  C   UNL     1      41.481 -15.144   2.555  1.00  0.00    -0.023 A 
HETATM   16  C   UNL     1      40.830 -14.952   3.793  1.00  0.00     0.046 A 
HETATM   17  C   UNL     1      41.432 -14.205   4.808  1.00  0.00     0.068 A 
HETATM   18  C   UNL     1      42.690 -13.645   4.588  1.00  0.00     0.037 A 
HETATM   19  C   UNL     1      43.350 -13.829   3.373  1.00  0.00     0.003 A 
HETATM   20  C   UNL     1      42.751 -14.576   2.362  1.00  0.00     0.009 A 
BRANCH  17  21
HETATM   21  O   UNL     1      40.904 -13.949   6.040  1.00  0.00    -0.356 OA
HETATM   22  C   UNL     1      39.699 -13.195   6.102  1.00  0.00     0.210 C 
ENDBRANCH  17  21
ENDBRANCH   8  15
ENDBRANCH   7   8
ENDBRANCH   3   7
BRANCH   1  23
HETATM   23  C   UNL     1      43.823 -20.172   2.869  1.00  0.00     0.086 C 
HETATM   24  C   UNL     1      44.181 -21.455   2.113  1.00  0.00     0.032 C 
BRANCH  23  25
HETATM   25  C   UNL     1      44.286 -20.307   4.337  1.00  0.00     0.063 C 
BRANCH  25  26
HETATM   26  C   UNL     1      43.988 -19.097   5.191  1.00  0.00    -0.056 A 
HETATM   27  C   UNL     1      45.018 -18.454   5.896  1.00  0.00     0.010 A 
HETATM   28  C   UNL     1      44.751 -17.312   6.657  1.00  0.00     0.037 A 
HETATM   29  C   UNL     1      43.452 -16.821   6.721  1.00  0.00     0.065 A 
HETATM   30  C   UNL     1      42.419 -17.451   6.041  1.00  0.00     0.037 A 
HETATM   31  C   UNL     1      42.686 -18.584   5.271  1.00  0.00     0.010 A 
BRANCH  29  32
HETATM   32  O   UNL     1      43.148 -15.706   7.443  1.00  0.00    -0.361 OA
HETATM   33  H   UNL     1      43.217 -15.917   8.390  1.00  0.00     0.217 HD
ENDBRANCH  29  32
ENDBRANCH  25  26
ENDBRANCH  23  25
ENDBRANCH   1  23
TORSDOF 9
ENDMDL
MODEL 7
REMARK VINA RESULT:      -7.9      3.324      7.220
REMARK  9 active torsions:
REMARK  status: ('A' for Active; 'I' for Inactive)
REMARK    1  A    between atoms: C_2  and  N_3 
REMARK    2  A    between atoms: C_2  and  C_23 
REMARK       I    between atoms: N_3  and  C_4 
REMARK       I    between atoms: C_4  and  N_5 
REMARK    3  A    between atoms: N_5  and  C_6 
REMARK    4  A    between atoms: C_6  and  C_7 
REMARK    5  A    between atoms: C_7  and  N_8 
REMARK    6  A    between atoms: C_7  and  C_14 
REMARK    7  A    between atoms: C_16  and  O_17 
REMARK    8  A    between atoms: C_23  and  C_24 
REMARK    9  A    between atoms: C_27  and  O_28 
ROOT
HETATM    1  N   UNL     1      44.679 -15.802   6.951  1.00  0.00    -0.339 N 
HETATM    2  C   UNL     1      44.396 -16.981   6.360  1.00  0.00     0.316 C 
HETATM    3  N   UNL     1      43.308 -17.028   5.547  1.00  0.00    -0.341 N 
HETATM    4  O   UNL     1      45.123 -17.952   6.532  1.00  0.00    -0.248 OA
HETATM    5  H   UNL     1      45.475 -15.877   7.576  1.00  0.00     0.164 HD
HETATM    6  H   UNL     1      42.654 -16.262   5.627  1.00  0.00     0.164 HD
ENDROOT
BRANCH   3   7
HETATM    7  C   UNL     1      42.754 -18.314   5.121  1.00  0.00     0.162 C 
BRANCH   7   8
HETATM    8  C   UNL     1      42.570 -18.469   3.582  1.00  0.00     0.238 C 
BRANCH   8   9
HETATM    9  N   UNL     1      43.816 -19.064   2.922  1.00  0.00    -0.061 N 
HETATM   10  H   UNL     1      44.472 -18.277   2.818  1.00  0.00     0.280 HD
HETATM   11  C   UNL     1      43.582 -19.714   1.574  1.00  0.00     0.236 C 
HETATM   12  C   UNL     1      43.476 -21.188   1.897  1.00  0.00     0.029 C 
HETATM   13  C   UNL     1      44.577 -21.375   2.915  1.00  0.00     0.029 C 
HETATM   14  C   UNL     1      44.526 -20.118   3.772  1.00  0.00     0.236 C 
ENDBRANCH   8   9
BRANCH   8  15
HETATM   15  C   UNL     1      42.138 -17.131   2.992  1.00  0.00    -0.023 A 
HETATM   16  C   UNL     1      40.765 -16.812   2.941  1.00  0.00     0.046 A 
HETATM   17  C   UNL     1      40.333 -15.594   2.412  1.00  0.00     0.068 A 
HETATM   18  C   UNL     1      41.276 -14.687   1.931  1.00  0.00     0.037 A 
HETATM   19  C   UNL     1      42.638 -14.983   1.977  1.00  0.00     0.003 A 
HETATM   20  C   UNL     1      43.069 -16.196   2.507  1.00  0.00     0.009 A 
BRANCH  17  21
HETATM   21  O   UNL     1      39.038 -15.175   2.308  1.00  0.00    -0.356 OA
HETATM   22  C   UNL     1      38.773 -14.032   1.503  1.00  0.00     0.210 C 
ENDBRANCH  17  21
ENDBRANCH   8  15
ENDBRANCH   7   8
ENDBRANCH   3   7
BRANCH   1  23
HETATM   23  C   UNL     1      43.950 -14.530   6.969  1.00  0.00     0.086 C 
HETATM   24  C   UNL     1      44.766 -13.463   7.705  1.00  0.00     0.032 C 
BRANCH  23  25
HETATM   25  C   UNL     1      43.648 -14.032   5.537  1.00  0.00     0.063 C 
BRANCH  25  26
HETATM   26  C   UNL     1      42.253 -13.479   5.359  1.00  0.00    -0.056 A 
HETATM   27  C   UNL     1      42.055 -12.240   4.729  1.00  0.00     0.010 A 
HETATM   28  C   UNL     1      40.764 -11.744   4.530  1.00  0.00     0.037 A 
HETATM   29  C   UNL     1      39.672 -12.481   4.973  1.00  0.00     0.065 A 
HETATM   30  C   UNL     1      39.848 -13.702   5.609  1.00  0.00     0.037 A 
HETATM   31  C   UNL     1      41.137 -14.205   5.798  1.00  0.00     0.010 A 
BRANCH  29  32
HETATM   32  O   UNL     1      38.395 -12.041   4.792  1.00  0.00    -0.361 OA
HETATM   33  H   UNL     1      38.421 -11.177   4.345  1.00  0.00     0.217 HD
ENDBRANCH  29  32
ENDBRANCH  25  26
ENDBRANCH  23  25
ENDBRANCH   1  23
TORSDOF 9
ENDMDL
MODEL 8
REMARK VINA RESULT:      -7.9      1.690      2.069
REMARK  9 active torsions:
REMARK  status: ('A' for Active; 'I' for Inactive)
REMARK    1  A    between atoms: C_2  and  N_3 
REMARK    2  A    between atoms: C_2  and  C_23 
REMARK       I    between atoms: N_3  and  C_4 
REMARK       I    between atoms: C_4  and  N_5 
REMARK    3  A    between atoms: N_5  and  C_6 
REMARK    4  A    between atoms: C_6  and  C_7 
REMARK    5  A    between atoms: C_7  and  N_8 
REMARK    6  A    between atoms: C_7  and  C_14 
REMARK    7  A    between atoms: C_16  and  O_17 
REMARK    8  A    between atoms: C_23  and  C_24 
REMARK    9  A    between atoms: C_27  and  O_28 
ROOT
HETATM    1  N   UNL     1      42.032 -12.702   2.719  1.00  0.00    -0.339 N 
HETATM    2  C   UNL     1      42.945 -13.672   2.929  1.00  0.00     0.316 C 
HETATM    3  N   UNL     1      42.632 -14.928   2.512  1.00  0.00    -0.341 N 
HETATM    4  O   UNL     1      44.025 -13.408   3.443  1.00  0.00    -0.248 OA
HETATM    5  H   UNL     1      42.333 -11.814   3.107  1.00  0.00     0.164 HD
HETATM    6  H   UNL     1      41.659 -15.099   2.299  1.00  0.00     0.164 HD
ENDROOT
BRANCH   3   7
HETATM    7  C   UNL     1      43.410 -16.078   2.969  1.00  0.00     0.162 C 
BRANCH   7   8
HETATM    8  C   UNL     1      42.574 -17.210   3.639  1.00  0.00     0.238 C 
BRANCH   8   9
HETATM    9  N   UNL     1      42.400 -16.968   5.141  1.00  0.00    -0.061 N 
HETATM   10  H   UNL     1      42.643 -17.861   5.590  1.00  0.00     0.280 HD
HETATM   11  C   UNL     1      41.009 -16.545   5.567  1.00  0.00     0.236 C 
HETATM   12  C   UNL     1      41.112 -15.041   5.691  1.00  0.00     0.029 C 
HETATM   13  C   UNL     1      42.455 -14.863   6.359  1.00  0.00     0.029 C 
HETATM   14  C   UNL     1      43.347 -15.914   5.714  1.00  0.00     0.236 C 
ENDBRANCH   8   9
BRANCH   8  15
HETATM   15  C   UNL     1      43.196 -18.560   3.299  1.00  0.00    -0.023 A 
HETATM   16  C   UNL     1      44.000 -19.208   4.260  1.00  0.00     0.046 A 
HETATM   17  C   UNL     1      44.581 -20.448   3.986  1.00  0.00     0.068 A 
HETATM   18  C   UNL     1      44.359 -21.046   2.745  1.00  0.00     0.037 A 
HETATM   19  C   UNL     1      43.563 -20.422   1.786  1.00  0.00     0.003 A 
HETATM   20  C   UNL     1      42.981 -19.186   2.060  1.00  0.00     0.009 A 
BRANCH  17  21
HETATM   21  O   UNL     1      45.376 -21.170   4.829  1.00  0.00    -0.356 OA
HETATM   22  C   UNL     1      45.098 -22.557   4.978  1.00  0.00     0.210 C 
ENDBRANCH  17  21
ENDBRANCH   8  15
ENDBRANCH   7   8
ENDBRANCH   3   7
BRANCH   1  23
HETATM   23  C   UNL     1      40.663 -12.759   2.197  1.00  0.00     0.086 C 
HETATM   24  C   UNL     1      39.683 -12.175   3.220  1.00  0.00     0.032 C 
BRANCH  23  25
HETATM   25  C   UNL     1      40.530 -11.977   0.871  1.00  0.00     0.063 C 
BRANCH  25  26
HETATM   26  C   UNL     1      40.929 -12.769  -0.353  1.00  0.00    -0.056 A 
HETATM   27  C   UNL     1      41.780 -12.206  -1.316  1.00  0.00     0.010 A 
HETATM   28  C   UNL     1      42.180 -12.950  -2.431  1.00  0.00     0.037 A 
HETATM   29  C   UNL     1      41.718 -14.252  -2.586  1.00  0.00     0.065 A 
HETATM   30  C   UNL     1      40.865 -14.821  -1.649  1.00  0.00     0.037 A 
HETATM   31  C   UNL     1      40.475 -14.083  -0.530  1.00  0.00     0.010 A 
BRANCH  29  32
HETATM   32  O   UNL     1      42.089 -15.016  -3.651  1.00  0.00    -0.361 OA
HETATM   33  H   UNL     1      42.040 -15.953  -3.397  1.00  0.00     0.217 HD
ENDBRANCH  29  32
ENDBRANCH  25  26
ENDBRANCH  23  25
ENDBRANCH   1  23
TORSDOF 9
ENDMDL
MODEL 9
REMARK VINA RESULT:      -7.8      2.309      8.536
REMARK  9 active torsions:
REMARK  status: ('A' for Active; 'I' for Inactive)
REMARK    1  A    between atoms: C_2  and  N_3 
REMARK    2  A    between atoms: C_2  and  C_23 
REMARK       I    between atoms: N_3  and  C_4 
REMARK       I    between atoms: C_4  and  N_5 
REMARK    3  A    between atoms: N_5  and  C_6 
REMARK    4  A    between atoms: C_6  and  C_7 
REMARK    5  A    between atoms: C_7  and  N_8 
REMARK    6  A    between atoms: C_7  and  C_14 
REMARK    7  A    between atoms: C_16  and  O_17 
REMARK    8  A    between atoms: C_23  and  C_24 
REMARK    9  A    between atoms: C_27  and  O_28 
ROOT
HETATM    1  N   UNL     1      43.602 -19.066   1.789  1.00  0.00    -0.339 N 
HETATM    2  C   UNL     1      42.745 -18.028   1.707  1.00  0.00     0.316 C 
HETATM    3  N   UNL     1      41.910 -17.820   2.759  1.00  0.00    -0.341 N 
HETATM    4  O   UNL     1      42.757 -17.288   0.730  1.00  0.00    -0.248 OA
HETATM    5  H   UNL     1      44.146 -19.171   0.939  1.00  0.00     0.164 HD
HETATM    6  H   UNL     1      41.816 -18.584   3.414  1.00  0.00     0.164 HD
ENDROOT
BRANCH   3   7
HETATM    7  C   UNL     1      40.758 -16.929   2.628  1.00  0.00     0.162 C 
BRANCH   7   8
HETATM    8  C   UNL     1      41.111 -15.443   2.323  1.00  0.00     0.238 C 
BRANCH   8   9
HETATM    9  N   UNL     1      41.279 -14.628   3.609  1.00  0.00    -0.061 N 
HETATM   10  H   UNL     1      40.644 -13.824   3.506  1.00  0.00     0.280 HD
HETATM   11  C   UNL     1      42.686 -14.136   3.880  1.00  0.00     0.236 C 
HETATM   12  C   UNL     1      43.238 -15.146   4.861  1.00  0.00     0.029 C 
HETATM   13  C   UNL     1      42.066 -15.370   5.788  1.00  0.00     0.029 C 
HETATM   14  C   UNL     1      40.848 -15.370   4.875  1.00  0.00     0.236 C 
ENDBRANCH   8   9
BRANCH   8  15
HETATM   15  C   UNL     1      40.078 -14.870   1.360  1.00  0.00    -0.023 A 
HETATM   16  C   UNL     1      40.480 -14.504   0.057  1.00  0.00     0.046 A 
HETATM   17  C   UNL     1      39.560 -13.982  -0.854  1.00  0.00     0.068 A 
HETATM   18  C   UNL     1      38.231 -13.822  -0.465  1.00  0.00     0.037 A 
HETATM   19  C   UNL     1      37.814 -14.182   0.816  1.00  0.00     0.003 A 
HETATM   20  C   UNL     1      38.731 -14.707   1.724  1.00  0.00     0.009 A 
BRANCH  17  21
HETATM   21  O   UNL     1      39.828 -13.591  -2.134  1.00  0.00    -0.356 OA
HETATM   22  C   UNL     1      39.654 -14.551  -3.170  1.00  0.00     0.210 C 
ENDBRANCH  17  21
ENDBRANCH   8  15
ENDBRANCH   7   8
ENDBRANCH   3   7
BRANCH   1  23
HETATM   23  C   UNL     1      43.745 -20.125   2.793  1.00  0.00     0.086 C 
HETATM   24  C   UNL     1      43.824 -21.494   2.111  1.00  0.00     0.032 C 
BRANCH  23  25
HETATM   25  C   UNL     1      45.011 -19.919   3.654  1.00  0.00     0.063 C 
BRANCH  25  26
HETATM   26  C   UNL     1      44.726 -19.526   5.085  1.00  0.00    -0.056 A 
HETATM   27  C   UNL     1      45.088 -18.255   5.559  1.00  0.00     0.010 A 
HETATM   28  C   UNL     1      44.792 -17.876   6.872  1.00  0.00     0.037 A 
HETATM   29  C   UNL     1      44.143 -18.773   7.713  1.00  0.00     0.065 A 
HETATM   30  C   UNL     1      43.788 -20.039   7.266  1.00  0.00     0.037 A 
HETATM   31  C   UNL     1      44.073 -20.414   5.952  1.00  0.00     0.010 A 
BRANCH  29  32
HETATM   32  O   UNL     1      43.826 -18.443   8.996  1.00  0.00    -0.361 OA
HETATM   33  H   UNL     1      43.967 -19.220   9.564  1.00  0.00     0.217 HD
ENDBRANCH  29  32
ENDBRANCH  25  26
ENDBRANCH  23  25
ENDBRANCH   1  23
TORSDOF 9
ENDMDL
MODEL 10
REMARK VINA RESULT:      -7.8      2.162      7.888
REMARK  9 active torsions:
REMARK  status: ('A' for Active; 'I' for Inactive)
REMARK    1  A    between atoms: C_2  and  N_3 
REMARK    2  A    between atoms: C_2  and  C_23 
REMARK       I    between atoms: N_3  and  C_4 
REMARK       I    between atoms: C_4  and  N_5 
REMARK    3  A    between atoms: N_5  and  C_6 
REMARK    4  A    between atoms: C_6  and  C_7 
REMARK    5  A    between atoms: C_7  and  N_8 
REMARK    6  A    between atoms: C_7  and  C_14 
REMARK    7  A    between atoms: C_16  and  O_17 
REMARK    8  A    between atoms: C_23  and  C_24 
REMARK    9  A    between atoms: C_27  and  O_28 
ROOT
HETATM    1  N   UNL     1      42.590 -17.735   6.299  1.00  0.00    -0.339 N 
HETATM    2  C   UNL     1      41.535 -17.147   5.700  1.00  0.00     0.316 C 
HETATM    3  N   UNL     1      41.678 -16.778   4.400  1.00  0.00    -0.341 N 
HETATM    4  O   UNL     1      40.482 -16.994   6.308  1.00  0.00    -0.248 OA
HETATM    5  H   UNL     1      42.406 -17.928   7.278  1.00  0.00     0.164 HD
HETATM    6  H   UNL     1      42.625 -16.743   4.045  1.00  0.00     0.164 HD
ENDROOT
BRANCH   3   7
HETATM    7  C   UNL     1      40.716 -15.871   3.775  1.00  0.00     0.162 C 
BRANCH   7   8
HETATM    8  C   UNL     1      41.331 -14.868   2.753  1.00  0.00     0.238 C 
BRANCH   8   9
HETATM    9  N   UNL     1      41.891 -13.626   3.450  1.00  0.00    -0.061 N 
HETATM   10  H   UNL     1      41.561 -12.827   2.891  1.00  0.00     0.280 HD
HETATM   11  C   UNL     1      43.401 -13.578   3.563  1.00  0.00     0.236 C 
HETATM   12  C   UNL     1      43.673 -14.062   4.970  1.00  0.00     0.029 C 
HETATM   13  C   UNL     1      42.592 -13.366   5.765  1.00  0.00     0.029 C 
HETATM   14  C   UNL     1      41.363 -13.418   4.870  1.00  0.00     0.236 C 
ENDBRANCH   8   9
BRANCH   8  15
HETATM   15  C   UNL     1      40.300 -14.558   1.673  1.00  0.00    -0.023 A 
HETATM   16  C   UNL     1      40.729 -14.392   0.339  1.00  0.00     0.046 A 
HETATM   17  C   UNL     1      39.813 -14.113  -0.676  1.00  0.00     0.068 A 
HETATM   18  C   UNL     1      38.459 -13.998  -0.361  1.00  0.00     0.037 A 
HETATM   19  C   UNL     1      38.016 -14.163   0.951  1.00  0.00     0.003 A 
HETATM   20  C   UNL     1      38.930 -14.445   1.964  1.00  0.00     0.009 A 
BRANCH  17  21
HETATM   21  O   UNL     1      40.105 -13.930  -1.997  1.00  0.00    -0.356 OA
HETATM   22  C   UNL     1      40.952 -14.885  -2.627  1.00  0.00     0.210 C 
ENDBRANCH  17  21
ENDBRANCH   8  15
ENDBRANCH   7   8
ENDBRANCH   3   7
BRANCH   1  23
HETATM   23  C   UNL     1      43.960 -17.971   5.831  1.00  0.00     0.086 C 
HETATM   24  C   UNL     1      44.944 -17.091   6.609  1.00  0.00     0.032 C 
BRANCH  23  25
HETATM   25  C   UNL     1      44.368 -19.451   6.001  1.00  0.00     0.063 C 
BRANCH  25  26
HETATM   26  C   UNL     1      44.364 -20.243   4.714  1.00  0.00    -0.056 A 
HETATM   27  C   UNL     1      44.664 -21.614   4.722  1.00  0.00     0.010 A 
HETATM   28  C   UNL     1      44.624 -22.355   3.538  1.00  0.00     0.037 A 
HETATM   29  C   UNL     1      44.296 -21.722   2.344  1.00  0.00     0.065 A 
HETATM   30  C   UNL     1      44.009 -20.364   2.315  1.00  0.00     0.037 A 
HETATM   31  C   UNL     1      44.036 -19.625   3.498  1.00  0.00     0.010 A 
BRANCH  29  32
HETATM   32  O   UNL     1      44.236 -22.408   1.168  1.00  0.00    -0.361 OA
HETATM   33  H   UNL     1      43.563 -23.105   1.245  1.00  0.00     0.217 HD
ENDBRANCH  29  32
ENDBRANCH  25  26
ENDBRANCH  23  25
ENDBRANCH   1  23
TORSDOF 9
ENDMDL
