MODEL 1
REMARK VINA RESULT:      -7.2      0.000      0.000
REMARK  10 active torsions:
REMARK  status: ('A' for Active; 'I' for Inactive)
REMARK    1  A    between atoms: C_2  and  O_3 
REMARK    2  A    between atoms: O_3  and  C_4 
REMARK    3  A    between atoms: C_4  and  C_5 
REMARK    4  A    between atoms: C_6  and  C_7 
REMARK    5  A    between atoms: C_16  and  C_17 
REMARK    6  A    between atoms: C_17  and  C_18 
REMARK       I    between atoms: C_18  and  N_19 
REMARK    7  A    between atoms: N_19  and  C_20 
REMARK    8  A    between atoms: C_20  and  C_21 
REMARK    9  A    between atoms: C_21  and  N_22 
REMARK   10  A    between atoms: C_31  and  C_32 
ROOT
HETATM    1  C   UNL     1      41.090 -12.736   1.157  1.00  0.00     0.078 C 
HETATM    2  C   UNL     1      41.744 -13.513   2.263  1.00  0.00     0.167 C 
HETATM    3  N   UNL     1      41.190 -13.191   3.602  1.00  0.00    -0.318 N 
HETATM    4  C   UNL     1      41.516 -13.522   4.811  1.00  0.00     0.011 C 
HETATM    5  C   UNL     1      39.892 -12.350   3.573  1.00  0.00     0.170 C 
HETATM    6  S   UNL     1      39.223 -12.129   5.154  1.00  0.00    -0.086 SA
HETATM    7  C   UNL     1      40.654 -12.936   5.910  1.00  0.00     0.135 C 
HETATM    8  N   UNL     1      39.339 -11.860   2.524  1.00  0.00    -0.219 NA
HETATM    9  C   UNL     1      39.975 -11.984   1.297  1.00  0.00     0.157 C 
ENDROOT
BRANCH   4  10
HETATM   10  C   UNL     1      42.651 -14.449   5.137  1.00  0.00     0.156 C 
BRANCH  10  11
HETATM   11  C   UNL     1      42.273 -15.790   5.721  1.00  0.00     0.223 C 
HETATM   12  N   UNL     1      42.774 -16.011   6.980  1.00  0.00    -0.359 N 
HETATM   13  H   UNL     1      43.429 -15.329   7.361  1.00  0.00     0.162 HD
HETATM   14  O   UNL     1      41.538 -16.586   5.143  1.00  0.00    -0.273 OA
BRANCH  12  15
HETATM   15  C   UNL     1      42.736 -17.294   7.684  1.00  0.00     0.150 C 
BRANCH  15  16
HETATM   16  C   UNL     1      43.918 -18.249   7.410  1.00  0.00     0.253 C 
BRANCH  16  17
HETATM   17  N   UNL     1      43.589 -19.300   6.369  1.00  0.00    -0.077 N 
HETATM   18  H   UNL     1      42.593 -19.169   6.105  1.00  0.00     0.279 HD
HETATM   19  C   UNL     1      44.390 -19.158   5.100  1.00  0.00     0.269 C 
HETATM   20  C   UNL     1      43.728 -20.695   6.920  1.00  0.00     0.269 C 
ENDBRANCH  16  17
ENDBRANCH  15  16
ENDBRANCH  12  15
ENDBRANCH  10  11
ENDBRANCH   4  10
BRANCH   2  21
HETATM   21  C   UNL     1      41.698 -15.025   2.026  1.00  0.00    -0.024 A 
HETATM   22  C   UNL     1      40.482 -15.734   1.874  1.00  0.00    -0.053 A 
HETATM   23  C   UNL     1      39.116 -15.128   2.062  1.00  0.00     0.049 C 
HETATM   24  C   UNL     1      40.523 -17.115   1.614  1.00  0.00     0.008 A 
HETATM   25  C   UNL     1      41.733 -17.793   1.486  1.00  0.00     0.007 A 
HETATM   26  C   UNL     1      42.938 -17.114   1.642  1.00  0.00    -0.061 A 
HETATM   27  C   UNL     1      44.242 -17.858   1.565  1.00  0.00     0.048 C 
HETATM   28  C   UNL     1      42.915 -15.747   1.939  1.00  0.00     0.017 A 
ENDBRANCH   2  21
BRANCH   1  29
HETATM   29  C   UNL     1      41.879 -12.730  -0.091  1.00  0.00     0.294 C 
HETATM   30  O   UNL     1      41.625 -13.509  -0.996  1.00  0.00    -0.259 OA
BRANCH  29  31
HETATM   31  O   UNL     1      42.799 -11.749  -0.067  1.00  0.00    -0.318 OA
BRANCH  31  32
HETATM   32  C   UNL     1      43.153 -11.182  -1.341  1.00  0.00     0.174 C 
HETATM   33  C   UNL     1      43.721  -9.788  -1.165  1.00  0.00     0.034 C 
ENDBRANCH  31  32
ENDBRANCH  29  31
ENDBRANCH   1  29
BRANCH   9  34
HETATM   34  C   UNL     1      39.392 -11.125   0.154  1.00  0.00     0.435 C 
HETATM   35  F   UNL     1      40.243 -10.132  -0.204  1.00  0.00    -0.165 F 
HETATM   36  F   UNL     1      39.172 -11.862  -0.963  1.00  0.00    -0.165 F 
HETATM   37  F   UNL     1      38.224 -10.549   0.517  1.00  0.00    -0.165 F 
ENDBRANCH   9  34
TORSDOF 10
ENDMDL
MODEL 2
REMARK VINA RESULT:      -7.1      3.041      5.306
REMARK  10 active torsions:
REMARK  status: ('A' for Active; 'I' for Inactive)
REMARK    1  A    between atoms: C_2  and  O_3 
REMARK    2  A    between atoms: O_3  and  C_4 
REMARK    3  A    between atoms: C_4  and  C_5 
REMARK    4  A    between atoms: C_6  and  C_7 
REMARK    5  A    between atoms: C_16  and  C_17 
REMARK    6  A    between atoms: C_17  and  C_18 
REMARK       I    between atoms: C_18  and  N_19 
REMARK    7  A    between atoms: N_19  and  C_20 
REMARK    8  A    between atoms: C_20  and  C_21 
REMARK    9  A    between atoms: C_21  and  N_22 
REMARK   10  A    between atoms: C_31  and  C_32 
ROOT
HETATM    1  C   UNL     1      40.478 -12.586   4.954  1.00  0.00     0.078 C 
HETATM    2  C   UNL     1      40.809 -14.004   4.587  1.00  0.00     0.167 C 
HETATM    3  N   UNL     1      41.201 -14.155   3.163  1.00  0.00    -0.318 N 
HETATM    4  C   UNL     1      41.450 -15.175   2.404  1.00  0.00     0.011 C 
HETATM    5  C   UNL     1      41.456 -12.820   2.423  1.00  0.00     0.170 C 
HETATM    6  S   UNL     1      42.043 -13.070   0.814  1.00  0.00    -0.086 SA
HETATM    7  C   UNL     1      41.811 -14.856   0.968  1.00  0.00     0.135 C 
HETATM    8  N   UNL     1      41.274 -11.647   2.909  1.00  0.00    -0.219 NA
HETATM    9  C   UNL     1      40.707 -11.511   4.167  1.00  0.00     0.157 C 
ENDROOT
BRANCH   4  10
HETATM   10  C   UNL     1      41.421 -16.595   2.892  1.00  0.00     0.156 C 
BRANCH  10  11
HETATM   11  C   UNL     1      42.733 -17.344   2.850  1.00  0.00     0.223 C 
HETATM   12  N   UNL     1      42.824 -18.250   1.824  1.00  0.00    -0.359 N 
HETATM   13  H   UNL     1      41.991 -18.424   1.262  1.00  0.00     0.162 HD
HETATM   14  O   UNL     1      43.654 -17.119   3.631  1.00  0.00    -0.273 OA
BRANCH  12  15
HETATM   15  C   UNL     1      43.888 -19.246   1.678  1.00  0.00     0.150 C 
BRANCH  15  16
HETATM   16  C   UNL     1      43.602 -20.633   2.293  1.00  0.00     0.253 C 
BRANCH  16  17
HETATM   17  N   UNL     1      44.684 -21.077   3.259  1.00  0.00    -0.077 N 
HETATM   18  H   UNL     1      45.597 -20.885   2.804  1.00  0.00     0.279 HD
HETATM   19  C   UNL     1      44.682 -20.307   4.554  1.00  0.00     0.269 C 
HETATM   20  C   UNL     1      44.618 -22.557   3.530  1.00  0.00     0.269 C 
ENDBRANCH  16  17
ENDBRANCH  15  16
ENDBRANCH  12  15
ENDBRANCH  10  11
ENDBRANCH   4  10
BRANCH   2  21
HETATM   21  C   UNL     1      41.884 -14.611   5.493  1.00  0.00    -0.024 A 
HETATM   22  C   UNL     1      41.690 -15.824   6.196  1.00  0.00    -0.053 A 
HETATM   23  C   UNL     1      40.387 -16.577   6.248  1.00  0.00     0.049 C 
HETATM   24  C   UNL     1      42.743 -16.341   6.972  1.00  0.00     0.008 A 
HETATM   25  C   UNL     1      43.973 -15.692   7.048  1.00  0.00     0.007 A 
HETATM   26  C   UNL     1      44.178 -14.493   6.373  1.00  0.00    -0.061 A 
HETATM   27  C   UNL     1      45.485 -13.763   6.505  1.00  0.00     0.048 C 
HETATM   28  C   UNL     1      43.129 -13.946   5.626  1.00  0.00     0.017 A 
ENDBRANCH   2  21
BRANCH   1  29
HETATM   29  C   UNL     1      39.710 -12.479   6.212  1.00  0.00     0.294 C 
HETATM   30  O   UNL     1      38.549 -12.852   6.269  1.00  0.00    -0.259 OA
BRANCH  29  31
HETATM   31  O   UNL     1      40.484 -12.002   7.202  1.00  0.00    -0.318 OA
BRANCH  31  32
HETATM   32  C   UNL     1      39.833 -11.142   8.155  1.00  0.00     0.174 C 
HETATM   33  C   UNL     1      40.848 -10.524   9.096  1.00  0.00     0.034 C 
ENDBRANCH  31  32
ENDBRANCH  29  31
ENDBRANCH   1  29
BRANCH   9  34
HETATM   34  C   UNL     1      40.262 -10.082   4.548  1.00  0.00     0.435 C 
HETATM   35  F   UNL     1      38.991 -10.067   5.019  1.00  0.00    -0.165 F 
HETATM   36  F   UNL     1      41.041  -9.559   5.527  1.00  0.00    -0.165 F 
HETATM   37  F   UNL     1      40.310  -9.251   3.481  1.00  0.00    -0.165 F 
ENDBRANCH   9  34
TORSDOF 10
ENDMDL
MODEL 3
REMARK VINA RESULT:      -7.0      1.800      2.442
REMARK  10 active torsions:
REMARK  status: ('A' for Active; 'I' for Inactive)
REMARK    1  A    between atoms: C_2  and  O_3 
REMARK    2  A    between atoms: O_3  and  C_4 
REMARK    3  A    between atoms: C_4  and  C_5 
REMARK    4  A    between atoms: C_6  and  C_7 
REMARK    5  A    between atoms: C_16  and  C_17 
REMARK    6  A    between atoms: C_17  and  C_18 
REMARK       I    between atoms: C_18  and  N_19 
REMARK    7  A    between atoms: N_19  and  C_20 
REMARK    8  A    between atoms: C_20  and  C_21 
REMARK    9  A    between atoms: C_21  and  N_22 
REMARK   10  A    between atoms: C_31  and  C_32 
ROOT
HETATM    1  C   UNL     1      40.901 -13.386  -0.150  1.00  0.00     0.078 C 
HETATM    2  C   UNL     1      41.787 -13.762   1.003  1.00  0.00     0.167 C 
HETATM    3  N   UNL     1      41.553 -12.925   2.207  1.00  0.00    -0.318 N 
HETATM    4  C   UNL     1      42.144 -12.820   3.355  1.00  0.00     0.011 C 
HETATM    5  C   UNL     1      40.286 -12.040   2.137  1.00  0.00     0.170 C 
HETATM    6  S   UNL     1      39.996 -11.200   3.622  1.00  0.00    -0.086 SA
HETATM    7  C   UNL     1      41.557 -11.799   4.308  1.00  0.00     0.135 C 
HETATM    8  N   UNL     1      39.511 -11.919   1.121  1.00  0.00    -0.219 NA
HETATM    9  C   UNL     1      39.851 -12.539  -0.072  1.00  0.00     0.157 C 
ENDROOT
BRANCH   4  10
HETATM   10  C   UNL     1      43.320 -13.662   3.760  1.00  0.00     0.156 C 
BRANCH  10  11
HETATM   11  C   UNL     1      43.144 -14.504   5.002  1.00  0.00     0.223 C 
HETATM   12  N   UNL     1      42.484 -15.687   4.784  1.00  0.00    -0.359 N 
HETATM   13  H   UNL     1      42.079 -15.847   3.862  1.00  0.00     0.162 HD
HETATM   14  O   UNL     1      43.602 -14.184   6.096  1.00  0.00    -0.273 OA
BRANCH  12  15
HETATM   15  C   UNL     1      42.000 -16.584   5.836  1.00  0.00     0.150 C 
BRANCH  15  16
HETATM   16  C   UNL     1      42.647 -17.986   5.877  1.00  0.00     0.253 C 
BRANCH  16  17
HETATM   17  N   UNL     1      43.633 -18.140   7.018  1.00  0.00    -0.077 N 
HETATM   18  H   UNL     1      43.530 -19.106   7.383  1.00  0.00     0.279 HD
HETATM   19  C   UNL     1      45.071 -17.997   6.589  1.00  0.00     0.269 C 
HETATM   20  C   UNL     1      43.329 -17.194   8.150  1.00  0.00     0.269 C 
ENDBRANCH  16  17
ENDBRANCH  15  16
ENDBRANCH  12  15
ENDBRANCH  10  11
ENDBRANCH   4  10
BRANCH   2  21
HETATM   21  C   UNL     1      41.682 -15.245   1.367  1.00  0.00    -0.024 A 
HETATM   22  C   UNL     1      40.461 -15.848   1.756  1.00  0.00    -0.053 A 
HETATM   23  C   UNL     1      39.177 -15.095   1.988  1.00  0.00     0.049 C 
HETATM   24  C   UNL     1      40.436 -17.227   2.030  1.00  0.00     0.008 A 
HETATM   25  C   UNL     1      41.581 -18.011   1.911  1.00  0.00     0.007 A 
HETATM   26  C   UNL     1      42.792 -17.434   1.540  1.00  0.00    -0.061 A 
HETATM   27  C   UNL     1      44.039 -18.268   1.472  1.00  0.00     0.048 C 
HETATM   28  C   UNL     1      42.842 -16.056   1.300  1.00  0.00     0.017 A 
ENDBRANCH   2  21
BRANCH   1  29
HETATM   29  C   UNL     1      41.386 -13.906  -1.445  1.00  0.00     0.294 C 
HETATM   30  O   UNL     1      42.264 -13.325  -2.063  1.00  0.00    -0.259 OA
BRANCH  29  31
HETATM   31  O   UNL     1      40.781 -15.068  -1.747  1.00  0.00    -0.318 OA
BRANCH  31  32
HETATM   32  C   UNL     1      40.930 -15.525  -3.103  1.00  0.00     0.174 C 
HETATM   33  C   UNL     1      39.576 -15.667  -3.770  1.00  0.00     0.034 C 
ENDBRANCH  31  32
ENDBRANCH  29  31
ENDBRANCH   1  29
BRANCH   9  34
HETATM   34  C   UNL     1      39.027 -12.108  -1.305  1.00  0.00     0.435 C 
HETATM   35  F   UNL     1      38.072 -11.205  -0.973  1.00  0.00    -0.165 F 
HETATM   36  F   UNL     1      39.805 -11.515  -2.245  1.00  0.00    -0.165 F 
HETATM   37  F   UNL     1      38.407 -13.165  -1.877  1.00  0.00    -0.165 F 
ENDBRANCH   9  34
TORSDOF 10
ENDMDL
MODEL 4
REMARK VINA RESULT:      -6.7      3.419      7.190
REMARK  10 active torsions:
REMARK  status: ('A' for Active; 'I' for Inactive)
REMARK    1  A    between atoms: C_2  and  O_3 
REMARK    2  A    between atoms: O_3  and  C_4 
REMARK    3  A    between atoms: C_4  and  C_5 
REMARK    4  A    between atoms: C_6  and  C_7 
REMARK    5  A    between atoms: C_16  and  C_17 
REMARK    6  A    between atoms: C_17  and  C_18 
REMARK       I    between atoms: C_18  and  N_19 
REMARK    7  A    between atoms: N_19  and  C_20 
REMARK    8  A    between atoms: C_20  and  C_21 
REMARK    9  A    between atoms: C_21  and  N_22 
REMARK   10  A    between atoms: C_31  and  C_32 
ROOT
HETATM    1  C   UNL     1      41.941 -14.057   3.468  1.00  0.00     0.078 C 
HETATM    2  C   UNL     1      40.860 -13.723   2.480  1.00  0.00     0.167 C 
HETATM    3  N   UNL     1      39.932 -12.674   2.973  1.00  0.00    -0.318 N 
HETATM    4  C   UNL     1      38.826 -12.171   2.524  1.00  0.00     0.011 C 
HETATM    5  C   UNL     1      40.407 -11.947   4.254  1.00  0.00     0.170 C 
HETATM    6  S   UNL     1      39.354 -10.646   4.693  1.00  0.00    -0.086 SA
HETATM    7  C   UNL     1      38.193 -11.096   3.382  1.00  0.00     0.135 C 
HETATM    8  N   UNL     1      41.454 -12.238   4.936  1.00  0.00    -0.219 NA
HETATM    9  C   UNL     1      42.204 -13.353   4.592  1.00  0.00     0.157 C 
ENDROOT
BRANCH   4  10
HETATM   10  C   UNL     1      38.199 -12.584   1.222  1.00  0.00     0.156 C 
BRANCH  10  11
HETATM   11  C   UNL     1      38.534 -11.735   0.019  1.00  0.00     0.223 C 
HETATM   12  N   UNL     1      38.355 -12.374  -1.182  1.00  0.00    -0.359 N 
HETATM   13  H   UNL     1      38.128 -13.368  -1.167  1.00  0.00     0.162 HD
HETATM   14  O   UNL     1      38.882 -10.560   0.108  1.00  0.00    -0.273 OA
BRANCH  12  15
HETATM   15  C   UNL     1      38.798 -11.860  -2.480  1.00  0.00     0.150 C 
BRANCH  15  16
HETATM   16  C   UNL     1      39.207 -12.924  -3.522  1.00  0.00     0.253 C 
BRANCH  16  17
HETATM   17  N   UNL     1      38.629 -14.292  -3.217  1.00  0.00    -0.077 N 
HETATM   18  H   UNL     1      38.499 -14.346  -2.188  1.00  0.00     0.279 HD
HETATM   19  C   UNL     1      37.272 -14.518  -3.832  1.00  0.00     0.269 C 
HETATM   20  C   UNL     1      39.573 -15.397  -3.611  1.00  0.00     0.269 C 
ENDBRANCH  16  17
ENDBRANCH  15  16
ENDBRANCH  12  15
ENDBRANCH  10  11
ENDBRANCH   4  10
BRANCH   2  21
HETATM   21  C   UNL     1      41.416 -13.329   1.109  1.00  0.00    -0.024 A 
HETATM   22  C   UNL     1      41.377 -14.201  -0.006  1.00  0.00    -0.053 A 
HETATM   23  C   UNL     1      40.924 -15.636   0.052  1.00  0.00     0.049 C 
HETATM   24  C   UNL     1      41.867 -13.749  -1.244  1.00  0.00     0.008 A 
HETATM   25  C   UNL     1      42.371 -12.460  -1.397  1.00  0.00     0.007 A 
HETATM   26  C   UNL     1      42.426 -11.593  -0.310  1.00  0.00    -0.061 A 
HETATM   27  C   UNL     1      43.027 -10.224  -0.462  1.00  0.00     0.048 C 
HETATM   28  C   UNL     1      41.978 -12.039   0.938  1.00  0.00     0.017 A 
ENDBRANCH   2  21
BRANCH   1  29
HETATM   29  C   UNL     1      42.604 -15.346   3.185  1.00  0.00     0.294 C 
HETATM   30  O   UNL     1      43.718 -15.380   2.686  1.00  0.00    -0.259 OA
BRANCH  29  31
HETATM   31  O   UNL     1      41.845 -16.373   3.606  1.00  0.00    -0.318 OA
BRANCH  31  32
HETATM   32  C   UNL     1      42.302 -17.688   3.241  1.00  0.00     0.174 C 
HETATM   33  C   UNL     1      42.868 -18.410   4.448  1.00  0.00     0.034 C 
ENDBRANCH  31  32
ENDBRANCH  29  31
ENDBRANCH   1  29
BRANCH   9  34
HETATM   34  C   UNL     1      43.264 -13.790   5.627  1.00  0.00     0.435 C 
HETATM   35  F   UNL     1      44.514 -13.743   5.106  1.00  0.00    -0.165 F 
HETATM   36  F   UNL     1      43.269 -12.975   6.711  1.00  0.00    -0.165 F 
HETATM   37  F   UNL     1      43.046 -15.055   6.051  1.00  0.00    -0.165 F 
ENDBRANCH   9  34
TORSDOF 10
ENDMDL
MODEL 5
REMARK VINA RESULT:      -6.7      3.655      8.070
REMARK  10 active torsions:
REMARK  status: ('A' for Active; 'I' for Inactive)
REMARK    1  A    between atoms: C_2  and  O_3 
REMARK    2  A    between atoms: O_3  and  C_4 
REMARK    3  A    between atoms: C_4  and  C_5 
REMARK    4  A    between atoms: C_6  and  C_7 
REMARK    5  A    between atoms: C_16  and  C_17 
REMARK    6  A    between atoms: C_17  and  C_18 
REMARK       I    between atoms: C_18  and  N_19 
REMARK    7  A    between atoms: N_19  and  C_20 
REMARK    8  A    between atoms: C_20  and  C_21 
REMARK    9  A    between atoms: C_21  and  N_22 
REMARK   10  A    between atoms: C_31  and  C_32 
ROOT
HETATM    1  C   UNL     1      40.335 -14.608   1.330  1.00  0.00     0.078 C 
HETATM    2  C   UNL     1      39.798 -14.273  -0.032  1.00  0.00     0.167 C 
HETATM    3  N   UNL     1      38.679 -13.299   0.012  1.00  0.00    -0.318 N 
HETATM    4  C   UNL     1      37.865 -12.826  -0.878  1.00  0.00     0.011 C 
HETATM    5  C   UNL     1      38.472 -12.621   1.388  1.00  0.00     0.170 C 
HETATM    6  S   UNL     1      37.248 -11.399   1.334  1.00  0.00    -0.086 SA
HETATM    7  C   UNL     1      36.840 -11.832  -0.373  1.00  0.00     0.135 C 
HETATM    8  N   UNL     1      39.114 -12.898   2.464  1.00  0.00    -0.219 NA
HETATM    9  C   UNL     1      40.012 -13.955   2.469  1.00  0.00     0.157 C 
ENDROOT
BRANCH   4  10
HETATM   10  C   UNL     1      37.925 -13.197  -2.333  1.00  0.00     0.156 C 
BRANCH  10  11
HETATM   11  C   UNL     1      38.072 -12.053  -3.309  1.00  0.00     0.223 C 
HETATM   12  N   UNL     1      39.356 -11.581  -3.425  1.00  0.00    -0.359 N 
HETATM   13  H   UNL     1      40.060 -11.947  -2.785  1.00  0.00     0.162 HD
HETATM   14  O   UNL     1      37.137 -11.624  -3.980  1.00  0.00    -0.273 OA
BRANCH  12  15
HETATM   15  C   UNL     1      39.738 -10.358  -4.134  1.00  0.00     0.150 C 
BRANCH  15  16
HETATM   16  C   UNL     1      40.677  -9.401  -3.368  1.00  0.00     0.253 C 
BRANCH  16  17
HETATM   17  N   UNL     1      41.991  -9.172  -4.089  1.00  0.00    -0.077 N 
HETATM   18  H   UNL     1      42.751  -9.378  -3.412  1.00  0.00     0.279 HD
HETATM   19  C   UNL     1      42.199 -10.096  -5.261  1.00  0.00     0.269 C 
HETATM   20  C   UNL     1      42.148  -7.737  -4.520  1.00  0.00     0.269 C 
ENDBRANCH  16  17
ENDBRANCH  15  16
ENDBRANCH  12  15
ENDBRANCH  10  11
ENDBRANCH   4  10
BRANCH   2  21
HETATM   21  C   UNL     1      40.886 -13.778  -0.988  1.00  0.00    -0.024 A 
HETATM   22  C   UNL     1      41.196 -14.444  -2.199  1.00  0.00    -0.053 A 
HETATM   23  C   UNL     1      40.606 -15.766  -2.616  1.00  0.00     0.049 C 
HETATM   24  C   UNL     1      42.178 -13.902  -3.046  1.00  0.00     0.008 A 
HETATM   25  C   UNL     1      42.836 -12.717  -2.728  1.00  0.00     0.007 A 
HETATM   26  C   UNL     1      42.552 -12.053  -1.538  1.00  0.00    -0.061 A 
HETATM   27  C   UNL     1      43.306 -10.808  -1.166  1.00  0.00     0.048 C 
HETATM   28  C   UNL     1      41.605 -12.600  -0.665  1.00  0.00     0.017 A 
ENDBRANCH   2  21
BRANCH   1  29
HETATM   29  C   UNL     1      41.141 -15.846   1.346  1.00  0.00     0.294 C 
HETATM   30  O   UNL     1      40.605 -16.941   1.293  1.00  0.00    -0.259 OA
BRANCH  29  31
HETATM   31  O   UNL     1      42.454 -15.558   1.359  1.00  0.00    -0.318 OA
BRANCH  31  32
HETATM   32  C   UNL     1      43.283 -16.424   2.154  1.00  0.00     0.174 C 
HETATM   33  C   UNL     1      44.037 -17.400   1.272  1.00  0.00     0.034 C 
ENDBRANCH  31  32
ENDBRANCH  29  31
ENDBRANCH   1  29
BRANCH   9  34
HETATM   34  C   UNL     1      40.515 -14.395   3.861  1.00  0.00     0.435 C 
HETATM   35  F   UNL     1      40.387 -15.734   4.034  1.00  0.00    -0.165 F 
HETATM   36  F   UNL     1      41.830 -14.111   4.030  1.00  0.00    -0.165 F 
HETATM   37  F   UNL     1      39.822 -13.788   4.850  1.00  0.00    -0.165 F 
ENDBRANCH   9  34
TORSDOF 10
ENDMDL
MODEL 6
REMARK VINA RESULT:      -6.5      4.136      8.353
REMARK  10 active torsions:
REMARK  status: ('A' for Active; 'I' for Inactive)
REMARK    1  A    between atoms: C_2  and  O_3 
REMARK    2  A    between atoms: O_3  and  C_4 
REMARK    3  A    between atoms: C_4  and  C_5 
REMARK    4  A    between atoms: C_6  and  C_7 
REMARK    5  A    between atoms: C_16  and  C_17 
REMARK    6  A    between atoms: C_17  and  C_18 
REMARK       I    between atoms: C_18  and  N_19 
REMARK    7  A    between atoms: N_19  and  C_20 
REMARK    8  A    between atoms: C_20  and  C_21 
REMARK    9  A    between atoms: C_21  and  N_22 
REMARK   10  A    between atoms: C_31  and  C_32 
ROOT
HETATM    1  C   UNL     1      40.955 -15.229   1.409  1.00  0.00     0.078 C 
HETATM    2  C   UNL     1      40.136 -14.678   0.276  1.00  0.00     0.167 C 
HETATM    3  N   UNL     1      39.175 -13.635   0.713  1.00  0.00    -0.318 N 
HETATM    4  C   UNL     1      38.221 -12.989   0.121  1.00  0.00     0.011 C 
HETATM    5  C   UNL     1      39.390 -13.130   2.160  1.00  0.00     0.170 C 
HETATM    6  S   UNL     1      38.330 -11.820   2.557  1.00  0.00    -0.086 SA
HETATM    7  C   UNL     1      37.467 -11.994   0.977  1.00  0.00     0.135 C 
HETATM    8  N   UNL     1      40.245 -13.593   2.997  1.00  0.00    -0.219 NA
HETATM    9  C   UNL     1      40.997 -14.708   2.656  1.00  0.00     0.157 C 
ENDROOT
BRANCH   4  10
HETATM   10  C   UNL     1      37.878 -13.169  -1.331  1.00  0.00     0.156 C 
BRANCH  10  11
HETATM   11  C   UNL     1      38.123 -11.979  -2.229  1.00  0.00     0.223 C 
HETATM   12  N   UNL     1      37.115 -11.745  -3.130  1.00  0.00    -0.359 N 
HETATM   13  H   UNL     1      36.364 -12.430  -3.198  1.00  0.00     0.162 HD
HETATM   14  O   UNL     1      39.110 -11.255  -2.122  1.00  0.00    -0.273 OA
BRANCH  12  15
HETATM   15  C   UNL     1      37.190 -10.796  -4.243  1.00  0.00     0.150 C 
BRANCH  15  16
HETATM   16  C   UNL     1      36.098 -10.939  -5.325  1.00  0.00     0.253 C 
BRANCH  16  17
HETATM   17  N   UNL     1      35.249 -12.181  -5.136  1.00  0.00    -0.077 N 
HETATM   18  H   UNL     1      35.564 -12.636  -4.258  1.00  0.00     0.279 HD
HETATM   19  C   UNL     1      33.783 -11.882  -4.961  1.00  0.00     0.269 C 
HETATM   20  C   UNL     1      35.450 -13.170  -6.254  1.00  0.00     0.269 C 
ENDBRANCH  16  17
ENDBRANCH  15  16
ENDBRANCH  12  15
ENDBRANCH  10  11
ENDBRANCH   4  10
BRANCH   2  21
HETATM   21  C   UNL     1      41.000 -14.147  -0.871  1.00  0.00    -0.024 A 
HETATM   22  C   UNL     1      41.044 -14.770  -2.141  1.00  0.00    -0.053 A 
HETATM   23  C   UNL     1      40.372 -16.078  -2.470  1.00  0.00     0.049 C 
HETATM   24  C   UNL     1      41.827 -14.196  -3.158  1.00  0.00     0.008 A 
HETATM   25  C   UNL     1      42.543 -13.021  -2.945  1.00  0.00     0.007 A 
HETATM   26  C   UNL     1      42.520 -12.400  -1.699  1.00  0.00    -0.061 A 
HETATM   27  C   UNL     1      43.343 -11.167  -1.452  1.00  0.00     0.048 C 
HETATM   28  C   UNL     1      41.777 -12.979  -0.665  1.00  0.00     0.017 A 
ENDBRANCH   2  21
BRANCH   1  29
HETATM   29  C   UNL     1      41.601 -16.516   1.082  1.00  0.00     0.294 C 
HETATM   30  O   UNL     1      40.935 -17.525   0.915  1.00  0.00    -0.259 OA
BRANCH  29  31
HETATM   31  O   UNL     1      42.930 -16.361   0.951  1.00  0.00    -0.318 OA
BRANCH  31  32
HETATM   32  C   UNL     1      43.705 -17.572   0.877  1.00  0.00     0.174 C 
HETATM   33  C   UNL     1      44.029 -18.084   2.266  1.00  0.00     0.034 C 
ENDBRANCH  31  32
ENDBRANCH  29  31
ENDBRANCH   1  29
BRANCH   9  34
HETATM   34  C   UNL     1      41.779 -15.364   3.814  1.00  0.00     0.435 C 
HETATM   35  F   UNL     1      41.456 -14.810   5.008  1.00  0.00    -0.165 F 
HETATM   36  F   UNL     1      41.502 -16.688   3.918  1.00  0.00    -0.165 F 
HETATM   37  F   UNL     1      43.114 -15.224   3.648  1.00  0.00    -0.165 F 
ENDBRANCH   9  34
TORSDOF 10
ENDMDL
MODEL 7
REMARK VINA RESULT:      -6.4      3.835      7.582
REMARK  10 active torsions:
REMARK  status: ('A' for Active; 'I' for Inactive)
REMARK    1  A    between atoms: C_2  and  O_3 
REMARK    2  A    between atoms: O_3  and  C_4 
REMARK    3  A    between atoms: C_4  and  C_5 
REMARK    4  A    between atoms: C_6  and  C_7 
REMARK    5  A    between atoms: C_16  and  C_17 
REMARK    6  A    between atoms: C_17  and  C_18 
REMARK       I    between atoms: C_18  and  N_19 
REMARK    7  A    between atoms: N_19  and  C_20 
REMARK    8  A    between atoms: C_20  and  C_21 
REMARK    9  A    between atoms: C_21  and  N_22 
REMARK   10  A    between atoms: C_31  and  C_32 
ROOT
HETATM    1  C   UNL     1      41.718 -14.034   3.900  1.00  0.00     0.078 C 
HETATM    2  C   UNL     1      40.614 -13.636   2.963  1.00  0.00     0.167 C 
HETATM    3  N   UNL     1      39.882 -12.425   3.414  1.00  0.00    -0.318 N 
HETATM    4  C   UNL     1      38.822 -11.809   2.995  1.00  0.00     0.011 C 
HETATM    5  C   UNL     1      40.558 -11.665   4.581  1.00  0.00     0.170 C 
HETATM    6  S   UNL     1      39.732 -10.193   4.963  1.00  0.00    -0.086 SA
HETATM    7  C   UNL     1      38.416 -10.584   3.786  1.00  0.00     0.135 C 
HETATM    8  N   UNL     1      41.608 -12.043   5.213  1.00  0.00    -0.219 NA
HETATM    9  C   UNL     1      42.167 -13.280   4.929  1.00  0.00     0.157 C 
ENDROOT
BRANCH   4  10
HETATM   10  C   UNL     1      38.039 -12.239   1.788  1.00  0.00     0.156 C 
BRANCH  10  11
HETATM   11  C   UNL     1      37.250 -11.161   1.083  1.00  0.00     0.223 C 
HETATM   12  N   UNL     1      35.902 -11.202   1.334  1.00  0.00    -0.359 N 
HETATM   13  H   UNL     1      35.537 -11.994   1.863  1.00  0.00     0.162 HD
HETATM   14  O   UNL     1      37.778 -10.292   0.393  1.00  0.00    -0.273 OA
BRANCH  12  15
HETATM   15  C   UNL     1      34.892 -10.414   0.623  1.00  0.00     0.150 C 
BRANCH  15  16
HETATM   16  C   UNL     1      33.431 -10.625   1.076  1.00  0.00     0.253 C 
BRANCH  16  17
HETATM   17  N   UNL     1      33.281 -10.611   2.585  1.00  0.00    -0.077 N 
HETATM   18  H   UNL     1      34.039 -11.205   2.973  1.00  0.00     0.279 HD
HETATM   19  C   UNL     1      33.456  -9.243   3.191  1.00  0.00     0.269 C 
HETATM   20  C   UNL     1      31.970 -11.212   3.021  1.00  0.00     0.269 C 
ENDBRANCH  16  17
ENDBRANCH  15  16
ENDBRANCH  12  15
ENDBRANCH  10  11
ENDBRANCH   4  10
BRANCH   2  21
HETATM   21  C   UNL     1      41.103 -13.447   1.524  1.00  0.00    -0.024 A 
HETATM   22  C   UNL     1      40.889 -14.416   0.514  1.00  0.00    -0.053 A 
HETATM   23  C   UNL     1      40.292 -15.778   0.757  1.00  0.00     0.049 C 
HETATM   24  C   UNL     1      41.328 -14.149  -0.794  1.00  0.00     0.008 A 
HETATM   25  C   UNL     1      41.952 -12.947  -1.118  1.00  0.00     0.007 A 
HETATM   26  C   UNL     1      42.181 -11.987  -0.137  1.00  0.00    -0.061 A 
HETATM   27  C   UNL     1      42.909 -10.717  -0.474  1.00  0.00     0.048 C 
HETATM   28  C   UNL     1      41.783 -12.252   1.179  1.00  0.00     0.017 A 
ENDBRANCH   2  21
BRANCH   1  29
HETATM   29  C   UNL     1      42.172 -15.425   3.699  1.00  0.00     0.294 C 
HETATM   30  O   UNL     1      41.532 -16.363   4.147  1.00  0.00    -0.259 OA
BRANCH  29  31
HETATM   31  O   UNL     1      43.283 -15.457   2.943  1.00  0.00    -0.318 OA
BRANCH  31  32
HETATM   32  C   UNL     1      43.838 -16.760   2.687  1.00  0.00     0.174 C 
HETATM   33  C   UNL     1      43.660 -17.140   1.231  1.00  0.00     0.034 C 
ENDBRANCH  31  32
ENDBRANCH  29  31
ENDBRANCH   1  29
BRANCH   9  34
HETATM   34  C   UNL     1      43.239 -13.773   5.925  1.00  0.00     0.435 C 
HETATM   35  F   UNL     1      44.445 -13.917   5.324  1.00  0.00    -0.165 F 
HETATM   36  F   UNL     1      43.419 -12.893   6.942  1.00  0.00    -0.165 F 
HETATM   37  F   UNL     1      42.904 -14.970   6.457  1.00  0.00    -0.165 F 
ENDBRANCH   9  34
TORSDOF 10
ENDMDL
MODEL 8
REMARK VINA RESULT:      -6.4      3.639      5.631
REMARK  10 active torsions:
REMARK  status: ('A' for Active; 'I' for Inactive)
REMARK    1  A    between atoms: C_2  and  O_3 
REMARK    2  A    between atoms: O_3  and  C_4 
REMARK    3  A    between atoms: C_4  and  C_5 
REMARK    4  A    between atoms: C_6  and  C_7 
REMARK    5  A    between atoms: C_16  and  C_17 
REMARK    6  A    between atoms: C_17  and  C_18 
REMARK       I    between atoms: C_18  and  N_19 
REMARK    7  A    between atoms: N_19  and  C_20 
REMARK    8  A    between atoms: C_20  and  C_21 
REMARK    9  A    between atoms: C_21  and  N_22 
REMARK   10  A    between atoms: C_31  and  C_32 
ROOT
HETATM    1  C   UNL     1      41.613 -14.240   3.803  1.00  0.00     0.078 C 
HETATM    2  C   UNL     1      42.624 -14.207   4.913  1.00  0.00     0.167 C 
HETATM    3  N   UNL     1      42.402 -13.087   5.862  1.00  0.00    -0.318 N 
HETATM    4  C   UNL     1      43.070 -12.618   6.868  1.00  0.00     0.011 C 
HETATM    5  C   UNL     1      41.048 -12.359   5.691  1.00  0.00     0.170 C 
HETATM    6  S   UNL     1      40.793 -11.162   6.914  1.00  0.00    -0.086 SA
HETATM    7  C   UNL     1      42.459 -11.421   7.565  1.00  0.00     0.135 C 
HETATM    8  N   UNL     1      40.184 -12.589   4.770  1.00  0.00    -0.219 NA
HETATM    9  C   UNL     1      40.489 -13.490   3.760  1.00  0.00     0.157 C 
ENDROOT
BRANCH   4  10
HETATM   10  C   UNL     1      44.357 -13.219   7.358  1.00  0.00     0.156 C 
BRANCH  10  11
HETATM   11  C   UNL     1      44.994 -12.552   8.554  1.00  0.00     0.223 C 
HETATM   12  N   UNL     1      44.345 -12.794   9.739  1.00  0.00    -0.359 N 
HETATM   13  H   UNL     1      43.455 -13.290   9.705  1.00  0.00     0.162 HD
HETATM   14  O   UNL     1      46.032 -11.899   8.480  1.00  0.00    -0.273 OA
BRANCH  12  15
HETATM   15  C   UNL     1      44.624 -12.110  11.003  1.00  0.00     0.150 C 
BRANCH  15  16
HETATM   16  C   UNL     1      43.447 -12.026  11.999  1.00  0.00     0.253 C 
BRANCH  16  17
HETATM   17  N   UNL     1      42.754 -10.678  11.970  1.00  0.00    -0.077 N 
HETATM   18  H   UNL     1      43.175 -10.134  11.193  1.00  0.00     0.279 HD
HETATM   19  C   UNL     1      41.279 -10.771  11.677  1.00  0.00     0.269 C 
HETATM   20  C   UNL     1      42.986  -9.904  13.241  1.00  0.00     0.269 C 
ENDBRANCH  16  17
ENDBRANCH  15  16
ENDBRANCH  12  15
ENDBRANCH  10  11
ENDBRANCH   4  10
BRANCH   2  21
HETATM   21  C   UNL     1      42.705 -15.532   5.675  1.00  0.00    -0.024 A 
HETATM   22  C   UNL     1      41.562 -16.171   6.213  1.00  0.00    -0.053 A 
HETATM   23  C   UNL     1      40.180 -15.572   6.224  1.00  0.00     0.049 C 
HETATM   24  C   UNL     1      41.712 -17.410   6.860  1.00  0.00     0.008 A 
HETATM   25  C   UNL     1      42.956 -18.027   6.966  1.00  0.00     0.007 A 
HETATM   26  C   UNL     1      44.092 -17.409   6.452  1.00  0.00    -0.061 A 
HETATM   27  C   UNL     1      45.443 -18.045   6.621  1.00  0.00     0.048 C 
HETATM   28  C   UNL     1      43.966 -16.157   5.838  1.00  0.00     0.017 A 
ENDBRANCH   2  21
BRANCH   1  29
HETATM   29  C   UNL     1      42.043 -15.062   2.654  1.00  0.00     0.294 C 
HETATM   30  O   UNL     1      42.883 -14.651   1.870  1.00  0.00    -0.259 OA
BRANCH  29  31
HETATM   31  O   UNL     1      41.437 -16.262   2.675  1.00  0.00    -0.318 OA
BRANCH  31  32
HETATM   32  C   UNL     1      42.160 -17.347   2.064  1.00  0.00     0.174 C 
HETATM   33  C   UNL     1      42.685 -18.300   3.119  1.00  0.00     0.034 C 
ENDBRANCH  31  32
ENDBRANCH  29  31
ENDBRANCH   1  29
BRANCH   9  34
HETATM   34  C   UNL     1      39.526 -13.488   2.552  1.00  0.00     0.435 C 
HETATM   35  F   UNL     1      38.911 -14.687   2.405  1.00  0.00    -0.165 F 
HETATM   36  F   UNL     1      38.542 -12.567   2.699  1.00  0.00    -0.165 F 
HETATM   37  F   UNL     1      40.183 -13.223   1.400  1.00  0.00    -0.165 F 
ENDBRANCH   9  34
TORSDOF 10
ENDMDL
MODEL 9
REMARK VINA RESULT:      -6.4      3.482      6.082
REMARK  10 active torsions:
REMARK  status: ('A' for Active; 'I' for Inactive)
REMARK    1  A    between atoms: C_2  and  O_3 
REMARK    2  A    between atoms: O_3  and  C_4 
REMARK    3  A    between atoms: C_4  and  C_5 
REMARK    4  A    between atoms: C_6  and  C_7 
REMARK    5  A    between atoms: C_16  and  C_17 
REMARK    6  A    between atoms: C_17  and  C_18 
REMARK       I    between atoms: C_18  and  N_19 
REMARK    7  A    between atoms: N_19  and  C_20 
REMARK    8  A    between atoms: C_20  and  C_21 
REMARK    9  A    between atoms: C_21  and  N_22 
REMARK   10  A    between atoms: C_31  and  C_32 
ROOT
HETATM    1  C   UNL     1      40.389 -14.490   1.919  1.00  0.00     0.078 C 
HETATM    2  C   UNL     1      40.335 -13.233   2.739  1.00  0.00     0.167 C 
HETATM    3  N   UNL     1      41.336 -13.216   3.836  1.00  0.00    -0.318 N 
HETATM    4  C   UNL     1      41.566 -12.415   4.828  1.00  0.00     0.011 C 
HETATM    5  C   UNL     1      42.398 -14.338   3.753  1.00  0.00     0.170 C 
HETATM    6  S   UNL     1      43.611 -14.178   4.976  1.00  0.00    -0.086 SA
HETATM    7  C   UNL     1      42.717 -12.802   5.734  1.00  0.00     0.135 C 
HETATM    8  N   UNL     1      42.418 -15.289   2.892  1.00  0.00    -0.219 NA
HETATM    9  C   UNL     1      41.364 -15.423   2.000  1.00  0.00     0.157 C 
ENDROOT
BRANCH   4  10
HETATM   10  C   UNL     1      40.782 -11.158   5.075  1.00  0.00     0.156 C 
BRANCH  10  11
HETATM   11  C   UNL     1      39.752 -11.218   6.179  1.00  0.00     0.223 C 
HETATM   12  N   UNL     1      39.909 -10.252   7.141  1.00  0.00    -0.359 N 
HETATM   13  H   UNL     1      40.742  -9.665   7.099  1.00  0.00     0.162 HD
HETATM   14  O   UNL     1      38.825 -12.024   6.183  1.00  0.00    -0.273 OA
BRANCH  12  15
HETATM   15  C   UNL     1      39.187 -10.211   8.414  1.00  0.00     0.150 C 
BRANCH  15  16
HETATM   16  C   UNL     1      39.751 -11.106   9.538  1.00  0.00     0.253 C 
BRANCH  16  17
HETATM   17  N   UNL     1      40.776 -10.389  10.395  1.00  0.00    -0.077 N 
HETATM   18  H   UNL     1      40.697 -10.777  11.355  1.00  0.00     0.279 HD
HETATM   19  C   UNL     1      42.197 -10.628   9.953  1.00  0.00     0.269 C 
HETATM   20  C   UNL     1      40.497  -8.911  10.481  1.00  0.00     0.269 C 
ENDBRANCH  16  17
ENDBRANCH  15  16
ENDBRANCH  12  15
ENDBRANCH  10  11
ENDBRANCH   4  10
BRANCH   2  21
HETATM   21  C   UNL     1      40.471 -11.968   1.887  1.00  0.00    -0.024 A 
HETATM   22  C   UNL     1      39.473 -10.964   1.852  1.00  0.00    -0.053 A 
HETATM   23  C   UNL     1      38.128 -11.079   2.521  1.00  0.00     0.049 C 
HETATM   24  C   UNL     1      39.691  -9.810   1.080  1.00  0.00     0.008 A 
HETATM   25  C   UNL     1      40.873  -9.627   0.367  1.00  0.00     0.007 A 
HETATM   26  C   UNL     1      41.861 -10.607   0.382  1.00  0.00    -0.061 A 
HETATM   27  C   UNL     1      43.109 -10.437  -0.438  1.00  0.00     0.048 C 
HETATM   28  C   UNL     1      41.644 -11.780   1.114  1.00  0.00     0.017 A 
ENDBRANCH   2  21
BRANCH   1  29
HETATM   29  C   UNL     1      39.171 -14.706   1.112  1.00  0.00     0.294 C 
HETATM   30  O   UNL     1      38.159 -15.164   1.618  1.00  0.00    -0.259 OA
BRANCH  29  31
HETATM   31  O   UNL     1      39.355 -14.279  -0.149  1.00  0.00    -0.318 OA
BRANCH  31  32
HETATM   32  C   UNL     1      38.301 -13.469  -0.702  1.00  0.00     0.174 C 
HETATM   33  C   UNL     1      38.875 -12.372  -1.577  1.00  0.00     0.034 C 
ENDBRANCH  31  32
ENDBRANCH  29  31
ENDBRANCH   1  29
BRANCH   9  34
HETATM   34  C   UNL     1      41.327 -16.747   1.205  1.00  0.00     0.435 C 
HETATM   35  F   UNL     1      40.213 -17.465   1.488  1.00  0.00    -0.165 F 
HETATM   36  F   UNL     1      41.312 -16.526  -0.133  1.00  0.00    -0.165 F 
HETATM   37  F   UNL     1      42.396 -17.523   1.492  1.00  0.00    -0.165 F 
ENDBRANCH   9  34
TORSDOF 10
ENDMDL
MODEL 10
REMARK VINA RESULT:      -6.3      2.556      4.666
REMARK  10 active torsions:
REMARK  status: ('A' for Active; 'I' for Inactive)
REMARK    1  A    between atoms: C_2  and  O_3 
REMARK    2  A    between atoms: O_3  and  C_4 
REMARK    3  A    between atoms: C_4  and  C_5 
REMARK    4  A    between atoms: C_6  and  C_7 
REMARK    5  A    between atoms: C_16  and  C_17 
REMARK    6  A    between atoms: C_17  and  C_18 
REMARK       I    between atoms: C_18  and  N_19 
REMARK    7  A    between atoms: N_19  and  C_20 
REMARK    8  A    between atoms: C_20  and  C_21 
REMARK    9  A    between atoms: C_21  and  N_22 
REMARK   10  A    between atoms: C_31  and  C_32 
ROOT
HETATM    1  C   UNL     1      41.553 -11.080  -0.286  1.00  0.00     0.078 C 
HETATM    2  C   UNL     1      40.952 -12.445  -0.113  1.00  0.00     0.167 C 
HETATM    3  N   UNL     1      40.462 -12.690   1.267  1.00  0.00    -0.318 N 
HETATM    4  C   UNL     1      39.992 -13.729   1.881  1.00  0.00     0.011 C 
HETATM    5  C   UNL     1      40.412 -11.429   2.163  1.00  0.00     0.170 C 
HETATM    6  S   UNL     1      39.702 -11.756   3.707  1.00  0.00    -0.086 SA
HETATM    7  C   UNL     1      39.616 -13.522   3.333  1.00  0.00     0.135 C 
HETATM    8  N   UNL     1      40.829 -10.260   1.837  1.00  0.00    -0.219 NA
HETATM    9  C   UNL     1      41.479 -10.082   0.624  1.00  0.00     0.157 C 
ENDROOT
BRANCH   4  10
HETATM   10  C   UNL     1      39.790 -15.061   1.217  1.00  0.00     0.156 C 
BRANCH  10  11
HETATM   11  C   UNL     1      40.756 -16.156   1.605  1.00  0.00     0.223 C 
HETATM   12  N   UNL     1      41.913 -16.166   0.867  1.00  0.00    -0.359 N 
HETATM   13  H   UNL     1      41.979 -15.533   0.071  1.00  0.00     0.162 HD
HETATM   14  O   UNL     1      40.547 -16.930   2.535  1.00  0.00    -0.273 OA
BRANCH  12  15
HETATM   15  C   UNL     1      42.914 -17.234   0.893  1.00  0.00     0.150 C 
BRANCH  15  16
HETATM   16  C   UNL     1      43.955 -17.155   2.030  1.00  0.00     0.253 C 
BRANCH  16  17
HETATM   17  N   UNL     1      43.995 -18.413   2.874  1.00  0.00    -0.077 N 
HETATM   18  H   UNL     1      44.994 -18.654   3.019  1.00  0.00     0.279 HD
HETATM   19  C   UNL     1      43.395 -18.233   4.245  1.00  0.00     0.269 C 
HETATM   20  C   UNL     1      43.348 -19.578   2.171  1.00  0.00     0.269 C 
ENDBRANCH  16  17
ENDBRANCH  15  16
ENDBRANCH  12  15
ENDBRANCH  10  11
ENDBRANCH   4  10
BRANCH   2  21
HETATM   21  C   UNL     1      39.836 -12.728  -1.123  1.00  0.00    -0.024 A 
HETATM   22  C   UNL     1      39.918 -13.774  -2.074  1.00  0.00    -0.053 A 
HETATM   23  C   UNL     1      41.141 -14.626  -2.296  1.00  0.00     0.049 C 
HETATM   24  C   UNL     1      38.833 -14.000  -2.937  1.00  0.00     0.008 A 
HETATM   25  C   UNL     1      37.675 -13.229  -2.864  1.00  0.00     0.007 A 
HETATM   26  C   UNL     1      37.580 -12.190  -1.942  1.00  0.00    -0.061 A 
HETATM   27  C   UNL     1      36.356 -11.320  -1.906  1.00  0.00     0.048 C 
HETATM   28  C   UNL     1      38.667 -11.927  -1.101  1.00  0.00     0.017 A 
ENDBRANCH   2  21
BRANCH   1  29
HETATM   29  C   UNL     1      42.396 -10.968  -1.494  1.00  0.00     0.294 C 
HETATM   30  O   UNL     1      43.517 -11.449  -1.522  1.00  0.00    -0.259 OA
BRANCH  29  31
HETATM   31  O   UNL     1      41.726 -10.353  -2.484  1.00  0.00    -0.318 OA
BRANCH  31  32
HETATM   32  C   UNL     1      41.877 -10.921  -3.798  1.00  0.00     0.174 C 
HETATM   33  C   UNL     1      40.528 -11.077  -4.470  1.00  0.00     0.034 C 
ENDBRANCH  31  32
ENDBRANCH  29  31
ENDBRANCH   1  29
BRANCH   9  34
HETATM   34  C   UNL     1      42.195  -8.726   0.444  1.00  0.00     0.435 C 
HETATM   35  F   UNL     1      42.172  -7.997   1.586  1.00  0.00    -0.165 F 
HETATM   36  F   UNL     1      43.502  -8.890   0.120  1.00  0.00    -0.165 F 
HETATM   37  F   UNL     1      41.610  -7.985  -0.524  1.00  0.00    -0.165 F 
ENDBRANCH   9  34
TORSDOF 10
ENDMDL
