MODEL 1
REMARK VINA RESULT:      -9.2      0.000      0.000
REMARK  5 active torsions:
REMARK  status: ('A' for Active; 'I' for Inactive)
REMARK    1  A    between atoms: C_12  and  C_13 
REMARK    2  A    between atoms: C_13  and  N_14 
REMARK    3  A    between atoms: N_14  and  C_15 
REMARK    4  A    between atoms: C_17  and  O_18 
REMARK    5  A    between atoms: C_19  and  O_20 
ROOT
HETATM    1  C   UNL     1      44.338 -21.899   1.739  1.00  0.00     0.048 C 
HETATM    2  C   UNL     1      44.243 -20.647   2.560  1.00  0.00    -0.059 A 
HETATM    3  C   UNL     1      44.375 -20.690   3.950  1.00  0.00     0.037 A 
HETATM    4  C   UNL     1      44.258 -19.516   4.696  1.00  0.00     0.046 A 
HETATM    5  C   UNL     1      44.002 -18.280   4.079  1.00  0.00    -0.003 A 
HETATM    6  C   UNL     1      43.872 -18.228   2.678  1.00  0.00    -0.049 A 
HETATM    7  C   UNL     1      43.600 -16.943   1.944  1.00  0.00     0.049 C 
HETATM    8  C   UNL     1      43.989 -19.419   1.937  1.00  0.00     0.014 A 
HETATM    9  N   UNL     1      44.402 -19.577   6.087  1.00  0.00    -0.322 N 
HETATM   10  C   UNL     1      44.315 -18.492   6.915  1.00  0.00     0.253 A 
HETATM   11  O   UNL     1      44.478 -18.604   8.125  1.00  0.00    -0.268 OA
HETATM   12  C   UNL     1      44.016 -17.180   6.279  1.00  0.00     0.024 A 
HETATM   13  C   UNL     1      43.869 -17.100   4.944  1.00  0.00     0.028 A 
HETATM   14  H   UNL     1      44.600 -20.460   6.539  1.00  0.00     0.169 HD
ENDROOT
BRANCH  12  15
HETATM   15  C   UNL     1      43.829 -16.009   7.199  1.00  0.00     0.136 C 
BRANCH  15  16
HETATM   16  N   UNL     1      44.405 -14.822   6.572  1.00  0.00    -0.288 NA
HETATM   17  H   UNL     1      45.114 -15.076   5.886  1.00  0.00     0.128 HD
BRANCH  16  18
HETATM   18  C   UNL     1      44.863 -13.771   7.383  1.00  0.00     0.011 A 
HETATM   19  C   UNL     1      46.150 -13.262   7.135  1.00  0.00     0.062 A 
HETATM   20  C   UNL     1      46.632 -12.176   7.861  1.00  0.00     0.100 A 
HETATM   21  C   UNL     1      45.837 -11.565   8.822  1.00  0.00     0.098 A 
HETATM   22  C   UNL     1      44.551 -12.018   9.059  1.00  0.00     0.041 A 
HETATM   23  C   UNL     1      44.062 -13.108   8.327  1.00  0.00     0.026 A 
BRANCH  20  24
HETATM   24  O   UNL     1      47.886 -11.666   7.657  1.00  0.00    -0.358 OA
HETATM   25  H   UNL     1      48.530 -12.316   7.989  1.00  0.00     0.218 HD
ENDBRANCH  20  24
BRANCH  21  26
HETATM   26  O   UNL     1      46.314 -10.502   9.532  1.00  0.00    -0.358 OA
HETATM   27  H   UNL     1      46.506 -10.868  10.418  1.00  0.00     0.218 HD
ENDBRANCH  21  26
ENDBRANCH  16  18
ENDBRANCH  15  16
ENDBRANCH  12  15
TORSDOF 5
ENDMDL
MODEL 2
REMARK VINA RESULT:      -8.5      3.402      3.908
REMARK  5 active torsions:
REMARK  status: ('A' for Active; 'I' for Inactive)
REMARK    1  A    between atoms: C_12  and  C_13 
REMARK    2  A    between atoms: C_13  and  N_14 
REMARK    3  A    between atoms: N_14  and  C_15 
REMARK    4  A    between atoms: C_17  and  O_18 
REMARK    5  A    between atoms: C_19  and  O_20 
ROOT
HETATM    1  C   UNL     1      44.346 -22.225   1.532  1.00  0.00     0.048 C 
HETATM    2  C   UNL     1      44.075 -20.950   2.274  1.00  0.00    -0.059 A 
HETATM    3  C   UNL     1      44.638 -20.718   3.531  1.00  0.00     0.037 A 
HETATM    4  C   UNL     1      44.351 -19.535   4.214  1.00  0.00     0.046 A 
HETATM    5  C   UNL     1      43.495 -18.564   3.667  1.00  0.00    -0.003 A 
HETATM    6  C   UNL     1      42.926 -18.788   2.399  1.00  0.00    -0.049 A 
HETATM    7  C   UNL     1      42.004 -17.796   1.746  1.00  0.00     0.049 C 
HETATM    8  C   UNL     1      43.221 -19.986   1.721  1.00  0.00     0.014 A 
HETATM    9  N   UNL     1      44.931 -19.317   5.469  1.00  0.00    -0.322 N 
HETATM   10  C   UNL     1      44.727 -18.194   6.222  1.00  0.00     0.253 A 
HETATM   11  O   UNL     1      45.287 -18.046   7.304  1.00  0.00    -0.268 OA
HETATM   12  C   UNL     1      43.802 -17.168   5.669  1.00  0.00     0.024 A 
HETATM   13  C   UNL     1      43.228 -17.361   4.467  1.00  0.00     0.028 A 
HETATM   14  H   UNL     1      45.559 -20.003   5.865  1.00  0.00     0.169 HD
ENDROOT
BRANCH  12  15
HETATM   15  C   UNL     1      43.508 -15.982   6.540  1.00  0.00     0.136 C 
BRANCH  15  16
HETATM   16  N   UNL     1      43.856 -14.765   5.809  1.00  0.00    -0.288 NA
HETATM   17  H   UNL     1      44.324 -14.093   6.416  1.00  0.00     0.128 HD
BRANCH  16  18
HETATM   18  C   UNL     1      42.874 -14.124   5.037  1.00  0.00     0.011 A 
HETATM   19  C   UNL     1      43.258 -13.593   3.793  1.00  0.00     0.062 A 
HETATM   20  C   UNL     1      42.315 -13.007   2.953  1.00  0.00     0.100 A 
HETATM   21  C   UNL     1      40.977 -12.963   3.323  1.00  0.00     0.098 A 
HETATM   22  C   UNL     1      40.563 -13.514   4.522  1.00  0.00     0.041 A 
HETATM   23  C   UNL     1      41.508 -14.109   5.367  1.00  0.00     0.026 A 
BRANCH  20  24
HETATM   24  O   UNL     1      42.658 -12.465   1.743  1.00  0.00    -0.358 OA
HETATM   25  H   UNL     1      42.080 -12.857   1.066  1.00  0.00     0.218 HD
ENDBRANCH  20  24
BRANCH  21  26
HETATM   26  O   UNL     1      40.056 -12.387   2.496  1.00  0.00    -0.358 OA
HETATM   27  H   UNL     1      39.210 -12.808   2.746  1.00  0.00     0.218 HD
ENDBRANCH  21  26
ENDBRANCH  16  18
ENDBRANCH  15  16
ENDBRANCH  12  15
TORSDOF 5
ENDMDL
MODEL 3
REMARK VINA RESULT:      -8.2      3.473      3.999
REMARK  5 active torsions:
REMARK  status: ('A' for Active; 'I' for Inactive)
REMARK    1  A    between atoms: C_12  and  C_13 
REMARK    2  A    between atoms: C_13  and  N_14 
REMARK    3  A    between atoms: N_14  and  C_15 
REMARK    4  A    between atoms: C_17  and  O_18 
REMARK    5  A    between atoms: C_19  and  O_20 
ROOT
HETATM    1  C   UNL     1      44.553 -22.182   1.799  1.00  0.00     0.048 C 
HETATM    2  C   UNL     1      44.200 -20.895   2.484  1.00  0.00    -0.059 A 
HETATM    3  C   UNL     1      44.605 -20.646   3.797  1.00  0.00     0.037 A 
HETATM    4  C   UNL     1      44.243 -19.452   4.422  1.00  0.00     0.046 A 
HETATM    5  C   UNL     1      43.466 -18.486   3.760  1.00  0.00    -0.003 A 
HETATM    6  C   UNL     1      43.056 -18.728   2.436  1.00  0.00    -0.049 A 
HETATM    7  C   UNL     1      42.226 -17.742   1.660  1.00  0.00     0.049 C 
HETATM    8  C   UNL     1      43.425 -19.936   1.817  1.00  0.00     0.014 A 
HETATM    9  N   UNL     1      44.667 -19.217   5.736  1.00  0.00    -0.322 N 
HETATM   10  C   UNL     1      44.377 -18.082   6.442  1.00  0.00     0.253 A 
HETATM   11  O   UNL     1      44.801 -17.920   7.582  1.00  0.00    -0.268 OA
HETATM   12  C   UNL     1      43.532 -17.062   5.764  1.00  0.00     0.024 A 
HETATM   13  C   UNL     1      43.109 -17.271   4.504  1.00  0.00     0.028 A 
HETATM   14  H   UNL     1      45.237 -19.900   6.216  1.00  0.00     0.169 HD
ENDROOT
BRANCH  12  15
HETATM   15  C   UNL     1      43.140 -15.861   6.576  1.00  0.00     0.136 C 
BRANCH  15  16
HETATM   16  N   UNL     1      41.738 -15.550   6.307  1.00  0.00    -0.288 NA
HETATM   17  H   UNL     1      41.269 -16.331   5.851  1.00  0.00     0.128 HD
BRANCH  16  18
HETATM   18  C   UNL     1      41.413 -14.343   5.666  1.00  0.00     0.011 A 
HETATM   19  C   UNL     1      40.151 -13.781   5.922  1.00  0.00     0.062 A 
HETATM   20  C   UNL     1      39.798 -12.552   5.370  1.00  0.00     0.100 A 
HETATM   21  C   UNL     1      40.702 -11.855   4.577  1.00  0.00     0.098 A 
HETATM   22  C   UNL     1      41.966 -12.364   4.341  1.00  0.00     0.041 A 
HETATM   23  C   UNL     1      42.325 -13.597   4.900  1.00  0.00     0.026 A 
BRANCH  20  24
HETATM   24  O   UNL     1      38.572 -11.985   5.585  1.00  0.00    -0.358 OA
HETATM   25  H   UNL     1      38.399 -12.002   6.543  1.00  0.00     0.218 HD
ENDBRANCH  20  24
BRANCH  21  26
HETATM   26  O   UNL     1      40.352 -10.651   4.037  1.00  0.00    -0.358 OA
HETATM   27  H   UNL     1      40.015 -10.134   4.795  1.00  0.00     0.218 HD
ENDBRANCH  21  26
ENDBRANCH  16  18
ENDBRANCH  15  16
ENDBRANCH  12  15
TORSDOF 5
ENDMDL
MODEL 4
REMARK VINA RESULT:      -8.2      5.751      8.391
REMARK  5 active torsions:
REMARK  status: ('A' for Active; 'I' for Inactive)
REMARK    1  A    between atoms: C_12  and  C_13 
REMARK    2  A    between atoms: C_13  and  N_14 
REMARK    3  A    between atoms: N_14  and  C_15 
REMARK    4  A    between atoms: C_17  and  O_18 
REMARK    5  A    between atoms: C_19  and  O_20 
ROOT
HETATM    1  C   UNL     1      43.962 -19.130   7.662  1.00  0.00     0.048 C 
HETATM    2  C   UNL     1      43.660 -18.875   6.215  1.00  0.00    -0.059 A 
HETATM    3  C   UNL     1      42.740 -17.894   5.836  1.00  0.00     0.037 A 
HETATM    4  C   UNL     1      42.456 -17.692   4.485  1.00  0.00     0.046 A 
HETATM    5  C   UNL     1      43.073 -18.462   3.485  1.00  0.00    -0.003 A 
HETATM    6  C   UNL     1      44.003 -19.450   3.857  1.00  0.00    -0.049 A 
HETATM    7  C   UNL     1      44.707 -20.313   2.846  1.00  0.00     0.049 C 
HETATM    8  C   UNL     1      44.280 -19.647   5.224  1.00  0.00     0.014 A 
HETATM    9  N   UNL     1      41.538 -16.698   4.125  1.00  0.00    -0.322 N 
HETATM   10  C   UNL     1      41.190 -16.408   2.835  1.00  0.00     0.253 A 
HETATM   11  O   UNL     1      40.400 -15.505   2.579  1.00  0.00    -0.268 OA
HETATM   12  C   UNL     1      41.814 -17.234   1.766  1.00  0.00     0.024 A 
HETATM   13  C   UNL     1      42.695 -18.198   2.090  1.00  0.00     0.028 A 
HETATM   14  H   UNL     1      41.099 -16.129   4.837  1.00  0.00     0.169 HD
ENDROOT
BRANCH  12  15
HETATM   15  C   UNL     1      41.359 -16.974   0.359  1.00  0.00     0.136 C 
BRANCH  15  16
HETATM   16  N   UNL     1      41.903 -15.691  -0.082  1.00  0.00    -0.288 NA
HETATM   17  H   UNL     1      42.159 -15.108   0.714  1.00  0.00     0.128 HD
BRANCH  16  18
HETATM   18  C   UNL     1      41.198 -14.938  -1.034  1.00  0.00     0.011 A 
HETATM   19  C   UNL     1      40.858 -15.563  -2.247  1.00  0.00     0.062 A 
HETATM   20  C   UNL     1      40.100 -14.889  -3.202  1.00  0.00     0.100 A 
HETATM   21  C   UNL     1      39.651 -13.598  -2.956  1.00  0.00     0.098 A 
HETATM   22  C   UNL     1      39.936 -12.972  -1.756  1.00  0.00     0.041 A 
HETATM   23  C   UNL     1      40.693 -13.650  -0.792  1.00  0.00     0.026 A 
BRANCH  20  24
HETATM   24  O   UNL     1      39.765 -15.462  -4.398  1.00  0.00    -0.358 OA
HETATM   25  H   UNL     1      40.589 -15.734  -4.840  1.00  0.00     0.218 HD
ENDBRANCH  20  24
BRANCH  21  26
HETATM   26  O   UNL     1      38.910 -12.940  -3.895  1.00  0.00    -0.358 OA
HETATM   27  H   UNL     1      39.566 -12.643  -4.557  1.00  0.00     0.218 HD
ENDBRANCH  21  26
ENDBRANCH  16  18
ENDBRANCH  15  16
ENDBRANCH  12  15
TORSDOF 5
ENDMDL
MODEL 5
REMARK VINA RESULT:      -8.2      4.536      5.162
REMARK  5 active torsions:
REMARK  status: ('A' for Active; 'I' for Inactive)
REMARK    1  A    between atoms: C_12  and  C_13 
REMARK    2  A    between atoms: C_13  and  N_14 
REMARK    3  A    between atoms: N_14  and  C_15 
REMARK    4  A    between atoms: C_17  and  O_18 
REMARK    5  A    between atoms: C_19  and  O_20 
ROOT
HETATM    1  C   UNL     1      44.470 -22.103   2.058  1.00  0.00     0.048 C 
HETATM    2  C   UNL     1      44.132 -20.728   2.553  1.00  0.00    -0.059 A 
HETATM    3  C   UNL     1      43.372 -19.852   1.776  1.00  0.00     0.037 A 
HETATM    4  C   UNL     1      43.091 -18.568   2.246  1.00  0.00     0.046 A 
HETATM    5  C   UNL     1      43.565 -18.127   3.493  1.00  0.00    -0.003 A 
HETATM    6  C   UNL     1      44.329 -19.005   4.285  1.00  0.00    -0.049 A 
HETATM    7  C   UNL     1      44.868 -18.607   5.632  1.00  0.00     0.049 C 
HETATM    8  C   UNL     1      44.607 -20.295   3.799  1.00  0.00     0.014 A 
HETATM    9  N   UNL     1      42.320 -17.707   1.456  1.00  0.00    -0.322 N 
HETATM   10  C   UNL     1      41.978 -16.434   1.819  1.00  0.00     0.253 A 
HETATM   11  O   UNL     1      41.275 -15.736   1.096  1.00  0.00    -0.268 OA
HETATM   12  C   UNL     1      42.496 -15.943   3.125  1.00  0.00     0.024 A 
HETATM   13  C   UNL     1      43.243 -16.752   3.898  1.00  0.00     0.028 A 
HETATM   14  H   UNL     1      41.964 -18.020   0.563  1.00  0.00     0.169 HD
ENDROOT
BRANCH  12  15
HETATM   15  C   UNL     1      42.196 -14.514   3.477  1.00  0.00     0.136 C 
BRANCH  15  16
HETATM   16  N   UNL     1      40.757 -14.375   3.688  1.00  0.00    -0.288 NA
HETATM   17  H   UNL     1      40.250 -14.419   2.805  1.00  0.00     0.128 HD
BRANCH  16  18
HETATM   18  C   UNL     1      40.278 -13.314   4.474  1.00  0.00     0.011 A 
HETATM   19  C   UNL     1      39.908 -13.593   5.801  1.00  0.00     0.062 A 
HETATM   20  C   UNL     1      39.491 -12.570   6.649  1.00  0.00     0.100 A 
HETATM   21  C   UNL     1      39.460 -11.255   6.199  1.00  0.00     0.098 A 
HETATM   22  C   UNL     1      39.857 -10.945   4.912  1.00  0.00     0.041 A 
HETATM   23  C   UNL     1      40.282 -11.972   4.058  1.00  0.00     0.026 A 
BRANCH  20  24
HETATM   24  O   UNL     1      39.109 -12.809   7.941  1.00  0.00    -0.358 OA
HETATM   25  H   UNL     1      38.138 -12.871   7.958  1.00  0.00     0.218 HD
ENDBRANCH  20  24
BRANCH  21  26
HETATM   26  O   UNL     1      39.049 -10.256   7.033  1.00  0.00    -0.358 OA
HETATM   27  H   UNL     1      39.756 -10.196   7.706  1.00  0.00     0.218 HD
ENDBRANCH  21  26
ENDBRANCH  16  18
ENDBRANCH  15  16
ENDBRANCH  12  15
TORSDOF 5
ENDMDL
MODEL 6
REMARK VINA RESULT:      -8.2      5.492      8.280
REMARK  5 active torsions:
REMARK  status: ('A' for Active; 'I' for Inactive)
REMARK    1  A    between atoms: C_12  and  C_13 
REMARK    2  A    between atoms: C_13  and  N_14 
REMARK    3  A    between atoms: N_14  and  C_15 
REMARK    4  A    between atoms: C_17  and  O_18 
REMARK    5  A    between atoms: C_19  and  O_20 
ROOT
HETATM    1  C   UNL     1      37.075 -13.031   0.607  1.00  0.00     0.048 C 
HETATM    2  C   UNL     1      38.369 -13.791   0.630  1.00  0.00    -0.059 A 
HETATM    3  C   UNL     1      38.690 -14.628   1.700  1.00  0.00     0.037 A 
HETATM    4  C   UNL     1      39.910 -15.305   1.712  1.00  0.00     0.046 A 
HETATM    5  C   UNL     1      40.837 -15.159   0.666  1.00  0.00    -0.003 A 
HETATM    6  C   UNL     1      40.520 -14.321  -0.419  1.00  0.00    -0.049 A 
HETATM    7  C   UNL     1      41.457 -14.116  -1.577  1.00  0.00     0.049 C 
HETATM    8  C   UNL     1      39.287 -13.641  -0.418  1.00  0.00     0.014 A 
HETATM    9  N   UNL     1      40.211 -16.146   2.790  1.00  0.00    -0.322 N 
HETATM   10  C   UNL     1      41.370 -16.862   2.902  1.00  0.00     0.253 A 
HETATM   11  O   UNL     1      41.566 -17.606   3.858  1.00  0.00    -0.268 OA
HETATM   12  C   UNL     1      42.374 -16.698   1.815  1.00  0.00     0.024 A 
HETATM   13  C   UNL     1      42.107 -15.890   0.773  1.00  0.00     0.028 A 
HETATM   14  H   UNL     1      39.545 -16.267   3.541  1.00  0.00     0.169 HD
ENDROOT
BRANCH  12  15
HETATM   15  C   UNL     1      43.682 -17.413   1.989  1.00  0.00     0.136 C 
BRANCH  15  16
HETATM   16  N   UNL     1      43.556 -18.762   1.441  1.00  0.00    -0.288 NA
HETATM   17  H   UNL     1      42.620 -18.923   1.071  1.00  0.00     0.128 HD
BRANCH  16  18
HETATM   18  C   UNL     1      43.971 -19.859   2.214  1.00  0.00     0.011 A 
HETATM   19  C   UNL     1      44.219 -19.644   3.581  1.00  0.00     0.062 A 
HETATM   20  C   UNL     1      44.567 -20.705   4.412  1.00  0.00     0.100 A 
HETATM   21  C   UNL     1      44.648 -21.996   3.904  1.00  0.00     0.098 A 
HETATM   22  C   UNL     1      44.369 -22.244   2.573  1.00  0.00     0.041 A 
HETATM   23  C   UNL     1      44.014 -21.179   1.735  1.00  0.00     0.026 A 
BRANCH  20  24
HETATM   24  O   UNL     1      44.831 -20.528   5.743  1.00  0.00    -0.358 OA
HETATM   25  H   UNL     1      45.056 -21.396   6.121  1.00  0.00     0.218 HD
ENDBRANCH  20  24
BRANCH  21  26
HETATM   26  O   UNL     1      44.990 -23.034   4.722  1.00  0.00    -0.358 OA
HETATM   27  H   UNL     1      44.285 -23.696   4.580  1.00  0.00     0.218 HD
ENDBRANCH  21  26
ENDBRANCH  16  18
ENDBRANCH  15  16
ENDBRANCH  12  15
TORSDOF 5
ENDMDL
MODEL 7
REMARK VINA RESULT:      -8.1      4.356      6.314
REMARK  5 active torsions:
REMARK  status: ('A' for Active; 'I' for Inactive)
REMARK    1  A    between atoms: C_12  and  C_13 
REMARK    2  A    between atoms: C_13  and  N_14 
REMARK    3  A    between atoms: N_14  and  C_15 
REMARK    4  A    between atoms: C_17  and  O_18 
REMARK    5  A    between atoms: C_19  and  O_20 
ROOT
HETATM    1  C   UNL     1      45.386 -22.553   5.149  1.00  0.00     0.048 C 
HETATM    2  C   UNL     1      44.730 -21.260   4.762  1.00  0.00    -0.059 A 
HETATM    3  C   UNL     1      44.246 -20.382   5.734  1.00  0.00     0.037 A 
HETATM    4  C   UNL     1      43.617 -19.197   5.349  1.00  0.00     0.046 A 
HETATM    5  C   UNL     1      43.451 -18.864   3.994  1.00  0.00    -0.003 A 
HETATM    6  C   UNL     1      43.940 -19.741   3.008  1.00  0.00    -0.049 A 
HETATM    7  C   UNL     1      43.803 -19.454   1.538  1.00  0.00     0.049 C 
HETATM    8  C   UNL     1      44.569 -20.935   3.408  1.00  0.00     0.014 A 
HETATM    9  N   UNL     1      43.145 -18.326   6.339  1.00  0.00    -0.322 N 
HETATM   10  C   UNL     1      42.522 -17.137   6.078  1.00  0.00     0.253 A 
HETATM   11  O   UNL     1      42.155 -16.401   6.988  1.00  0.00    -0.268 OA
HETATM   12  C   UNL     1      42.314 -16.783   4.647  1.00  0.00     0.024 A 
HETATM   13  C   UNL     1      42.754 -17.609   3.681  1.00  0.00     0.028 A 
HETATM   14  H   UNL     1      43.272 -18.551   7.316  1.00  0.00     0.169 HD
ENDROOT
BRANCH  12  15
HETATM   15  C   UNL     1      41.547 -15.523   4.367  1.00  0.00     0.136 C 
BRANCH  15  16
HETATM   16  N   UNL     1      40.333 -15.866   3.630  1.00  0.00    -0.288 NA
HETATM   17  H   UNL     1      40.215 -16.876   3.566  1.00  0.00     0.128 HD
BRANCH  16  18
HETATM   18  C   UNL     1      40.096 -15.267   2.382  1.00  0.00     0.011 A 
HETATM   19  C   UNL     1      41.134 -15.286   1.435  1.00  0.00     0.062 A 
HETATM   20  C   UNL     1      40.935 -14.768   0.157  1.00  0.00     0.100 A 
HETATM   21  C   UNL     1      39.699 -14.248  -0.204  1.00  0.00     0.098 A 
HETATM   22  C   UNL     1      38.647 -14.253   0.694  1.00  0.00     0.041 A 
HETATM   23  C   UNL     1      38.842 -14.778   1.978  1.00  0.00     0.026 A 
BRANCH  20  24
HETATM   24  O   UNL     1      41.929 -14.756  -0.783  1.00  0.00    -0.358 OA
HETATM   25  H   UNL     1      41.990 -13.854  -1.142  1.00  0.00     0.218 HD
ENDBRANCH  20  24
BRANCH  21  26
HETATM   26  O   UNL     1      39.508 -13.741  -1.457  1.00  0.00    -0.358 OA
HETATM   27  H   UNL     1      38.553 -13.539  -1.494  1.00  0.00     0.218 HD
ENDBRANCH  21  26
ENDBRANCH  16  18
ENDBRANCH  15  16
ENDBRANCH  12  15
TORSDOF 5
ENDMDL
MODEL 8
REMARK VINA RESULT:      -8.1      3.852      5.096
REMARK  5 active torsions:
REMARK  status: ('A' for Active; 'I' for Inactive)
REMARK    1  A    between atoms: C_12  and  C_13 
REMARK    2  A    between atoms: C_13  and  N_14 
REMARK    3  A    between atoms: N_14  and  C_15 
REMARK    4  A    between atoms: C_17  and  O_18 
REMARK    5  A    between atoms: C_19  and  O_20 
ROOT
HETATM    1  C   UNL     1      44.797 -22.851   4.407  1.00  0.00     0.048 C 
HETATM    2  C   UNL     1      44.523 -21.378   4.491  1.00  0.00    -0.059 A 
HETATM    3  C   UNL     1      44.304 -20.758   5.722  1.00  0.00     0.037 A 
HETATM    4  C   UNL     1      44.026 -19.391   5.773  1.00  0.00     0.046 A 
HETATM    5  C   UNL     1      43.953 -18.616   4.604  1.00  0.00    -0.003 A 
HETATM    6  C   UNL     1      44.177 -19.232   3.359  1.00  0.00    -0.049 A 
HETATM    7  C   UNL     1      44.120 -18.469   2.064  1.00  0.00     0.049 C 
HETATM    8  C   UNL     1      44.454 -20.611   3.320  1.00  0.00     0.014 A 
HETATM    9  N   UNL     1      43.817 -18.786   7.019  1.00  0.00    -0.322 N 
HETATM   10  C   UNL     1      43.545 -17.457   7.188  1.00  0.00     0.253 A 
HETATM   11  O   UNL     1      43.399 -16.977   8.308  1.00  0.00    -0.268 OA
HETATM   12  C   UNL     1      43.438 -16.627   5.957  1.00  0.00     0.024 A 
HETATM   13  C   UNL     1      43.630 -17.190   4.750  1.00  0.00     0.028 A 
HETATM   14  H   UNL     1      43.880 -19.333   7.866  1.00  0.00     0.169 HD
ENDROOT
BRANCH  12  15
HETATM   15  C   UNL     1      43.049 -15.189   6.142  1.00  0.00     0.136 C 
BRANCH  15  16
HETATM   16  N   UNL     1      41.590 -15.094   6.142  1.00  0.00    -0.288 NA
HETATM   17  H   UNL     1      41.164 -15.976   6.423  1.00  0.00     0.128 HD
BRANCH  16  18
HETATM   18  C   UNL     1      40.937 -14.573   5.013  1.00  0.00     0.011 A 
HETATM   19  C   UNL     1      40.472 -15.480   4.045  1.00  0.00     0.062 A 
HETATM   20  C   UNL     1      39.757 -15.029   2.939  1.00  0.00     0.100 A 
HETATM   21  C   UNL     1      39.472 -13.677   2.791  1.00  0.00     0.098 A 
HETATM   22  C   UNL     1      39.881 -12.767   3.748  1.00  0.00     0.041 A 
HETATM   23  C   UNL     1      40.596 -13.218   4.865  1.00  0.00     0.026 A 
BRANCH  20  24
HETATM   24  O   UNL     1      39.305 -15.883   1.970  1.00  0.00    -0.358 OA
HETATM   25  H   UNL     1      39.585 -15.531   1.107  1.00  0.00     0.218 HD
ENDBRANCH  20  24
BRANCH  21  26
HETATM   26  O   UNL     1      38.772 -13.239   1.705  1.00  0.00    -0.358 OA
HETATM   27  H   UNL     1      38.811 -12.265   1.768  1.00  0.00     0.218 HD
ENDBRANCH  21  26
ENDBRANCH  16  18
ENDBRANCH  15  16
ENDBRANCH  12  15
TORSDOF 5
ENDMDL
MODEL 9
REMARK VINA RESULT:      -8.1      3.665      7.705
REMARK  5 active torsions:
REMARK  status: ('A' for Active; 'I' for Inactive)
REMARK    1  A    between atoms: C_12  and  C_13 
REMARK    2  A    between atoms: C_13  and  N_14 
REMARK    3  A    between atoms: N_14  and  C_15 
REMARK    4  A    between atoms: C_17  and  O_18 
REMARK    5  A    between atoms: C_19  and  O_20 
ROOT
HETATM    1  C   UNL     1      39.086 -12.477   4.547  1.00  0.00     0.048 C 
HETATM    2  C   UNL     1      40.196 -13.487   4.563  1.00  0.00    -0.059 A 
HETATM    3  C   UNL     1      40.473 -14.231   5.712  1.00  0.00     0.037 A 
HETATM    4  C   UNL     1      41.526 -15.146   5.711  1.00  0.00     0.046 A 
HETATM    5  C   UNL     1      42.329 -15.335   4.574  1.00  0.00    -0.003 A 
HETATM    6  C   UNL     1      42.055 -14.592   3.410  1.00  0.00    -0.049 A 
HETATM    7  C   UNL     1      42.867 -14.741   2.152  1.00  0.00     0.049 C 
HETATM    8  C   UNL     1      40.992 -13.670   3.424  1.00  0.00     0.014 A 
HETATM    9  N   UNL     1      41.783 -15.889   6.870  1.00  0.00    -0.322 N 
HETATM   10  C   UNL     1      42.782 -16.816   6.980  1.00  0.00     0.253 A 
HETATM   11  O   UNL     1      42.940 -17.457   8.013  1.00  0.00    -0.268 OA
HETATM   12  C   UNL     1      43.658 -17.008   5.792  1.00  0.00     0.024 A 
HETATM   13  C   UNL     1      43.433 -16.300   4.670  1.00  0.00     0.028 A 
HETATM   14  H   UNL     1      41.202 -15.769   7.689  1.00  0.00     0.169 HD
ENDROOT
BRANCH  12  15
HETATM   15  C   UNL     1      44.810 -17.958   5.948  1.00  0.00     0.136 C 
BRANCH  15  16
HETATM   16  N   UNL     1      44.298 -19.327   5.909  1.00  0.00    -0.288 NA
HETATM   17  H   UNL     1      44.705 -19.893   6.652  1.00  0.00     0.128 HD
BRANCH  16  18
HETATM   18  C   UNL     1      44.314 -20.030   4.694  1.00  0.00     0.011 A 
HETATM   19  C   UNL     1      44.658 -21.393   4.727  1.00  0.00     0.062 A 
HETATM   20  C   UNL     1      44.625 -22.160   3.565  1.00  0.00     0.100 A 
HETATM   21  C   UNL     1      44.228 -21.591   2.361  1.00  0.00     0.098 A 
HETATM   22  C   UNL     1      43.845 -20.264   2.305  1.00  0.00     0.041 A 
HETATM   23  C   UNL     1      43.872 -19.492   3.474  1.00  0.00     0.026 A 
BRANCH  20  24
HETATM   24  O   UNL     1      44.970 -23.484   3.559  1.00  0.00    -0.358 OA
HETATM   25  H   UNL     1      44.149 -24.005   3.517  1.00  0.00     0.218 HD
ENDBRANCH  20  24
BRANCH  21  26
HETATM   26  O   UNL     1      44.198 -22.346   1.224  1.00  0.00    -0.358 OA
HETATM   27  H   UNL     1      44.365 -21.706   0.504  1.00  0.00     0.218 HD
ENDBRANCH  21  26
ENDBRANCH  16  18
ENDBRANCH  15  16
ENDBRANCH  12  15
TORSDOF 5
ENDMDL
MODEL 10
REMARK VINA RESULT:      -8.1      5.056      8.666
REMARK  5 active torsions:
REMARK  status: ('A' for Active; 'I' for Inactive)
REMARK    1  A    between atoms: C_12  and  C_13 
REMARK    2  A    between atoms: C_13  and  N_14 
REMARK    3  A    between atoms: N_14  and  C_15 
REMARK    4  A    between atoms: C_17  and  O_18 
REMARK    5  A    between atoms: C_19  and  O_20 
ROOT
HETATM    1  C   UNL     1      37.374 -11.431   1.096  1.00  0.00     0.048 C 
HETATM    2  C   UNL     1      38.278 -12.404   1.795  1.00  0.00    -0.059 A 
HETATM    3  C   UNL     1      38.567 -13.647   1.230  1.00  0.00     0.037 A 
HETATM    4  C   UNL     1      39.390 -14.546   1.910  1.00  0.00     0.046 A 
HETATM    5  C   UNL     1      39.935 -14.231   3.166  1.00  0.00    -0.003 A 
HETATM    6  C   UNL     1      39.652 -12.979   3.741  1.00  0.00    -0.049 A 
HETATM    7  C   UNL     1      40.201 -12.567   5.080  1.00  0.00     0.049 C 
HETATM    8  C   UNL     1      38.819 -12.082   3.047  1.00  0.00     0.014 A 
HETATM    9  N   UNL     1      39.675 -15.785   1.323  1.00  0.00    -0.322 N 
HETATM   10  C   UNL     1      40.473 -16.737   1.894  1.00  0.00     0.253 A 
HETATM   11  O   UNL     1      40.710 -17.794   1.318  1.00  0.00    -0.268 OA
HETATM   12  C   UNL     1      41.036 -16.430   3.237  1.00  0.00     0.024 A 
HETATM   13  C   UNL     1      40.770 -15.248   3.821  1.00  0.00     0.028 A 
HETATM   14  H   UNL     1      39.298 -16.015   0.413  1.00  0.00     0.169 HD
ENDROOT
BRANCH  12  15
HETATM   15  C   UNL     1      41.835 -17.515   3.900  1.00  0.00     0.136 C 
BRANCH  15  16
HETATM   16  N   UNL     1      43.046 -17.751   3.118  1.00  0.00    -0.288 NA
HETATM   17  H   UNL     1      42.989 -17.300   2.206  1.00  0.00     0.128 HD
BRANCH  16  18
HETATM   18  C   UNL     1      43.533 -19.062   2.985  1.00  0.00     0.011 A 
HETATM   19  C   UNL     1      44.172 -19.641   4.095  1.00  0.00     0.062 A 
HETATM   20  C   UNL     1      44.615 -20.960   4.047  1.00  0.00     0.100 A 
HETATM   21  C   UNL     1      44.408 -21.729   2.908  1.00  0.00     0.098 A 
HETATM   22  C   UNL     1      43.746 -21.198   1.816  1.00  0.00     0.041 A 
HETATM   23  C   UNL     1      43.295 -19.873   1.864  1.00  0.00     0.026 A 
BRANCH  20  24
HETATM   24  O   UNL     1      45.256 -21.550   5.103  1.00  0.00    -0.358 OA
HETATM   25  H   UNL     1      45.393 -22.488   4.883  1.00  0.00     0.218 HD
ENDBRANCH  20  24
BRANCH  21  26
HETATM   26  O   UNL     1      44.844 -23.021   2.865  1.00  0.00    -0.358 OA
HETATM   27  H   UNL     1      44.532 -23.353   2.000  1.00  0.00     0.218 HD
ENDBRANCH  21  26
ENDBRANCH  16  18
ENDBRANCH  15  16
ENDBRANCH  12  15
TORSDOF 5
ENDMDL
