MODEL 1
REMARK VINA RESULT:      -9.4      0.000      0.000
REMARK  6 active torsions:
REMARK  status: ('A' for Active; 'I' for Inactive)
REMARK    1  A    between atoms: O_2  and  C_3 
REMARK    2  A    between atoms: C_5  and  C_6 
REMARK    3  A    between atoms: C_12  and  C_13 
REMARK       I    between atoms: C_13  and  N_14 
REMARK    4  A    between atoms: N_14  and  C_15 
REMARK    5  A    between atoms: C_17  and  O_18 
REMARK    6  A    between atoms: C_23  and  C_24 
ROOT
HETATM    1  C   UNL     1      44.149 -18.087   4.042  1.00  0.00     0.118 C 
HETATM    2  N   UNL     1      43.307 -17.077   3.382  1.00  0.00    -0.365 N 
HETATM    3  C   UNL     1      43.192 -15.873   4.015  1.00  0.00     0.138 C 
HETATM    4  N   UNL     1      43.447 -15.763   5.364  1.00  0.00    -0.240 N 
HETATM    5  N   UNL     1      43.513 -14.492   5.790  1.00  0.00    -0.181 NA
HETATM    6  C   UNL     1      43.133 -13.788   4.721  1.00  0.00     0.160 C 
HETATM    7  C   UNL     1      42.880 -14.597   3.586  1.00  0.00     0.096 C 
HETATM    8  C   UNL     1      43.859 -16.860   6.224  1.00  0.00     0.221 C 
HETATM    9  C   UNL     1      43.710 -18.213   5.504  1.00  0.00     0.066 C 
HETATM   10  H   UNL     1      43.454 -17.073   2.370  1.00  0.00     0.161 HD
ENDROOT
BRANCH   7  11
HETATM   11  C   UNL     1      42.448 -14.125   2.283  1.00  0.00     0.261 C 
HETATM   12  N   UNL     1      41.673 -15.040   1.593  1.00  0.00    -0.323 N 
HETATM   13  H   UNL     1      41.434 -15.883   2.104  1.00  0.00     0.169 HD
HETATM   14  O   UNL     1      42.725 -12.990   1.911  1.00  0.00    -0.267 OA
BRANCH  12  15
HETATM   15  C   UNL     1      41.061 -14.864   0.335  1.00  0.00     0.037 A 
HETATM   16  C   UNL     1      41.607 -15.322  -0.867  1.00  0.00     0.066 A 
HETATM   17  C   UNL     1      40.939 -15.089  -2.068  1.00  0.00     0.067 A 
HETATM   18  C   UNL     1      39.731 -14.404  -2.096  1.00  0.00     0.036 A 
HETATM   19  C   UNL     1      39.176 -13.951  -0.903  1.00  0.00     0.005 A 
HETATM   20  C   UNL     1      39.835 -14.184   0.308  1.00  0.00     0.029 A 
BRANCH  17  21
HETATM   21  O   UNL     1      41.449 -15.524  -3.258  1.00  0.00    -0.361 OA
HETATM   22  H   UNL     1      40.773 -16.060  -3.704  1.00  0.00     0.217 HD
ENDBRANCH  17  21
ENDBRANCH  12  15
ENDBRANCH   7  11
BRANCH   1  23
HETATM   23  C   UNL     1      44.065 -19.410   3.311  1.00  0.00    -0.033 A 
HETATM   24  C   UNL     1      44.464 -20.615   3.915  1.00  0.00     0.046 A 
HETATM   25  C   UNL     1      44.438 -21.824   3.211  1.00  0.00     0.068 A 
HETATM   26  C   UNL     1      43.992 -21.837   1.891  1.00  0.00     0.037 A 
HETATM   27  C   UNL     1      43.580 -20.651   1.279  1.00  0.00     0.003 A 
HETATM   28  C   UNL     1      43.618 -19.447   1.982  1.00  0.00     0.009 A 
BRANCH  25  29
HETATM   29  O   UNL     1      44.872 -22.909   3.922  1.00  0.00    -0.356 OA
HETATM   30  C   UNL     1      45.295 -22.670   5.260  1.00  0.00     0.210 C 
ENDBRANCH  25  29
ENDBRANCH   1  23
BRANCH   8  31
HETATM   31  C   UNL     1      43.068 -16.880   7.513  1.00  0.00     0.409 C 
HETATM   32  F   UNL     1      41.772 -16.545   7.326  1.00  0.00    -0.169 F 
HETATM   33  F   UNL     1      43.073 -18.139   8.029  1.00  0.00    -0.169 F 
HETATM   34  F   UNL     1      43.577 -16.080   8.473  1.00  0.00    -0.169 F 
ENDBRANCH   8  31
TORSDOF 6
ENDMDL
MODEL 2
REMARK VINA RESULT:      -9.0      1.508      2.178
REMARK  6 active torsions:
REMARK  status: ('A' for Active; 'I' for Inactive)
REMARK    1  A    between atoms: O_2  and  C_3 
REMARK    2  A    between atoms: C_5  and  C_6 
REMARK    3  A    between atoms: C_12  and  C_13 
REMARK       I    between atoms: C_13  and  N_14 
REMARK    4  A    between atoms: N_14  and  C_15 
REMARK    5  A    between atoms: C_17  and  O_18 
REMARK    6  A    between atoms: C_23  and  C_24 
ROOT
HETATM    1  C   UNL     1      44.436 -18.368   4.528  1.00  0.00     0.118 C 
HETATM    2  N   UNL     1      43.506 -17.911   3.484  1.00  0.00    -0.365 N 
HETATM    3  C   UNL     1      43.255 -16.570   3.437  1.00  0.00     0.138 C 
HETATM    4  N   UNL     1      43.472 -15.777   4.542  1.00  0.00    -0.240 N 
HETATM    5  N   UNL     1      43.397 -14.464   4.277  1.00  0.00    -0.181 NA
HETATM    6  C   UNL     1      42.967 -14.428   3.013  1.00  0.00     0.160 C 
HETATM    7  C   UNL     1      42.820 -15.715   2.441  1.00  0.00     0.096 C 
HETATM    8  C   UNL     1      43.980 -16.252   5.818  1.00  0.00     0.221 C 
HETATM    9  C   UNL     1      43.985 -17.791   5.873  1.00  0.00     0.066 C 
HETATM   10  H   UNL     1      43.671 -18.397   2.599  1.00  0.00     0.161 HD
ENDROOT
BRANCH   7  11
HETATM   11  C   UNL     1      42.366 -16.002   1.092  1.00  0.00     0.261 C 
HETATM   12  N   UNL     1      41.885 -14.891   0.424  1.00  0.00    -0.323 N 
HETATM   13  H   UNL     1      41.983 -14.009   0.916  1.00  0.00     0.169 HD
HETATM   14  O   UNL     1      42.480 -17.130   0.626  1.00  0.00    -0.267 OA
BRANCH  12  15
HETATM   15  C   UNL     1      41.424 -14.828  -0.908  1.00  0.00     0.037 A 
HETATM   16  C   UNL     1      40.775 -15.882  -1.556  1.00  0.00     0.066 A 
HETATM   17  C   UNL     1      40.367 -15.738  -2.882  1.00  0.00     0.067 A 
HETATM   18  C   UNL     1      40.594 -14.558  -3.577  1.00  0.00     0.036 A 
HETATM   19  C   UNL     1      41.233 -13.500  -2.938  1.00  0.00     0.005 A 
HETATM   20  C   UNL     1      41.642 -13.632  -1.607  1.00  0.00     0.029 A 
BRANCH  17  21
HETATM   21  O   UNL     1      39.733 -16.751  -3.541  1.00  0.00    -0.361 OA
HETATM   22  H   UNL     1      40.213 -16.928  -4.367  1.00  0.00     0.217 HD
ENDBRANCH  17  21
ENDBRANCH  12  15
ENDBRANCH   7  11
BRANCH   1  23
HETATM   23  C   UNL     1      44.504 -19.880   4.555  1.00  0.00    -0.033 A 
HETATM   24  C   UNL     1      44.571 -20.639   3.375  1.00  0.00     0.046 A 
HETATM   25  C   UNL     1      44.576 -22.038   3.410  1.00  0.00     0.068 A 
HETATM   26  C   UNL     1      44.529 -22.692   4.639  1.00  0.00     0.037 A 
HETATM   27  C   UNL     1      44.474 -21.953   5.823  1.00  0.00     0.003 A 
HETATM   28  C   UNL     1      44.460 -20.559   5.782  1.00  0.00     0.009 A 
BRANCH  25  29
HETATM   29  O   UNL     1      44.625 -22.640   2.182  1.00  0.00    -0.356 OA
HETATM   30  C   UNL     1      43.969 -21.969   1.112  1.00  0.00     0.210 C 
ENDBRANCH  25  29
ENDBRANCH   1  23
BRANCH   8  31
HETATM   31  C   UNL     1      43.172 -15.705   6.974  1.00  0.00     0.409 C 
HETATM   32  F   UNL     1      41.866 -15.549   6.659  1.00  0.00    -0.169 F 
HETATM   33  F   UNL     1      43.217 -16.581   8.015  1.00  0.00    -0.169 F 
HETATM   34  F   UNL     1      43.635 -14.532   7.451  1.00  0.00    -0.169 F 
ENDBRANCH   8  31
TORSDOF 6
ENDMDL
MODEL 3
REMARK VINA RESULT:      -9.0      1.905      2.757
REMARK  6 active torsions:
REMARK  status: ('A' for Active; 'I' for Inactive)
REMARK    1  A    between atoms: O_2  and  C_3 
REMARK    2  A    between atoms: C_5  and  C_6 
REMARK    3  A    between atoms: C_12  and  C_13 
REMARK       I    between atoms: C_13  and  N_14 
REMARK    4  A    between atoms: N_14  and  C_15 
REMARK    5  A    between atoms: C_17  and  O_18 
REMARK    6  A    between atoms: C_23  and  C_24 
ROOT
HETATM    1  C   UNL     1      43.724 -17.546   2.824  1.00  0.00     0.118 C 
HETATM    2  N   UNL     1      42.628 -17.211   1.901  1.00  0.00    -0.365 N 
HETATM    3  C   UNL     1      42.279 -15.894   1.823  1.00  0.00     0.138 C 
HETATM    4  N   UNL     1      42.591 -15.024   2.845  1.00  0.00    -0.240 N 
HETATM    5  N   UNL     1      42.388 -13.736   2.528  1.00  0.00    -0.181 NA
HETATM    6  C   UNL     1      41.785 -13.803   1.338  1.00  0.00     0.160 C 
HETATM    7  C   UNL     1      41.651 -15.129   0.858  1.00  0.00     0.096 C 
HETATM    8  C   UNL     1      43.303 -15.390   4.058  1.00  0.00     0.221 C 
HETATM    9  C   UNL     1      43.424 -16.919   4.189  1.00  0.00     0.066 C 
HETATM   10  H   UNL     1      42.702 -17.738   1.028  1.00  0.00     0.161 HD
ENDROOT
BRANCH   7  11
HETATM   11  C   UNL     1      41.035 -15.523  -0.396  1.00  0.00     0.261 C 
HETATM   12  N   UNL     1      39.998 -14.696  -0.786  1.00  0.00    -0.323 N 
HETATM   13  H   UNL     1      39.848 -13.879  -0.204  1.00  0.00     0.169 HD
HETATM   14  O   UNL     1      41.478 -16.473  -1.032  1.00  0.00    -0.267 OA
BRANCH  12  15
HETATM   15  C   UNL     1      39.239 -14.779  -1.972  1.00  0.00     0.037 A 
HETATM   16  C   UNL     1      39.523 -15.663  -3.017  1.00  0.00     0.066 A 
HETATM   17  C   UNL     1      38.727 -15.665  -4.162  1.00  0.00     0.067 A 
HETATM   18  C   UNL     1      37.648 -14.800  -4.287  1.00  0.00     0.036 A 
HETATM   19  C   UNL     1      37.353 -13.922  -3.249  1.00  0.00     0.005 A 
HETATM   20  C   UNL     1      38.141 -13.915  -2.094  1.00  0.00     0.029 A 
BRANCH  17  21
HETATM   21  O   UNL     1      38.982 -16.516  -5.199  1.00  0.00    -0.361 OA
HETATM   22  H   UNL     1      39.441 -17.298  -4.848  1.00  0.00     0.217 HD
ENDBRANCH  17  21
ENDBRANCH  12  15
ENDBRANCH   7  11
BRANCH   1  23
HETATM   23  C   UNL     1      43.901 -19.047   2.918  1.00  0.00    -0.033 A 
HETATM   24  C   UNL     1      44.306 -19.670   4.110  1.00  0.00     0.046 A 
HETATM   25  C   UNL     1      44.523 -21.051   4.171  1.00  0.00     0.068 A 
HETATM   26  C   UNL     1      44.319 -21.826   3.031  1.00  0.00     0.037 A 
HETATM   27  C   UNL     1      43.905 -21.224   1.840  1.00  0.00     0.003 A 
HETATM   28  C   UNL     1      43.700 -19.846   1.783  1.00  0.00     0.009 A 
BRANCH  25  29
HETATM   29  O   UNL     1      44.931 -21.512   5.393  1.00  0.00    -0.356 OA
HETATM   30  C   UNL     1      44.061 -21.270   6.492  1.00  0.00     0.210 C 
ENDBRANCH  25  29
ENDBRANCH   1  23
BRANCH   8  31
HETATM   31  C   UNL     1      42.627 -14.826   5.288  1.00  0.00     0.409 C 
HETATM   32  F   UNL     1      42.972 -13.540   5.520  1.00  0.00    -0.169 F 
HETATM   33  F   UNL     1      41.277 -14.839   5.110  1.00  0.00    -0.169 F 
HETATM   34  F   UNL     1      42.863 -15.536   6.410  1.00  0.00    -0.169 F 
ENDBRANCH   8  31
TORSDOF 6
ENDMDL
MODEL 4
REMARK VINA RESULT:      -8.8      4.283      6.743
REMARK  6 active torsions:
REMARK  status: ('A' for Active; 'I' for Inactive)
REMARK    1  A    between atoms: O_2  and  C_3 
REMARK    2  A    between atoms: C_5  and  C_6 
REMARK    3  A    between atoms: C_12  and  C_13 
REMARK       I    between atoms: C_13  and  N_14 
REMARK    4  A    between atoms: N_14  and  C_15 
REMARK    5  A    between atoms: C_17  and  O_18 
REMARK    6  A    between atoms: C_23  and  C_24 
ROOT
HETATM    1  C   UNL     1      41.707 -17.337   2.738  1.00  0.00     0.118 C 
HETATM    2  N   UNL     1      41.901 -16.125   3.550  1.00  0.00    -0.365 N 
HETATM    3  C   UNL     1      41.123 -15.050   3.234  1.00  0.00     0.138 C 
HETATM    4  N   UNL     1      40.548 -14.941   1.986  1.00  0.00    -0.240 N 
HETATM    5  N   UNL     1      39.639 -13.958   1.903  1.00  0.00    -0.181 NA
HETATM    6  C   UNL     1      39.756 -13.330   3.076  1.00  0.00     0.160 C 
HETATM    7  C   UNL     1      40.697 -13.940   3.941  1.00  0.00     0.096 C 
HETATM    8  C   UNL     1      40.691 -15.918   0.920  1.00  0.00     0.221 C 
HETATM    9  C   UNL     1      41.781 -16.951   1.256  1.00  0.00     0.066 C 
HETATM   10  H   UNL     1      42.019 -16.355   4.539  1.00  0.00     0.161 HD
ENDROOT
BRANCH   7  11
HETATM   11  C   UNL     1      41.047 -13.488   5.275  1.00  0.00     0.261 C 
HETATM   12  N   UNL     1      40.438 -12.299   5.632  1.00  0.00    -0.323 N 
HETATM   13  H   UNL     1      39.766 -11.934   4.965  1.00  0.00     0.169 HD
HETATM   14  O   UNL     1      41.772 -14.170   5.990  1.00  0.00    -0.267 OA
BRANCH  12  15
HETATM   15  C   UNL     1      40.531 -11.630   6.871  1.00  0.00     0.037 A 
HETATM   16  C   UNL     1      39.484 -11.551   7.792  1.00  0.00     0.066 A 
HETATM   17  C   UNL     1      39.660 -10.854   8.987  1.00  0.00     0.067 A 
HETATM   18  C   UNL     1      40.866 -10.233   9.284  1.00  0.00     0.036 A 
HETATM   19  C   UNL     1      41.917 -10.314   8.376  1.00  0.00     0.005 A 
HETATM   20  C   UNL     1      41.753 -11.014   7.177  1.00  0.00     0.029 A 
BRANCH  17  21
HETATM   21  O   UNL     1      38.654 -10.758   9.905  1.00  0.00    -0.361 OA
HETATM   22  H   UNL     1      38.959 -10.196  10.638  1.00  0.00     0.217 HD
ENDBRANCH  17  21
ENDBRANCH  12  15
ENDBRANCH   7  11
BRANCH   1  23
HETATM   23  C   UNL     1      42.732 -18.391   3.099  1.00  0.00    -0.033 A 
HETATM   24  C   UNL     1      43.316 -18.446   4.376  1.00  0.00     0.046 A 
HETATM   25  C   UNL     1      44.304 -19.388   4.682  1.00  0.00     0.068 A 
HETATM   26  C   UNL     1      44.707 -20.299   3.707  1.00  0.00     0.037 A 
HETATM   27  C   UNL     1      44.128 -20.266   2.437  1.00  0.00     0.003 A 
HETATM   28  C   UNL     1      43.150 -19.318   2.134  1.00  0.00     0.009 A 
BRANCH  25  29
HETATM   29  O   UNL     1      44.793 -19.310   5.958  1.00  0.00    -0.356 OA
HETATM   30  C   UNL     1      45.183 -18.020   6.417  1.00  0.00     0.210 C 
ENDBRANCH  25  29
ENDBRANCH   1  23
BRANCH   8  31
HETATM   31  C   UNL     1      41.011 -15.253  -0.401  1.00  0.00     0.409 C 
HETATM   32  F   UNL     1      42.014 -14.353  -0.293  1.00  0.00    -0.169 F 
HETATM   33  F   UNL     1      41.428 -16.192  -1.293  1.00  0.00    -0.169 F 
HETATM   34  F   UNL     1      39.953 -14.641  -0.970  1.00  0.00    -0.169 F 
ENDBRANCH   8  31
TORSDOF 6
ENDMDL
MODEL 5
REMARK VINA RESULT:      -8.5      2.701      7.564
REMARK  6 active torsions:
REMARK  status: ('A' for Active; 'I' for Inactive)
REMARK    1  A    between atoms: O_2  and  C_3 
REMARK    2  A    between atoms: C_5  and  C_6 
REMARK    3  A    between atoms: C_12  and  C_13 
REMARK       I    between atoms: C_13  and  N_14 
REMARK    4  A    between atoms: N_14  and  C_15 
REMARK    5  A    between atoms: C_17  and  O_18 
REMARK    6  A    between atoms: C_23  and  C_24 
ROOT
HETATM    1  C   UNL     1      41.176 -13.721   0.793  1.00  0.00     0.118 C 
HETATM    2  N   UNL     1      42.190 -14.649   1.319  1.00  0.00    -0.365 N 
HETATM    3  C   UNL     1      42.098 -14.964   2.643  1.00  0.00     0.138 C 
HETATM    4  N   UNL     1      41.419 -14.141   3.515  1.00  0.00    -0.240 N 
HETATM    5  N   UNL     1      41.224 -14.692   4.723  1.00  0.00    -0.181 NA
HETATM    6  C   UNL     1      41.932 -15.823   4.664  1.00  0.00     0.160 C 
HETATM    7  C   UNL     1      42.537 -16.034   3.401  1.00  0.00     0.096 C 
HETATM    8  C   UNL     1      40.748 -12.908   3.140  1.00  0.00     0.221 C 
HETATM    9  C   UNL     1      41.117 -12.491   1.705  1.00  0.00     0.066 C 
HETATM   10  H   UNL     1      42.378 -15.407   0.659  1.00  0.00     0.161 HD
ENDROOT
BRANCH   7  11
HETATM   11  C   UNL     1      43.369 -17.165   3.033  1.00  0.00     0.261 C 
HETATM   12  N   UNL     1      43.070 -18.321   3.730  1.00  0.00    -0.323 N 
HETATM   13  H   UNL     1      42.264 -18.265   4.345  1.00  0.00     0.169 HD
HETATM   14  O   UNL     1      44.200 -17.057   2.139  1.00  0.00    -0.267 OA
BRANCH  12  15
HETATM   15  C   UNL     1      43.657 -19.593   3.567  1.00  0.00     0.037 A 
HETATM   16  C   UNL     1      43.579 -20.340   2.389  1.00  0.00     0.066 A 
HETATM   17  C   UNL     1      44.177 -21.598   2.322  1.00  0.00     0.067 A 
HETATM   18  C   UNL     1      44.856 -22.128   3.411  1.00  0.00     0.036 A 
HETATM   19  C   UNL     1      44.946 -21.388   4.586  1.00  0.00     0.005 A 
HETATM   20  C   UNL     1      44.354 -20.123   4.662  1.00  0.00     0.029 A 
BRANCH  17  21
HETATM   21  O   UNL     1      44.115 -22.351   1.185  1.00  0.00    -0.361 OA
HETATM   22  H   UNL     1      43.423 -23.024   1.300  1.00  0.00     0.217 HD
ENDBRANCH  17  21
ENDBRANCH  12  15
ENDBRANCH   7  11
BRANCH   1  23
HETATM   23  C   UNL     1      41.487 -13.348  -0.641  1.00  0.00    -0.033 A 
HETATM   24  C   UNL     1      41.076 -14.150  -1.719  1.00  0.00     0.046 A 
HETATM   25  C   UNL     1      41.418 -13.826  -3.036  1.00  0.00     0.068 A 
HETATM   26  C   UNL     1      42.167 -12.678  -3.286  1.00  0.00     0.037 A 
HETATM   27  C   UNL     1      42.573 -11.863  -2.227  1.00  0.00     0.003 A 
HETATM   28  C   UNL     1      42.238 -12.195  -0.915  1.00  0.00     0.009 A 
BRANCH  25  29
HETATM   29  O   UNL     1      40.965 -14.709  -3.978  1.00  0.00    -0.356 OA
HETATM   30  C   UNL     1      39.793 -15.448  -3.651  1.00  0.00     0.210 C 
ENDBRANCH  25  29
ENDBRANCH   1  23
BRANCH   8  31
HETATM   31  C   UNL     1      41.078 -11.785   4.097  1.00  0.00     0.409 C 
HETATM   32  F   UNL     1      42.325 -11.894   4.606  1.00  0.00    -0.169 F 
HETATM   33  F   UNL     1      41.032 -10.596   3.435  1.00  0.00    -0.169 F 
HETATM   34  F   UNL     1      40.210 -11.674   5.124  1.00  0.00    -0.169 F 
ENDBRANCH   8  31
TORSDOF 6
ENDMDL
MODEL 6
REMARK VINA RESULT:      -8.4      4.179      7.102
REMARK  6 active torsions:
REMARK  status: ('A' for Active; 'I' for Inactive)
REMARK    1  A    between atoms: O_2  and  C_3 
REMARK    2  A    between atoms: C_5  and  C_6 
REMARK    3  A    between atoms: C_12  and  C_13 
REMARK       I    between atoms: C_13  and  N_14 
REMARK    4  A    between atoms: N_14  and  C_15 
REMARK    5  A    between atoms: C_17  and  O_18 
REMARK    6  A    between atoms: C_23  and  C_24 
ROOT
HETATM    1  C   UNL     1      41.743 -16.899   3.754  1.00  0.00     0.118 C 
HETATM    2  N   UNL     1      42.518 -15.826   4.395  1.00  0.00    -0.365 N 
HETATM    3  C   UNL     1      41.856 -14.656   4.633  1.00  0.00     0.138 C 
HETATM    4  N   UNL     1      40.718 -14.337   3.925  1.00  0.00    -0.240 N 
HETATM    5  N   UNL     1      40.061 -13.278   4.423  1.00  0.00    -0.181 NA
HETATM    6  C   UNL     1      40.886 -12.821   5.369  1.00  0.00     0.160 C 
HETATM    7  C   UNL     1      42.047 -13.617   5.525  1.00  0.00     0.096 C 
HETATM    8  C   UNL     1      40.116 -15.175   2.901  1.00  0.00     0.221 C 
HETATM    9  C   UNL     1      41.053 -16.331   2.509  1.00  0.00     0.066 C 
HETATM   10  H   UNL     1      43.121 -16.193   5.135  1.00  0.00     0.161 HD
ENDROOT
BRANCH   7  11
HETATM   11  C   UNL     1      43.127 -13.374   6.464  1.00  0.00     0.261 C 
HETATM   12  N   UNL     1      42.863 -12.351   7.356  1.00  0.00    -0.323 N 
HETATM   13  H   UNL     1      41.931 -11.954   7.303  1.00  0.00     0.169 HD
HETATM   14  O   UNL     1      44.126 -14.083   6.456  1.00  0.00    -0.267 OA
BRANCH  12  15
HETATM   15  C   UNL     1      43.682 -11.910   8.417  1.00  0.00     0.037 A 
HETATM   16  C   UNL     1      43.277 -10.980   9.377  1.00  0.00     0.066 A 
HETATM   17  C   UNL     1      44.161 -10.590  10.383  1.00  0.00     0.067 A 
HETATM   18  C   UNL     1      45.446 -11.112  10.452  1.00  0.00     0.036 A 
HETATM   19  C   UNL     1      45.855 -12.045   9.504  1.00  0.00     0.005 A 
HETATM   20  C   UNL     1      44.976 -12.447   8.494  1.00  0.00     0.029 A 
BRANCH  17  21
HETATM   21  O   UNL     1      43.793  -9.682  11.334  1.00  0.00    -0.361 OA
HETATM   22  H   UNL     1      44.284  -9.876  12.151  1.00  0.00     0.217 HD
ENDBRANCH  17  21
ENDBRANCH  12  15
ENDBRANCH   7  11
BRANCH   1  23
HETATM   23  C   UNL     1      42.636 -18.074   3.418  1.00  0.00    -0.033 A 
HETATM   24  C   UNL     1      43.425 -18.706   4.395  1.00  0.00     0.046 A 
HETATM   25  C   UNL     1      44.291 -19.754   4.063  1.00  0.00     0.068 A 
HETATM   26  C   UNL     1      44.362 -20.190   2.742  1.00  0.00     0.037 A 
HETATM   27  C   UNL     1      43.576 -19.582   1.761  1.00  0.00     0.003 A 
HETATM   28  C   UNL     1      42.722 -18.531   2.095  1.00  0.00     0.009 A 
BRANCH  25  29
HETATM   29  O   UNL     1      45.007 -20.258   5.114  1.00  0.00    -0.356 OA
HETATM   30  C   UNL     1      44.357 -21.229   5.926  1.00  0.00     0.210 C 
ENDBRANCH  25  29
ENDBRANCH   1  23
BRANCH   8  31
HETATM   31  C   UNL     1      39.758 -14.372   1.670  1.00  0.00     0.409 C 
HETATM   32  F   UNL     1      39.824 -15.108   0.539  1.00  0.00    -0.169 F 
HETATM   33  F   UNL     1      38.473 -13.934   1.772  1.00  0.00    -0.169 F 
HETATM   34  F   UNL     1      40.516 -13.269   1.502  1.00  0.00    -0.169 F 
ENDBRANCH   8  31
TORSDOF 6
ENDMDL
MODEL 7
REMARK VINA RESULT:      -8.3      2.492      3.173
REMARK  6 active torsions:
REMARK  status: ('A' for Active; 'I' for Inactive)
REMARK    1  A    between atoms: O_2  and  C_3 
REMARK    2  A    between atoms: C_5  and  C_6 
REMARK    3  A    between atoms: C_12  and  C_13 
REMARK       I    between atoms: C_13  and  N_14 
REMARK    4  A    between atoms: N_14  and  C_15 
REMARK    5  A    between atoms: C_17  and  O_18 
REMARK    6  A    between atoms: C_23  and  C_24 
ROOT
HETATM    1  C   UNL     1      43.020 -16.601   3.412  1.00  0.00     0.118 C 
HETATM    2  N   UNL     1      42.331 -16.017   2.251  1.00  0.00    -0.365 N 
HETATM    3  C   UNL     1      41.828 -14.759   2.410  1.00  0.00     0.138 C 
HETATM    4  N   UNL     1      41.571 -14.261   3.669  1.00  0.00    -0.240 N 
HETATM    5  N   UNL     1      41.298 -12.947   3.676  1.00  0.00    -0.181 NA
HETATM    6  C   UNL     1      41.225 -12.641   2.377  1.00  0.00     0.160 C 
HETATM    7  C   UNL     1      41.509 -13.741   1.531  1.00  0.00     0.096 C 
HETATM    8  C   UNL     1      41.805 -14.980   4.910  1.00  0.00     0.221 C 
HETATM    9  C   UNL     1      42.115 -16.464   4.640  1.00  0.00     0.066 C 
HETATM   10  H   UNL     1      42.824 -16.228   1.380  1.00  0.00     0.161 HD
ENDROOT
BRANCH   7  11
HETATM   11  C   UNL     1      41.503 -13.723   0.080  1.00  0.00     0.261 C 
HETATM   12  N   UNL     1      41.337 -12.459  -0.456  1.00  0.00    -0.323 N 
HETATM   13  H   UNL     1      41.322 -11.698   0.215  1.00  0.00     0.169 HD
HETATM   14  O   UNL     1      41.693 -14.755  -0.553  1.00  0.00    -0.267 OA
BRANCH  12  15
HETATM   15  C   UNL     1      41.340 -12.103  -1.821  1.00  0.00     0.037 A 
HETATM   16  C   UNL     1      40.187 -12.015  -2.605  1.00  0.00     0.066 A 
HETATM   17  C   UNL     1      40.287 -11.671  -3.953  1.00  0.00     0.067 A 
HETATM   18  C   UNL     1      41.520 -11.412  -4.538  1.00  0.00     0.036 A 
HETATM   19  C   UNL     1      42.673 -11.490  -3.763  1.00  0.00     0.005 A 
HETATM   20  C   UNL     1      42.584 -11.829  -2.409  1.00  0.00     0.029 A 
BRANCH  17  21
HETATM   21  O   UNL     1      39.178 -11.579  -4.743  1.00  0.00    -0.361 OA
HETATM   22  H   UNL     1      38.686 -10.779  -4.490  1.00  0.00     0.217 HD
ENDBRANCH  17  21
ENDBRANCH  12  15
ENDBRANCH   7  11
BRANCH   1  23
HETATM   23  C   UNL     1      43.391 -18.044   3.142  1.00  0.00    -0.033 A 
HETATM   24  C   UNL     1      44.137 -18.800   4.062  1.00  0.00     0.046 A 
HETATM   25  C   UNL     1      44.524 -20.114   3.777  1.00  0.00     0.068 A 
HETATM   26  C   UNL     1      44.149 -20.690   2.565  1.00  0.00     0.037 A 
HETATM   27  C   UNL     1      43.398 -19.957   1.644  1.00  0.00     0.003 A 
HETATM   28  C   UNL     1      43.023 -18.644   1.928  1.00  0.00     0.009 A 
BRANCH  25  29
HETATM   29  O   UNL     1      45.261 -20.718   4.759  1.00  0.00    -0.356 OA
HETATM   30  C   UNL     1      44.842 -22.016   5.168  1.00  0.00     0.210 C 
ENDBRANCH  25  29
ENDBRANCH   1  23
BRANCH   8  31
HETATM   31  C   UNL     1      40.620 -14.870   5.845  1.00  0.00     0.409 C 
HETATM   32  F   UNL     1      40.657 -13.743   6.590  1.00  0.00    -0.169 F 
HETATM   33  F   UNL     1      39.471 -14.815   5.117  1.00  0.00    -0.169 F 
HETATM   34  F   UNL     1      40.486 -15.923   6.676  1.00  0.00    -0.169 F 
ENDBRANCH   8  31
TORSDOF 6
ENDMDL
MODEL 8
REMARK VINA RESULT:      -8.3      4.283      6.732
REMARK  6 active torsions:
REMARK  status: ('A' for Active; 'I' for Inactive)
REMARK    1  A    between atoms: O_2  and  C_3 
REMARK    2  A    between atoms: C_5  and  C_6 
REMARK    3  A    between atoms: C_12  and  C_13 
REMARK       I    between atoms: C_13  and  N_14 
REMARK    4  A    between atoms: N_14  and  C_15 
REMARK    5  A    between atoms: C_17  and  O_18 
REMARK    6  A    between atoms: C_23  and  C_24 
ROOT
HETATM    1  C   UNL     1      41.663 -17.381   3.097  1.00  0.00     0.118 C 
HETATM    2  N   UNL     1      41.670 -16.161   3.919  1.00  0.00    -0.365 N 
HETATM    3  C   UNL     1      40.833 -15.158   3.527  1.00  0.00     0.138 C 
HETATM    4  N   UNL     1      40.373 -15.095   2.229  1.00  0.00    -0.240 N 
HETATM    5  N   UNL     1      39.392 -14.196   2.056  1.00  0.00    -0.181 NA
HETATM    6  C   UNL     1      39.340 -13.565   3.233  1.00  0.00     0.160 C 
HETATM    7  C   UNL     1      40.245 -14.094   4.186  1.00  0.00     0.096 C 
HETATM    8  C   UNL     1      40.703 -16.050   1.185  1.00  0.00     0.221 C 
HETATM    9  C   UNL     1      41.844 -16.983   1.628  1.00  0.00     0.066 C 
HETATM   10  H   UNL     1      41.713 -16.385   4.916  1.00  0.00     0.161 HD
ENDROOT
BRANCH   7  11
HETATM   11  C   UNL     1      40.424 -13.619   5.545  1.00  0.00     0.261 C 
HETATM   12  N   UNL     1      40.346 -12.243   5.664  1.00  0.00    -0.323 N 
HETATM   13  H   UNL     1      40.094 -11.745   4.817  1.00  0.00     0.169 HD
HETATM   14  O   UNL     1      40.568 -14.415   6.466  1.00  0.00    -0.267 OA
BRANCH  12  15
HETATM   15  C   UNL     1      40.425 -11.483   6.849  1.00  0.00     0.037 A 
HETATM   16  C   UNL     1      39.390 -11.390   7.784  1.00  0.00     0.066 A 
HETATM   17  C   UNL     1      39.550 -10.601   8.922  1.00  0.00     0.067 A 
HETATM   18  C   UNL     1      40.726  -9.898   9.149  1.00  0.00     0.036 A 
HETATM   19  C   UNL     1      41.764  -9.990   8.228  1.00  0.00     0.005 A 
HETATM   20  C   UNL     1      41.617 -10.783   7.085  1.00  0.00     0.029 A 
BRANCH  17  21
HETATM   21  O   UNL     1      38.555 -10.490   9.851  1.00  0.00    -0.361 OA
HETATM   22  H   UNL     1      38.506 -11.324  10.350  1.00  0.00     0.217 HD
ENDBRANCH  17  21
ENDBRANCH  12  15
ENDBRANCH   7  11
BRANCH   1  23
HETATM   23  C   UNL     1      42.739 -18.341   3.558  1.00  0.00    -0.033 A 
HETATM   24  C   UNL     1      43.434 -19.163   2.655  1.00  0.00     0.046 A 
HETATM   25  C   UNL     1      44.385 -20.088   3.098  1.00  0.00     0.068 A 
HETATM   26  C   UNL     1      44.660 -20.187   4.461  1.00  0.00     0.037 A 
HETATM   27  C   UNL     1      43.987 -19.369   5.371  1.00  0.00     0.003 A 
HETATM   28  C   UNL     1      43.033 -18.455   4.925  1.00  0.00     0.009 A 
BRANCH  25  29
HETATM   29  O   UNL     1      44.966 -20.830   2.106  1.00  0.00    -0.356 OA
HETATM   30  C   UNL     1      44.350 -22.074   1.792  1.00  0.00     0.210 C 
ENDBRANCH  25  29
ENDBRANCH   1  23
BRANCH   8  31
HETATM   31  C   UNL     1      41.087 -15.352  -0.101  1.00  0.00     0.409 C 
HETATM   32  F   UNL     1      40.047 -14.691  -0.658  1.00  0.00    -0.169 F 
HETATM   33  F   UNL     1      42.045 -14.420   0.156  1.00  0.00    -0.169 F 
HETATM   34  F   UNL     1      41.609 -16.178  -1.031  1.00  0.00    -0.169 F 
ENDBRANCH   8  31
TORSDOF 6
ENDMDL
MODEL 9
REMARK VINA RESULT:      -8.2      3.879      8.575
REMARK  6 active torsions:
REMARK  status: ('A' for Active; 'I' for Inactive)
REMARK    1  A    between atoms: O_2  and  C_3 
REMARK    2  A    between atoms: C_5  and  C_6 
REMARK    3  A    between atoms: C_12  and  C_13 
REMARK       I    between atoms: C_13  and  N_14 
REMARK    4  A    between atoms: N_14  and  C_15 
REMARK    5  A    between atoms: C_17  and  O_18 
REMARK    6  A    between atoms: C_23  and  C_24 
ROOT
HETATM    1  C   UNL     1      40.643 -12.735   3.042  1.00  0.00     0.118 C 
HETATM    2  N   UNL     1      41.190 -14.101   3.048  1.00  0.00    -0.365 N 
HETATM    3  C   UNL     1      41.111 -14.793   1.875  1.00  0.00     0.138 C 
HETATM    4  N   UNL     1      40.193 -14.437   0.910  1.00  0.00    -0.240 N 
HETATM    5  N   UNL     1      40.387 -15.058  -0.263  1.00  0.00    -0.181 NA
HETATM    6  C   UNL     1      41.349 -15.943   0.012  1.00  0.00     0.160 C 
HETATM    7  C   UNL     1      41.819 -15.856   1.345  1.00  0.00     0.096 C 
HETATM    8  C   UNL     1      39.257 -13.331   1.023  1.00  0.00     0.221 C 
HETATM    9  C   UNL     1      39.227 -12.776   2.459  1.00  0.00     0.066 C 
HETATM   10  H   UNL     1      42.066 -14.149   3.573  1.00  0.00     0.161 HD
ENDROOT
BRANCH   7  11
HETATM   11  C   UNL     1      42.851 -16.684   1.940  1.00  0.00     0.261 C 
HETATM   12  N   UNL     1      42.440 -17.979   2.197  1.00  0.00    -0.323 N 
HETATM   13  H   UNL     1      41.510 -18.216   1.868  1.00  0.00     0.169 HD
HETATM   14  O   UNL     1      43.979 -16.237   2.118  1.00  0.00    -0.267 OA
BRANCH  12  15
HETATM   15  C   UNL     1      43.218 -19.034   2.718  1.00  0.00     0.037 A 
HETATM   16  C   UNL     1      43.551 -20.184   1.998  1.00  0.00     0.066 A 
HETATM   17  C   UNL     1      44.312 -21.186   2.600  1.00  0.00     0.067 A 
HETATM   18  C   UNL     1      44.750 -21.063   3.912  1.00  0.00     0.036 A 
HETATM   19  C   UNL     1      44.430 -19.918   4.634  1.00  0.00     0.005 A 
HETATM   20  C   UNL     1      43.672 -18.905   4.039  1.00  0.00     0.029 A 
BRANCH  17  21
HETATM   21  O   UNL     1      44.651 -22.321   1.921  1.00  0.00    -0.361 OA
HETATM   22  H   UNL     1      43.887 -22.922   1.926  1.00  0.00     0.217 HD
ENDBRANCH  17  21
ENDBRANCH  12  15
ENDBRANCH   7  11
BRANCH   1  23
HETATM   23  C   UNL     1      40.663 -12.147   4.437  1.00  0.00    -0.033 A 
HETATM   24  C   UNL     1      39.667 -11.260   4.880  1.00  0.00     0.046 A 
HETATM   25  C   UNL     1      39.726 -10.677   6.150  1.00  0.00     0.068 A 
HETATM   26  C   UNL     1      40.785 -10.994   7.000  1.00  0.00     0.037 A 
HETATM   27  C   UNL     1      41.777 -11.883   6.580  1.00  0.00     0.003 A 
HETATM   28  C   UNL     1      41.718 -12.453   5.309  1.00  0.00     0.009 A 
BRANCH  25  29
HETATM   29  O   UNL     1      38.697  -9.821   6.435  1.00  0.00    -0.356 OA
HETATM   30  C   UNL     1      38.953  -8.812   7.405  1.00  0.00     0.210 C 
ENDBRANCH  25  29
ENDBRANCH   1  23
BRANCH   8  31
HETATM   31  C   UNL     1      37.862 -13.742   0.607  1.00  0.00     0.409 C 
HETATM   32  F   UNL     1      37.766 -13.955  -0.724  1.00  0.00    -0.169 F 
HETATM   33  F   UNL     1      37.535 -14.916   1.212  1.00  0.00    -0.169 F 
HETATM   34  F   UNL     1      36.908 -12.859   0.964  1.00  0.00    -0.169 F 
ENDBRANCH   8  31
TORSDOF 6
ENDMDL
MODEL 10
REMARK VINA RESULT:      -7.9      2.903      7.719
REMARK  6 active torsions:
REMARK  status: ('A' for Active; 'I' for Inactive)
REMARK    1  A    between atoms: O_2  and  C_3 
REMARK    2  A    between atoms: C_5  and  C_6 
REMARK    3  A    between atoms: C_12  and  C_13 
REMARK       I    between atoms: C_13  and  N_14 
REMARK    4  A    between atoms: N_14  and  C_15 
REMARK    5  A    between atoms: C_17  and  O_18 
REMARK    6  A    between atoms: C_23  and  C_24 
ROOT
HETATM    1  C   UNL     1      39.384 -14.336   0.797  1.00  0.00     0.118 C 
HETATM    2  N   UNL     1      40.655 -14.937   1.231  1.00  0.00    -0.365 N 
HETATM    3  C   UNL     1      40.823 -15.101   2.576  1.00  0.00     0.138 C 
HETATM    4  N   UNL     1      40.089 -14.352   3.470  1.00  0.00    -0.240 N 
HETATM    5  N   UNL     1      40.199 -14.780   4.737  1.00  0.00    -0.181 NA
HETATM    6  C   UNL     1      41.147 -15.719   4.664  1.00  0.00     0.160 C 
HETATM    7  C   UNL     1      41.607 -15.941   3.343  1.00  0.00     0.096 C 
HETATM    8  C   UNL     1      39.093 -13.360   3.102  1.00  0.00     0.221 C 
HETATM    9  C   UNL     1      39.152 -13.049   1.596  1.00  0.00     0.066 C 
HETATM   10  H   UNL     1      40.931 -15.708   0.618  1.00  0.00     0.161 HD
ENDROOT
BRANCH   7  11
HETATM   11  C   UNL     1      42.632 -16.890   2.946  1.00  0.00     0.261 C 
HETATM   12  N   UNL     1      42.534 -18.110   3.590  1.00  0.00    -0.323 N 
HETATM   13  H   UNL     1      41.725 -18.224   4.190  1.00  0.00     0.169 HD
HETATM   14  O   UNL     1      43.442 -16.598   2.074  1.00  0.00    -0.267 OA
BRANCH  12  15
HETATM   15  C   UNL     1      43.341 -19.249   3.387  1.00  0.00     0.037 A 
HETATM   16  C   UNL     1      43.213 -20.107   2.292  1.00  0.00     0.066 A 
HETATM   17  C   UNL     1      44.044 -21.221   2.180  1.00  0.00     0.067 A 
HETATM   18  C   UNL     1      45.005 -21.498   3.142  1.00  0.00     0.036 A 
HETATM   19  C   UNL     1      45.145 -20.645   4.233  1.00  0.00     0.005 A 
HETATM   20  C   UNL     1      44.321 -19.522   4.352  1.00  0.00     0.029 A 
BRANCH  17  21
HETATM   21  O   UNL     1      43.940 -22.077   1.121  1.00  0.00    -0.361 OA
HETATM   22  H   UNL     1      43.094 -21.910   0.673  1.00  0.00     0.217 HD
ENDBRANCH  17  21
ENDBRANCH  12  15
ENDBRANCH   7  11
BRANCH   1  23
HETATM   23  C   UNL     1      39.398 -14.081  -0.695  1.00  0.00    -0.033 A 
HETATM   24  C   UNL     1      40.598 -14.011  -1.422  1.00  0.00     0.046 A 
HETATM   25  C   UNL     1      40.603 -13.718  -2.790  1.00  0.00     0.068 A 
HETATM   26  C   UNL     1      39.393 -13.506  -3.448  1.00  0.00     0.037 A 
HETATM   27  C   UNL     1      38.189 -13.583  -2.743  1.00  0.00     0.003 A 
HETATM   28  C   UNL     1      38.191 -13.866  -1.378  1.00  0.00     0.009 A 
BRANCH  25  29
HETATM   29  O   UNL     1      41.846 -13.665  -3.360  1.00  0.00    -0.356 OA
HETATM   30  C   UNL     1      42.649 -12.534  -3.042  1.00  0.00     0.210 C 
ENDBRANCH  25  29
ENDBRANCH   1  23
BRANCH   8  31
HETATM   31  C   UNL     1      39.267 -12.082   3.892  1.00  0.00     0.409 C 
HETATM   32  F   UNL     1      40.568 -11.761   4.070  1.00  0.00    -0.169 F 
HETATM   33  F   UNL     1      38.703 -11.047   3.212  1.00  0.00    -0.169 F 
HETATM   34  F   UNL     1      38.669 -12.106   5.100  1.00  0.00    -0.169 F 
ENDBRANCH   8  31
TORSDOF 6
ENDMDL
