MODEL 1
REMARK VINA RESULT:      -8.2      0.000      0.000
REMARK  6 active torsions:
REMARK  status: ('A' for Active; 'I' for Inactive)
REMARK    1  A    between atoms: O_2  and  C_3 
REMARK    2  A    between atoms: C_3  and  C_4 
REMARK    3  A    between atoms: C_4  and  N_5 
REMARK       I    between atoms: N_5  and  C_6 
REMARK    4  A    between atoms: C_6  and  C_7 
REMARK    5  A    between atoms: C_12  and  C_13 
REMARK    6  A    between atoms: C_21  and  C_22 
ROOT
HETATM    1  C   UNL     1      40.806 -15.208   0.332  1.00  0.00     0.170 A 
HETATM    2  N   UNL     1      41.666 -16.232   0.561  1.00  0.00    -0.163 NA
HETATM    3  N   UNL     1      41.534 -16.474   1.875  1.00  0.00    -0.238 N 
HETATM    4  C   UNL     1      40.595 -15.697   2.493  1.00  0.00     0.145 A 
HETATM    5  N   UNL     1      40.315 -15.845   3.813  1.00  0.00    -0.365 N 
HETATM    6  C   UNL     1      41.174 -16.632   4.691  1.00  0.00     0.118 C 
HETATM    7  C   UNL     1      41.695 -17.855   3.909  1.00  0.00     0.066 C 
HETATM    8  C   UNL     1      42.306 -17.511   2.535  1.00  0.00     0.221 C 
HETATM    9  C   UNL     1      40.106 -14.857   1.519  1.00  0.00     0.115 A 
HETATM   10 CL   UNL     1      38.929 -13.651   1.723  1.00  0.00    -0.077 Cl
HETATM   11  H   UNL     1      39.706 -15.172   4.281  1.00  0.00     0.162 HD
ENDROOT
BRANCH   1  12
HETATM   12  C   UNL     1      40.697 -14.597  -1.002  1.00  0.00     0.273 C 
HETATM   13  N   UNL     1      39.465 -14.785  -1.591  1.00  0.00    -0.353 N 
HETATM   14  H   UNL     1      38.845 -15.437  -1.114  1.00  0.00     0.162 HD
HETATM   15  O   UNL     1      41.615 -14.001  -1.558  1.00  0.00    -0.266 OA
BRANCH  13  16
HETATM   16  C   UNL     1      39.212 -14.456  -2.979  1.00  0.00     0.149 C 
BRANCH  16  17
HETATM   17  C   UNL     1      39.202 -15.694  -3.879  1.00  0.00     0.186 C 
BRANCH  17  18
HETATM   18  O   UNL     1      38.000 -15.696  -4.658  1.00  0.00    -0.394 OA
HETATM   19  C   UNL     1      37.034 -14.797  -4.127  1.00  0.00     0.201 C 
ENDBRANCH  17  18
ENDBRANCH  16  17
ENDBRANCH  13  16
ENDBRANCH   1  12
BRANCH   8  20
HETATM   20  C   UNL     1      43.767 -17.123   2.598  1.00  0.00     0.409 C 
HETATM   21  F   UNL     1      43.974 -15.801   2.737  1.00  0.00    -0.169 F 
HETATM   22  F   UNL     1      44.365 -17.735   3.654  1.00  0.00    -0.169 F 
HETATM   23  F   UNL     1      44.444 -17.526   1.498  1.00  0.00    -0.169 F 
ENDBRANCH   8  20
BRANCH   6  24
HETATM   24  C   UNL     1      42.244 -15.800   5.385  1.00  0.00    -0.035 A 
HETATM   25  C   UNL     1      42.354 -14.407   5.221  1.00  0.00     0.011 A 
HETATM   26  C   UNL     1      43.349 -13.677   5.876  1.00  0.00     0.024 A 
HETATM   27  C   UNL     1      44.246 -14.328   6.716  1.00  0.00     0.034 A 
HETATM   28 CL   UNL     1      45.475 -13.432   7.519  1.00  0.00    -0.084 Cl
HETATM   29  C   UNL     1      44.148 -15.702   6.913  1.00  0.00     0.024 A 
HETATM   30  C   UNL     1      43.151 -16.431   6.257  1.00  0.00     0.011 A 
ENDBRANCH   6  24
TORSDOF 6
ENDMDL
MODEL 2
REMARK VINA RESULT:      -8.0      1.502      2.342
REMARK  6 active torsions:
REMARK  status: ('A' for Active; 'I' for Inactive)
REMARK    1  A    between atoms: O_2  and  C_3 
REMARK    2  A    between atoms: C_3  and  C_4 
REMARK    3  A    between atoms: C_4  and  N_5 
REMARK       I    between atoms: N_5  and  C_6 
REMARK    4  A    between atoms: C_6  and  C_7 
REMARK    5  A    between atoms: C_12  and  C_13 
REMARK    6  A    between atoms: C_21  and  C_22 
ROOT
HETATM    1  C   UNL     1      40.693 -15.252   0.319  1.00  0.00     0.170 A 
HETATM    2  N   UNL     1      41.576 -16.263   0.517  1.00  0.00    -0.163 NA
HETATM    3  N   UNL     1      41.490 -16.510   1.834  1.00  0.00    -0.238 N 
HETATM    4  C   UNL     1      40.560 -15.748   2.485  1.00  0.00     0.145 A 
HETATM    5  N   UNL     1      40.326 -15.902   3.813  1.00  0.00    -0.365 N 
HETATM    6  C   UNL     1      41.225 -16.678   4.660  1.00  0.00     0.118 C 
HETATM    7  C   UNL     1      41.739 -17.892   3.859  1.00  0.00     0.066 C 
HETATM    8  C   UNL     1      42.299 -17.536   2.467  1.00  0.00     0.221 C 
HETATM    9  C   UNL     1      40.028 -14.914   1.529  1.00  0.00     0.115 A 
HETATM   10 CL   UNL     1      38.840 -13.726   1.774  1.00  0.00    -0.077 Cl
HETATM   11  H   UNL     1      39.723 -15.240   4.302  1.00  0.00     0.162 HD
ENDROOT
BRANCH   1  12
HETATM   12  C   UNL     1      40.531 -14.641  -1.009  1.00  0.00     0.273 C 
HETATM   13  N   UNL     1      41.727 -14.420  -1.660  1.00  0.00    -0.353 N 
HETATM   14  H   UNL     1      42.564 -14.560  -1.099  1.00  0.00     0.162 HD
HETATM   15  O   UNL     1      39.446 -14.326  -1.490  1.00  0.00    -0.266 OA
BRANCH  13  16
HETATM   16  C   UNL     1      41.814 -13.639  -2.877  1.00  0.00     0.149 C 
BRANCH  16  17
HETATM   17  C   UNL     1      42.823 -12.494  -2.764  1.00  0.00     0.186 C 
BRANCH  17  18
HETATM   18  O   UNL     1      42.900 -12.071  -1.397  1.00  0.00    -0.394 OA
HETATM   19  C   UNL     1      43.240 -10.693  -1.298  1.00  0.00     0.201 C 
ENDBRANCH  17  18
ENDBRANCH  16  17
ENDBRANCH  13  16
ENDBRANCH   1  12
BRANCH   8  20
HETATM   20  C   UNL     1      43.756 -17.126   2.483  1.00  0.00     0.409 C 
HETATM   21  F   UNL     1      43.947 -15.802   2.627  1.00  0.00    -0.169 F 
HETATM   22  F   UNL     1      44.399 -17.738   3.511  1.00  0.00    -0.169 F 
HETATM   23  F   UNL     1      44.400 -17.508   1.356  1.00  0.00    -0.169 F 
ENDBRANCH   8  20
BRANCH   6  24
HETATM   24  C   UNL     1      42.305 -15.831   5.321  1.00  0.00    -0.035 A 
HETATM   25  C   UNL     1      42.394 -14.438   5.148  1.00  0.00     0.011 A 
HETATM   26  C   UNL     1      43.399 -13.693   5.772  1.00  0.00     0.024 A 
HETATM   27  C   UNL     1      44.326 -14.331   6.590  1.00  0.00     0.034 A 
HETATM   28 CL   UNL     1      45.567 -13.417   7.354  1.00  0.00    -0.084 Cl
HETATM   29  C   UNL     1      44.249 -15.704   6.794  1.00  0.00     0.024 A 
HETATM   30  C   UNL     1      43.242 -16.447   6.169  1.00  0.00     0.011 A 
ENDBRANCH   6  24
TORSDOF 6
ENDMDL
MODEL 3
REMARK VINA RESULT:      -7.3      4.302      6.350
REMARK  6 active torsions:
REMARK  status: ('A' for Active; 'I' for Inactive)
REMARK    1  A    between atoms: O_2  and  C_3 
REMARK    2  A    between atoms: C_3  and  C_4 
REMARK    3  A    between atoms: C_4  and  N_5 
REMARK       I    between atoms: N_5  and  C_6 
REMARK    4  A    between atoms: C_6  and  C_7 
REMARK    5  A    between atoms: C_12  and  C_13 
REMARK    6  A    between atoms: C_21  and  C_22 
ROOT
HETATM    1  C   UNL     1      42.793 -17.208   3.158  1.00  0.00     0.170 A 
HETATM    2  N   UNL     1      43.116 -16.549   4.300  1.00  0.00    -0.163 NA
HETATM    3  N   UNL     1      42.051 -15.763   4.528  1.00  0.00    -0.238 N 
HETATM    4  C   UNL     1      41.038 -15.919   3.623  1.00  0.00     0.145 A 
HETATM    5  N   UNL     1      39.878 -15.224   3.735  1.00  0.00    -0.365 N 
HETATM    6  C   UNL     1      39.754 -14.091   4.647  1.00  0.00     0.118 C 
HETATM    7  C   UNL     1      40.555 -14.395   5.929  1.00  0.00     0.066 C 
HETATM    8  C   UNL     1      41.999 -14.870   5.672  1.00  0.00     0.221 C 
HETATM    9  C   UNL     1      41.491 -16.847   2.714  1.00  0.00     0.115 A 
HETATM   10 CL   UNL     1      40.657 -17.413   1.348  1.00  0.00    -0.077 Cl
HETATM   11  H   UNL     1      39.190 -15.260   2.983  1.00  0.00     0.162 HD
ENDROOT
BRANCH   1  12
HETATM   12  C   UNL     1      43.743 -18.139   2.531  1.00  0.00     0.273 C 
HETATM   13  N   UNL     1      43.734 -19.396   3.099  1.00  0.00    -0.353 N 
HETATM   14  H   UNL     1      43.199 -19.484   3.959  1.00  0.00     0.162 HD
HETATM   15  O   UNL     1      44.496 -17.832   1.610  1.00  0.00    -0.266 OA
BRANCH  13  16
HETATM   16  C   UNL     1      44.732 -20.396   2.780  1.00  0.00     0.149 C 
BRANCH  16  17
HETATM   17  C   UNL     1      44.127 -21.628   2.104  1.00  0.00     0.186 C 
BRANCH  17  18
HETATM   18  O   UNL     1      44.663 -22.808   2.715  1.00  0.00    -0.394 OA
HETATM   19  C   UNL     1      44.647 -22.712   4.134  1.00  0.00     0.201 C 
ENDBRANCH  17  18
ENDBRANCH  16  17
ENDBRANCH  13  16
ENDBRANCH   1  12
BRANCH   8  20
HETATM   20  C   UNL     1      42.992 -13.740   5.506  1.00  0.00     0.409 C 
HETATM   21  F   UNL     1      43.198 -13.380   4.226  1.00  0.00    -0.169 F 
HETATM   22  F   UNL     1      42.554 -12.637   6.167  1.00  0.00    -0.169 F 
HETATM   23  F   UNL     1      44.197 -14.044   6.040  1.00  0.00    -0.169 F 
ENDBRANCH   8  20
BRANCH   6  24
HETATM   24  C   UNL     1      40.066 -12.755   3.987  1.00  0.00    -0.035 A 
HETATM   25  C   UNL     1      40.478 -12.643   2.647  1.00  0.00     0.011 A 
HETATM   26  C   UNL     1      40.755 -11.397   2.075  1.00  0.00     0.024 A 
HETATM   27  C   UNL     1      40.613 -10.241   2.834  1.00  0.00     0.034 A 
HETATM   28 CL   UNL     1      40.959  -8.708   2.134  1.00  0.00    -0.084 Cl
HETATM   29  C   UNL     1      40.188 -10.320   4.156  1.00  0.00     0.024 A 
HETATM   30  C   UNL     1      39.911 -11.567   4.726  1.00  0.00     0.011 A 
ENDBRANCH   6  24
TORSDOF 6
ENDMDL
MODEL 4
REMARK VINA RESULT:      -7.2      3.231      4.533
REMARK  6 active torsions:
REMARK  status: ('A' for Active; 'I' for Inactive)
REMARK    1  A    between atoms: O_2  and  C_3 
REMARK    2  A    between atoms: C_3  and  C_4 
REMARK    3  A    between atoms: C_4  and  N_5 
REMARK       I    between atoms: N_5  and  C_6 
REMARK    4  A    between atoms: C_6  and  C_7 
REMARK    5  A    between atoms: C_12  and  C_13 
REMARK    6  A    between atoms: C_21  and  C_22 
ROOT
HETATM    1  C   UNL     1      40.220 -14.024   2.934  1.00  0.00     0.170 A 
HETATM    2  N   UNL     1      40.196 -14.686   4.118  1.00  0.00    -0.163 NA
HETATM    3  N   UNL     1      41.429 -15.209   4.218  1.00  0.00    -0.238 N 
HETATM    4  C   UNL     1      42.262 -14.873   3.187  1.00  0.00     0.145 A 
HETATM    5  N   UNL     1      43.553 -15.291   3.159  1.00  0.00    -0.365 N 
HETATM    6  C   UNL     1      44.039 -16.327   4.064  1.00  0.00     0.118 C 
HETATM    7  C   UNL     1      43.354 -16.150   5.435  1.00  0.00     0.066 C 
HETATM    8  C   UNL     1      41.820 -16.016   5.360  1.00  0.00     0.221 C 
HETATM    9  C   UNL     1      41.505 -14.108   2.331  1.00  0.00     0.115 A 
HETATM   10 CL   UNL     1      42.016 -13.434   0.859  1.00  0.00    -0.077 Cl
HETATM   11  H   UNL     1      44.118 -15.138   2.323  1.00  0.00     0.162 HD
ENDROOT
BRANCH   1  12
HETATM   12  C   UNL     1      39.016 -13.353   2.421  1.00  0.00     0.273 C 
HETATM   13  N   UNL     1      38.358 -14.077   1.449  1.00  0.00    -0.353 N 
HETATM   14  H   UNL     1      38.852 -14.896   1.102  1.00  0.00     0.162 HD
HETATM   15  O   UNL     1      38.640 -12.244   2.791  1.00  0.00    -0.266 OA
BRANCH  13  16
HETATM   16  C   UNL     1      37.280 -13.514   0.661  1.00  0.00     0.149 C 
BRANCH  16  17
HETATM   17  C   UNL     1      37.774 -12.910  -0.655  1.00  0.00     0.186 C 
BRANCH  17  18
HETATM   18  O   UNL     1      37.954 -13.959  -1.613  1.00  0.00    -0.394 OA
HETATM   19  C   UNL     1      39.294 -14.004  -2.090  1.00  0.00     0.201 C 
ENDBRANCH  17  18
ENDBRANCH  16  17
ENDBRANCH  13  16
ENDBRANCH   1  12
BRANCH   8  20
HETATM   20  C   UNL     1      41.093 -17.344   5.341  1.00  0.00     0.409 C 
HETATM   21  F   UNL     1      41.820 -18.370   5.818  1.00  0.00    -0.169 F 
HETATM   22  F   UNL     1      39.966 -17.267   6.097  1.00  0.00    -0.169 F 
HETATM   23  F   UNL     1      40.686 -17.680   4.095  1.00  0.00    -0.169 F 
ENDBRANCH   8  20
BRANCH   6  24
HETATM   24  C   UNL     1      43.955 -17.727   3.471  1.00  0.00    -0.035 A 
HETATM   25  C   UNL     1      43.447 -17.982   2.184  1.00  0.00     0.011 A 
HETATM   26  C   UNL     1      43.387 -19.282   1.673  1.00  0.00     0.024 A 
HETATM   27  C   UNL     1      43.845 -20.348   2.439  1.00  0.00     0.034 A 
HETATM   28 CL   UNL     1      43.766 -21.949   1.815  1.00  0.00    -0.084 Cl
HETATM   29  C   UNL     1      44.370 -20.123   3.707  1.00  0.00     0.024 A 
HETATM   30  C   UNL     1      44.430 -18.822   4.216  1.00  0.00     0.011 A 
ENDBRANCH   6  24
TORSDOF 6
ENDMDL
MODEL 5
REMARK VINA RESULT:      -6.7      3.678      5.149
REMARK  6 active torsions:
REMARK  status: ('A' for Active; 'I' for Inactive)
REMARK    1  A    between atoms: O_2  and  C_3 
REMARK    2  A    between atoms: C_3  and  C_4 
REMARK    3  A    between atoms: C_4  and  N_5 
REMARK       I    between atoms: N_5  and  C_6 
REMARK    4  A    between atoms: C_6  and  C_7 
REMARK    5  A    between atoms: C_12  and  C_13 
REMARK    6  A    between atoms: C_21  and  C_22 
ROOT
HETATM    1  C   UNL     1      39.944 -14.339   2.265  1.00  0.00     0.170 A 
HETATM    2  N   UNL     1      39.975 -14.794   3.543  1.00  0.00    -0.163 NA
HETATM    3  N   UNL     1      41.244 -15.202   3.708  1.00  0.00    -0.238 N 
HETATM    4  C   UNL     1      42.045 -14.986   2.621  1.00  0.00     0.145 A 
HETATM    5  N   UNL     1      43.363 -15.309   2.641  1.00  0.00    -0.365 N 
HETATM    6  C   UNL     1      43.928 -16.141   3.698  1.00  0.00     0.118 C 
HETATM    7  C   UNL     1      43.238 -15.786   5.032  1.00  0.00     0.066 C 
HETATM    8  C   UNL     1      41.698 -15.777   4.961  1.00  0.00     0.221 C 
HETATM    9  C   UNL     1      41.229 -14.431   1.662  1.00  0.00     0.115 A 
HETATM   10 CL   UNL     1      41.683 -13.979   0.090  1.00  0.00    -0.077 Cl
HETATM   11  H   UNL     1      43.911 -15.258   1.782  1.00  0.00     0.162 HD
ENDROOT
BRANCH   1  12
HETATM   12  C   UNL     1      38.692 -13.852   1.667  1.00  0.00     0.273 C 
HETATM   13  N   UNL     1      38.604 -12.476   1.627  1.00  0.00    -0.353 N 
HETATM   14  H   UNL     1      39.325 -11.975   2.141  1.00  0.00     0.162 HD
HETATM   15  O   UNL     1      37.794 -14.587   1.267  1.00  0.00    -0.266 OA
BRANCH  13  16
HETATM   16  C   UNL     1      37.377 -11.789   1.279  1.00  0.00     0.149 C 
BRANCH  16  17
HETATM   17  C   UNL     1      37.623 -10.348   0.830  1.00  0.00     0.186 C 
BRANCH  17  18
HETATM   18  O   UNL     1      37.987  -9.558   1.969  1.00  0.00    -0.394 OA
HETATM   19  C   UNL     1      36.909  -9.445   2.889  1.00  0.00     0.201 C 
ENDBRANCH  17  18
ENDBRANCH  16  17
ENDBRANCH  13  16
ENDBRANCH   1  12
BRANCH   8  20
HETATM   20  C   UNL     1      41.070 -17.137   5.177  1.00  0.00     0.409 C 
HETATM   21  F   UNL     1      41.861 -18.003   5.837  1.00  0.00    -0.169 F 
HETATM   22  F   UNL     1      39.925 -17.012   5.897  1.00  0.00    -0.169 F 
HETATM   23  F   UNL     1      40.717 -17.721   4.009  1.00  0.00    -0.169 F 
ENDBRANCH   8  20
BRANCH   6  24
HETATM   24  C   UNL     1      43.944 -17.623   3.349  1.00  0.00    -0.035 A 
HETATM   25  C   UNL     1      44.401 -18.612   4.239  1.00  0.00     0.011 A 
HETATM   26  C   UNL     1      44.399 -19.964   3.882  1.00  0.00     0.024 A 
HETATM   27  C   UNL     1      43.930 -20.349   2.631  1.00  0.00     0.034 A 
HETATM   28 CL   UNL     1      43.933 -22.011   2.189  1.00  0.00    -0.084 Cl
HETATM   29  C   UNL     1      43.454 -19.394   1.739  1.00  0.00     0.024 A 
HETATM   30  C   UNL     1      43.455 -18.043   2.098  1.00  0.00     0.011 A 
ENDBRANCH   6  24
TORSDOF 6
ENDMDL
MODEL 6
REMARK VINA RESULT:      -6.6      2.478      2.863
REMARK  6 active torsions:
REMARK  status: ('A' for Active; 'I' for Inactive)
REMARK    1  A    between atoms: O_2  and  C_3 
REMARK    2  A    between atoms: C_3  and  C_4 
REMARK    3  A    between atoms: C_4  and  N_5 
REMARK       I    between atoms: N_5  and  C_6 
REMARK    4  A    between atoms: C_6  and  C_7 
REMARK    5  A    between atoms: C_12  and  C_13 
REMARK    6  A    between atoms: C_21  and  C_22 
ROOT
HETATM    1  C   UNL     1      41.827 -13.318   0.383  1.00  0.00     0.170 A 
HETATM    2  N   UNL     1      41.935 -14.613  -0.008  1.00  0.00    -0.163 NA
HETATM    3  N   UNL     1      41.463 -15.304   1.042  1.00  0.00    -0.238 N 
HETATM    4  C   UNL     1      41.007 -14.522   2.066  1.00  0.00     0.145 A 
HETATM    5  N   UNL     1      40.465 -15.068   3.184  1.00  0.00    -0.365 N 
HETATM    6  C   UNL     1      40.587 -16.494   3.471  1.00  0.00     0.118 C 
HETATM    7  C   UNL     1      40.486 -17.278   2.147  1.00  0.00     0.066 C 
HETATM    8  C   UNL     1      41.416 -16.755   1.033  1.00  0.00     0.221 C 
HETATM    9  C   UNL     1      41.236 -13.224   1.673  1.00  0.00     0.115 A 
HETATM   10 CL   UNL     1      40.891 -11.822   2.566  1.00  0.00    -0.077 Cl
HETATM   11  H   UNL     1      40.250 -14.475   3.986  1.00  0.00     0.162 HD
ENDROOT
BRANCH   1  12
HETATM   12  C   UNL     1      42.305 -12.227  -0.480  1.00  0.00     0.273 C 
HETATM   13  N   UNL     1      41.987 -12.402  -1.811  1.00  0.00    -0.353 N 
HETATM   14  H   UNL     1      41.605 -13.313  -2.054  1.00  0.00     0.162 HD
HETATM   15  O   UNL     1      42.950 -11.264  -0.073  1.00  0.00    -0.266 OA
BRANCH  13  16
HETATM   16  C   UNL     1      42.540 -11.564  -2.855  1.00  0.00     0.149 C 
BRANCH  16  17
HETATM   17  C   UNL     1      41.511 -11.223  -3.935  1.00  0.00     0.186 C 
BRANCH  17  18
HETATM   18  O   UNL     1      40.221 -11.682  -3.513  1.00  0.00    -0.394 OA
HETATM   19  C   UNL     1      39.178 -11.026  -4.224  1.00  0.00     0.201 C 
ENDBRANCH  17  18
ENDBRANCH  16  17
ENDBRANCH  13  16
ENDBRANCH   1  12
BRANCH   8  20
HETATM   20  C   UNL     1      42.815 -17.331   1.088  1.00  0.00     0.409 C 
HETATM   21  F   UNL     1      43.676 -16.598   1.816  1.00  0.00    -0.169 F 
HETATM   22  F   UNL     1      42.785 -18.574   1.634  1.00  0.00    -0.169 F 
HETATM   23  F   UNL     1      43.349 -17.476  -0.147  1.00  0.00    -0.169 F 
ENDBRANCH   8  20
BRANCH   6  24
HETATM   24  C   UNL     1      41.795 -16.829   4.335  1.00  0.00    -0.035 A 
HETATM   25  C   UNL     1      42.652 -15.846   4.863  1.00  0.00     0.011 A 
HETATM   26  C   UNL     1      43.752 -16.193   5.654  1.00  0.00     0.024 A 
HETATM   27  C   UNL     1      44.006 -17.530   5.938  1.00  0.00     0.034 A 
HETATM   28 CL   UNL     1      45.361 -17.959   6.906  1.00  0.00    -0.084 Cl
HETATM   29  C   UNL     1      43.163 -18.522   5.445  1.00  0.00     0.024 A 
HETATM   30  C   UNL     1      42.063 -18.173   4.655  1.00  0.00     0.011 A 
ENDBRANCH   6  24
TORSDOF 6
ENDMDL
MODEL 7
REMARK VINA RESULT:      -6.6      4.286      7.099
REMARK  6 active torsions:
REMARK  status: ('A' for Active; 'I' for Inactive)
REMARK    1  A    between atoms: O_2  and  C_3 
REMARK    2  A    between atoms: C_3  and  C_4 
REMARK    3  A    between atoms: C_4  and  N_5 
REMARK       I    between atoms: N_5  and  C_6 
REMARK    4  A    between atoms: C_6  and  C_7 
REMARK    5  A    between atoms: C_12  and  C_13 
REMARK    6  A    between atoms: C_21  and  C_22 
ROOT
HETATM    1  C   UNL     1      42.304 -16.804   3.364  1.00  0.00     0.170 A 
HETATM    2  N   UNL     1      41.252 -16.094   3.845  1.00  0.00    -0.163 NA
HETATM    3  N   UNL     1      40.674 -15.589   2.743  1.00  0.00    -0.238 N 
HETATM    4  C   UNL     1      41.266 -15.980   1.574  1.00  0.00     0.145 A 
HETATM    5  N   UNL     1      40.779 -15.586   0.370  1.00  0.00    -0.365 N 
HETATM    6  C   UNL     1      39.786 -14.523   0.261  1.00  0.00     0.118 C 
HETATM    7  C   UNL     1      38.808 -14.633   1.449  1.00  0.00     0.066 C 
HETATM    8  C   UNL     1      39.497 -14.744   2.824  1.00  0.00     0.221 C 
HETATM    9  C   UNL     1      42.334 -16.766   1.942  1.00  0.00     0.115 A 
HETATM   10 CL   UNL     1      43.449 -17.507   0.899  1.00  0.00    -0.077 Cl
HETATM   11  H   UNL     1      41.308 -15.782  -0.480  1.00  0.00     0.162 HD
ENDROOT
BRANCH   1  12
HETATM   12  C   UNL     1      43.242 -17.474   4.276  1.00  0.00     0.273 C 
HETATM   13  N   UNL     1      43.378 -18.824   4.028  1.00  0.00    -0.353 N 
HETATM   14  H   UNL     1      42.716 -19.216   3.362  1.00  0.00     0.162 HD
HETATM   15  O   UNL     1      43.832 -16.905   5.191  1.00  0.00    -0.266 OA
BRANCH  13  16
HETATM   16  C   UNL     1      44.080 -19.711   4.933  1.00  0.00     0.149 C 
BRANCH  16  17
HETATM   17  C   UNL     1      45.074 -20.618   4.204  1.00  0.00     0.186 C 
BRANCH  17  18
HETATM   18  O   UNL     1      44.804 -20.574   2.798  1.00  0.00    -0.394 OA
HETATM   19  C   UNL     1      44.414 -21.849   2.303  1.00  0.00     0.201 C 
ENDBRANCH  17  18
ENDBRANCH  16  17
ENDBRANCH  13  16
ENDBRANCH   1  12
BRANCH   8  20
HETATM   20  C   UNL     1      39.849 -13.406   3.438  1.00  0.00     0.409 C 
HETATM   21  F   UNL     1      39.054 -12.397   3.038  1.00  0.00    -0.169 F 
HETATM   22  F   UNL     1      39.754 -13.477   4.791  1.00  0.00    -0.169 F 
HETATM   23  F   UNL     1      41.125 -13.047   3.170  1.00  0.00    -0.169 F 
ENDBRANCH   8  20
BRANCH   6  24
HETATM   24  C   UNL     1      40.403 -13.146   0.053  1.00  0.00    -0.035 A 
HETATM   25  C   UNL     1      41.791 -12.939  -0.046  1.00  0.00     0.011 A 
HETATM   26  C   UNL     1      42.320 -11.659  -0.239  1.00  0.00     0.024 A 
HETATM   27  C   UNL     1      41.467 -10.567  -0.347  1.00  0.00     0.034 A 
HETATM   28 CL   UNL     1      42.116  -8.991  -0.579  1.00  0.00    -0.084 Cl
HETATM   29  C   UNL     1      40.089 -10.746  -0.273  1.00  0.00     0.024 A 
HETATM   30  C   UNL     1      39.562 -12.026  -0.081  1.00  0.00     0.011 A 
ENDBRANCH   6  24
TORSDOF 6
ENDMDL
MODEL 8
REMARK VINA RESULT:      -6.6      4.157      7.169
REMARK  6 active torsions:
REMARK  status: ('A' for Active; 'I' for Inactive)
REMARK    1  A    between atoms: O_2  and  C_3 
REMARK    2  A    between atoms: C_3  and  C_4 
REMARK    3  A    between atoms: C_4  and  N_5 
REMARK       I    between atoms: N_5  and  C_6 
REMARK    4  A    between atoms: C_6  and  C_7 
REMARK    5  A    between atoms: C_12  and  C_13 
REMARK    6  A    between atoms: C_21  and  C_22 
ROOT
HETATM    1  C   UNL     1      42.127 -17.174   3.414  1.00  0.00     0.170 A 
HETATM    2  N   UNL     1      42.181 -16.106   4.249  1.00  0.00    -0.163 NA
HETATM    3  N   UNL     1      41.390 -15.196   3.657  1.00  0.00    -0.238 N 
HETATM    4  C   UNL     1      40.787 -15.640   2.514  1.00  0.00     0.145 A 
HETATM    5  N   UNL     1      39.928 -14.853   1.818  1.00  0.00    -0.365 N 
HETATM    6  C   UNL     1      39.813 -13.424   2.089  1.00  0.00     0.118 C 
HETATM    7  C   UNL     1      39.954 -13.194   3.608  1.00  0.00     0.066 C 
HETATM    8  C   UNL     1      41.183 -13.881   4.237  1.00  0.00     0.221 C 
HETATM    9  C   UNL     1      41.250 -16.921   2.322  1.00  0.00     0.115 A 
HETATM   10 CL   UNL     1      40.855 -17.956   1.036  1.00  0.00    -0.077 Cl
HETATM   11  H   UNL     1      39.590 -15.155   0.904  1.00  0.00     0.162 HD
ENDROOT
BRANCH   1  12
HETATM   12  C   UNL     1      42.922 -18.382   3.680  1.00  0.00     0.273 C 
HETATM   13  N   UNL     1      43.475 -18.405   4.943  1.00  0.00    -0.353 N 
HETATM   14  H   UNL     1      43.398 -17.540   5.472  1.00  0.00     0.162 HD
HETATM   15  O   UNL     1      43.107 -19.274   2.857  1.00  0.00    -0.266 OA
BRANCH  13  16
HETATM   16  C   UNL     1      44.462 -19.390   5.338  1.00  0.00     0.149 C 
BRANCH  16  17
HETATM   17  C   UNL     1      43.931 -20.352   6.403  1.00  0.00     0.186 C 
BRANCH  17  18
HETATM   18  O   UNL     1      44.337 -21.686   6.072  1.00  0.00    -0.394 OA
HETATM   19  C   UNL     1      44.892 -21.751   4.765  1.00  0.00     0.201 C 
ENDBRANCH  17  18
ENDBRANCH  16  17
ENDBRANCH  13  16
ENDBRANCH   1  12
BRANCH   8  20
HETATM   20  C   UNL     1      42.451 -13.060   4.152  1.00  0.00     0.409 C 
HETATM   21  F   UNL     1      43.169 -13.281   3.035  1.00  0.00    -0.169 F 
HETATM   22  F   UNL     1      42.149 -11.735   4.178  1.00  0.00    -0.169 F 
HETATM   23  F   UNL     1      43.267 -13.279   5.208  1.00  0.00    -0.169 F 
ENDBRANCH   8  20
BRANCH   6  24
HETATM   24  C   UNL     1      40.726 -12.574   1.215  1.00  0.00    -0.035 A 
HETATM   25  C   UNL     1      41.531 -13.118   0.198  1.00  0.00     0.011 A 
HETATM   26  C   UNL     1      42.356 -12.304  -0.586  1.00  0.00     0.024 A 
HETATM   27  C   UNL     1      42.379 -10.931  -0.370  1.00  0.00     0.034 A 
HETATM   28 CL   UNL     1      43.397  -9.930  -1.329  1.00  0.00    -0.084 Cl
HETATM   29  C   UNL     1      41.578 -10.364   0.616  1.00  0.00     0.024 A 
HETATM   30  C   UNL     1      40.753 -11.179   1.398  1.00  0.00     0.011 A 
ENDBRANCH   6  24
TORSDOF 6
ENDMDL
MODEL 9
REMARK VINA RESULT:      -6.4      4.010      7.738
REMARK  6 active torsions:
REMARK  status: ('A' for Active; 'I' for Inactive)
REMARK    1  A    between atoms: O_2  and  C_3 
REMARK    2  A    between atoms: C_3  and  C_4 
REMARK    3  A    between atoms: C_4  and  N_5 
REMARK       I    between atoms: N_5  and  C_6 
REMARK    4  A    between atoms: C_6  and  C_7 
REMARK    5  A    between atoms: C_12  and  C_13 
REMARK    6  A    between atoms: C_21  and  C_22 
ROOT
HETATM    1  C   UNL     1      41.063 -16.128   2.903  1.00  0.00     0.170 A 
HETATM    2  N   UNL     1      40.037 -15.242   2.980  1.00  0.00    -0.163 NA
HETATM    3  N   UNL     1      39.836 -14.874   1.704  1.00  0.00    -0.238 N 
HETATM    4  C   UNL     1      40.640 -15.515   0.804  1.00  0.00     0.145 A 
HETATM    5  N   UNL     1      40.535 -15.281  -0.528  1.00  0.00    -0.365 N 
HETATM    6  C   UNL     1      39.765 -14.154  -1.045  1.00  0.00     0.118 C 
HETATM    7  C   UNL     1      38.514 -13.961  -0.164  1.00  0.00     0.066 C 
HETATM    8  C   UNL     1      38.810 -13.909   1.348  1.00  0.00     0.221 C 
HETATM    9  C   UNL     1      41.456 -16.333   1.551  1.00  0.00     0.115 A 
HETATM   10 CL   UNL     1      42.679 -17.350   0.960  1.00  0.00    -0.077 Cl
HETATM   11  H   UNL     1      41.227 -15.671  -1.168  1.00  0.00     0.162 HD
ENDROOT
BRANCH   1  12
HETATM   12  C   UNL     1      41.635 -16.728   4.117  1.00  0.00     0.273 C 
HETATM   13  N   UNL     1      42.821 -16.144   4.510  1.00  0.00    -0.353 N 
HETATM   14  H   UNL     1      43.228 -15.489   3.847  1.00  0.00     0.162 HD
HETATM   15  O   UNL     1      41.131 -17.675   4.715  1.00  0.00    -0.266 OA
BRANCH  13  16
HETATM   16  C   UNL     1      43.658 -16.714   5.547  1.00  0.00     0.149 C 
BRANCH  16  17
HETATM   17  C   UNL     1      43.930 -15.727   6.684  1.00  0.00     0.186 C 
BRANCH  17  18
HETATM   18  O   UNL     1      43.559 -16.332   7.928  1.00  0.00    -0.394 OA
HETATM   19  C   UNL     1      43.178 -17.691   7.752  1.00  0.00     0.201 C 
ENDBRANCH  17  18
ENDBRANCH  16  17
ENDBRANCH  13  16
ENDBRANCH   1  12
BRANCH   8  20
HETATM   20  C   UNL     1      39.185 -12.531   1.848  1.00  0.00     0.409 C 
HETATM   21  F   UNL     1      40.508 -12.287   1.832  1.00  0.00    -0.169 F 
HETATM   22  F   UNL     1      38.593 -11.581   1.079  1.00  0.00    -0.169 F 
HETATM   23  F   UNL     1      38.749 -12.316   3.111  1.00  0.00    -0.169 F 
ENDBRANCH   8  20
BRANCH   6  24
HETATM   24  C   UNL     1      40.606 -12.904  -1.263  1.00  0.00    -0.035 A 
HETATM   25  C   UNL     1      40.055 -11.675  -1.671  1.00  0.00     0.011 A 
HETATM   26  C   UNL     1      40.860 -10.547  -1.859  1.00  0.00     0.024 A 
HETATM   27  C   UNL     1      42.230 -10.629  -1.631  1.00  0.00     0.034 A 
HETATM   28 CL   UNL     1      43.222  -9.244  -1.868  1.00  0.00    -0.084 Cl
HETATM   29  C   UNL     1      42.798 -11.826  -1.208  1.00  0.00     0.024 A 
HETATM   30  C   UNL     1      41.991 -12.953  -1.019  1.00  0.00     0.011 A 
ENDBRANCH   6  24
TORSDOF 6
ENDMDL
MODEL 10
REMARK VINA RESULT:      -6.4      2.821      3.693
REMARK  6 active torsions:
REMARK  status: ('A' for Active; 'I' for Inactive)
REMARK    1  A    between atoms: O_2  and  C_3 
REMARK    2  A    between atoms: C_3  and  C_4 
REMARK    3  A    between atoms: C_4  and  N_5 
REMARK       I    between atoms: N_5  and  C_6 
REMARK    4  A    between atoms: C_6  and  C_7 
REMARK    5  A    between atoms: C_12  and  C_13 
REMARK    6  A    between atoms: C_21  and  C_22 
ROOT
HETATM    1  C   UNL     1      40.674 -13.431  -1.012  1.00  0.00     0.170 A 
HETATM    2  N   UNL     1      39.736 -13.775  -0.093  1.00  0.00    -0.163 NA
HETATM    3  N   UNL     1      40.078 -13.066   0.995  1.00  0.00    -0.238 N 
HETATM    4  C   UNL     1      41.154 -12.243   0.809  1.00  0.00     0.145 A 
HETATM    5  N   UNL     1      41.602 -11.433   1.801  1.00  0.00    -0.365 N 
HETATM    6  C   UNL     1      41.146 -11.591   3.178  1.00  0.00     0.118 C 
HETATM    7  C   UNL     1      39.654 -11.980   3.165  1.00  0.00     0.066 C 
HETATM    8  C   UNL     1      39.318 -13.158   2.228  1.00  0.00     0.221 C 
HETATM    9  C   UNL     1      41.571 -12.461  -0.484  1.00  0.00     0.115 A 
HETATM   10 CL   UNL     1      42.891 -11.727  -1.257  1.00  0.00    -0.077 Cl
HETATM   11  H   UNL     1      42.479 -10.925   1.684  1.00  0.00     0.162 HD
ENDROOT
BRANCH   1  12
HETATM   12  C   UNL     1      40.687 -14.051  -2.346  1.00  0.00     0.273 C 
HETATM   13  N   UNL     1      40.012 -15.252  -2.398  1.00  0.00    -0.353 N 
HETATM   14  H   UNL     1      39.724 -15.633  -1.500  1.00  0.00     0.162 HD
HETATM   15  O   UNL     1      41.264 -13.571  -3.318  1.00  0.00    -0.266 OA
BRANCH  13  16
HETATM   16  C   UNL     1      40.080 -16.129  -3.549  1.00  0.00     0.149 C 
BRANCH  16  17
HETATM   17  C   UNL     1      38.807 -16.079  -4.396  1.00  0.00     0.186 C 
BRANCH  17  18
HETATM   18  O   UNL     1      37.710 -15.674  -3.569  1.00  0.00    -0.394 OA
HETATM   19  C   UNL     1      36.941 -14.651  -4.189  1.00  0.00     0.201 C 
ENDBRANCH  17  18
ENDBRANCH  16  17
ENDBRANCH  13  16
ENDBRANCH   1  12
BRANCH   8  20
HETATM   20  C   UNL     1      39.509 -14.517   2.866  1.00  0.00     0.409 C 
HETATM   21  F   UNL     1      39.351 -14.518   4.202  1.00  0.00    -0.169 F 
HETATM   22  F   UNL     1      38.610 -15.399   2.357  1.00  0.00    -0.169 F 
HETATM   23  F   UNL     1      40.731 -15.032   2.602  1.00  0.00    -0.169 F 
ENDBRANCH   8  20
BRANCH   6  24
HETATM   24  C   UNL     1      42.047 -12.495   4.007  1.00  0.00    -0.035 A 
HETATM   25  C   UNL     1      43.047 -13.305   3.438  1.00  0.00     0.011 A 
HETATM   26  C   UNL     1      43.857 -14.122   4.233  1.00  0.00     0.024 A 
HETATM   27  C   UNL     1      43.685 -14.134   5.613  1.00  0.00     0.034 A 
HETATM   28 CL   UNL     1      44.676 -15.143   6.591  1.00  0.00    -0.084 Cl
HETATM   29  C   UNL     1      42.718 -13.328   6.204  1.00  0.00     0.024 A 
HETATM   30  C   UNL     1      41.910 -12.510   5.407  1.00  0.00     0.011 A 
ENDBRANCH   6  24
TORSDOF 6
ENDMDL
