MODEL 1
REMARK VINA RESULT:      -8.0      0.000      0.000
REMARK  6 active torsions:
REMARK  status: ('A' for Active; 'I' for Inactive)
REMARK    1  A    between atoms: C_6  and  C_7 
REMARK    2  A    between atoms: C_7  and  N_8 
REMARK    3  A    between atoms: C_7  and  C_24 
REMARK       I    between atoms: N_8  and  C_9 
REMARK       I    between atoms: C_9  and  N_10 
REMARK    4  A    between atoms: N_10  and  C_11 
REMARK    5  A    between atoms: C_14  and  C_15 
REMARK    6  A    between atoms: C_24  and  O_25 
ROOT
HETATM    1  N   UNL     1      41.579 -14.895  -1.635  1.00  0.00    -0.331 N 
HETATM    2  C   UNL     1      41.204 -15.311  -0.376  1.00  0.00     0.321 C 
HETATM    3  N   UNL     1      42.150 -16.158   0.154  1.00  0.00    -0.309 N 
HETATM    4  O   UNL     1      40.163 -14.946   0.150  1.00  0.00    -0.247 OA
HETATM    5  H   UNL     1      42.567 -14.903  -1.835  1.00  0.00     0.165 HD
HETATM    6  H   UNL     1      42.787 -16.568  -0.513  1.00  0.00     0.170 HD
ENDROOT
BRANCH   1   7
HETATM    7  C   UNL     1      40.775 -13.940  -2.380  1.00  0.00     0.161 C 
BRANCH   7   8
HETATM    8  C   UNL     1      39.808 -14.771  -3.174  1.00  0.00     0.056 A 
HETATM    9  N   UNL     1      38.542 -14.348  -3.507  1.00  0.00    -0.277 N 
HETATM   10  C   UNL     1      37.921 -13.085  -3.181  1.00  0.00     0.179 C 
HETATM   11  N   UNL     1      37.836 -15.267  -4.195  1.00  0.00    -0.185 NA
HETATM   12  C   UNL     1      38.683 -16.285  -4.336  1.00  0.00     0.141 A 
HETATM   13  C   UNL     1      39.918 -16.039  -3.716  1.00  0.00     0.050 A 
ENDBRANCH   7   8
BRANCH   7  14
HETATM   14  C   UNL     1      41.624 -13.006  -3.274  1.00  0.00     0.198 C 
BRANCH  14  15
HETATM   15  O   UNL     1      42.902 -12.768  -2.670  1.00  0.00    -0.394 OA
HETATM   16  C   UNL     1      42.905 -11.565  -1.914  1.00  0.00     0.201 C 
ENDBRANCH  14  15
ENDBRANCH   7  14
ENDBRANCH   1   7
BRANCH   3  17
HETATM   17  C   UNL     1      42.220 -16.650   1.471  1.00  0.00     0.036 A 
HETATM   18  C   UNL     1      41.989 -15.874   2.603  1.00  0.00     0.030 A 
HETATM   19  C   UNL     1      42.118 -16.430   3.882  1.00  0.00     0.010 A 
HETATM   20  C   UNL     1      42.468 -17.780   4.070  1.00  0.00    -0.054 A 
HETATM   21  C   UNL     1      42.716 -18.541   2.922  1.00  0.00     0.010 A 
HETATM   22  C   UNL     1      42.590 -17.985   1.642  1.00  0.00     0.030 A 
BRANCH  20  23
HETATM   23  C   UNL     1      42.619 -18.315   5.495  1.00  0.00     0.018 C 
HETATM   24  C   UNL     1      43.665 -19.447   5.599  1.00  0.00     0.009 C 
HETATM   25  C   UNL     1      45.101 -18.927   5.591  1.00  0.00     0.001 C 
HETATM   26  C   UNL     1      45.331 -17.932   6.722  1.00  0.00     0.000 C 
HETATM   27  C   UNL     1      44.334 -16.782   6.667  1.00  0.00     0.001 C 
HETATM   28  C   UNL     1      42.884 -17.274   6.606  1.00  0.00     0.009 C 
ENDBRANCH  20  23
ENDBRANCH   3  17
TORSDOF 6
ENDMDL
MODEL 2
REMARK VINA RESULT:      -7.9      2.008      3.242
REMARK  6 active torsions:
REMARK  status: ('A' for Active; 'I' for Inactive)
REMARK    1  A    between atoms: C_6  and  C_7 
REMARK    2  A    between atoms: C_7  and  N_8 
REMARK    3  A    between atoms: C_7  and  C_24 
REMARK       I    between atoms: N_8  and  C_9 
REMARK       I    between atoms: C_9  and  N_10 
REMARK    4  A    between atoms: N_10  and  C_11 
REMARK    5  A    between atoms: C_14  and  C_15 
REMARK    6  A    between atoms: C_24  and  O_25 
ROOT
HETATM    1  N   UNL     1      40.773 -15.814  -0.752  1.00  0.00    -0.331 N 
HETATM    2  C   UNL     1      41.625 -15.897   0.327  1.00  0.00     0.321 C 
HETATM    3  N   UNL     1      41.510 -17.125   0.939  1.00  0.00    -0.309 N 
HETATM    4  O   UNL     1      42.361 -14.977   0.653  1.00  0.00    -0.247 OA
HETATM    5  H   UNL     1      40.509 -16.685  -1.185  1.00  0.00     0.165 HD
HETATM    6  H   UNL     1      40.670 -17.640   0.720  1.00  0.00     0.170 HD
ENDROOT
BRANCH   1   7
HETATM    7  C   UNL     1      40.756 -14.636  -1.605  1.00  0.00     0.161 C 
BRANCH   7   8
HETATM    8  C   UNL     1      39.614 -13.800  -1.102  1.00  0.00     0.056 A 
HETATM    9  N   UNL     1      39.782 -12.579  -0.492  1.00  0.00    -0.277 N 
HETATM   10  C   UNL     1      41.023 -11.888  -0.229  1.00  0.00     0.179 C 
HETATM   11  N   UNL     1      38.623 -12.018  -0.093  1.00  0.00    -0.185 NA
HETATM   12  C   UNL     1      37.692 -12.884  -0.488  1.00  0.00     0.141 A 
HETATM   13  C   UNL     1      38.247 -14.013  -1.113  1.00  0.00     0.050 A 
ENDBRANCH   7   8
BRANCH   7  14
HETATM   14  C   UNL     1      40.619 -14.982  -3.106  1.00  0.00     0.198 C 
BRANCH  14  15
HETATM   15  O   UNL     1      40.043 -16.285  -3.264  1.00  0.00    -0.394 OA
HETATM   16  C   UNL     1      38.914 -16.255  -4.127  1.00  0.00     0.201 C 
ENDBRANCH  14  15
ENDBRANCH   7  14
ENDBRANCH   1   7
BRANCH   3  17
HETATM   17  C   UNL     1      42.326 -17.657   1.955  1.00  0.00     0.036 A 
HETATM   18  C   UNL     1      42.456 -17.096   3.221  1.00  0.00     0.030 A 
HETATM   19  C   UNL     1      43.322 -17.665   4.163  1.00  0.00     0.010 A 
HETATM   20  C   UNL     1      44.074 -18.819   3.876  1.00  0.00    -0.054 A 
HETATM   21  C   UNL     1      43.947 -19.359   2.591  1.00  0.00     0.010 A 
HETATM   22  C   UNL     1      43.084 -18.789   1.646  1.00  0.00     0.030 A 
BRANCH  20  23
HETATM   23  C   UNL     1      45.021 -19.371   4.941  1.00  0.00     0.018 C 
HETATM   24  C   UNL     1      44.702 -18.839   6.357  1.00  0.00     0.009 C 
HETATM   25  C   UNL     1      43.503 -19.539   6.993  1.00  0.00     0.001 C 
HETATM   26  C   UNL     1      43.721 -21.045   7.066  1.00  0.00     0.000 C 
HETATM   27  C   UNL     1      44.030 -21.631   5.694  1.00  0.00     0.001 C 
HETATM   28  C   UNL     1      45.187 -20.906   5.000  1.00  0.00     0.009 C 
ENDBRANCH  20  23
ENDBRANCH   3  17
TORSDOF 6
ENDMDL
MODEL 3
REMARK VINA RESULT:      -7.4      1.696      2.815
REMARK  6 active torsions:
REMARK  status: ('A' for Active; 'I' for Inactive)
REMARK    1  A    between atoms: C_6  and  C_7 
REMARK    2  A    between atoms: C_7  and  N_8 
REMARK    3  A    between atoms: C_7  and  C_24 
REMARK       I    between atoms: N_8  and  C_9 
REMARK       I    between atoms: C_9  and  N_10 
REMARK    4  A    between atoms: N_10  and  C_11 
REMARK    5  A    between atoms: C_14  and  C_15 
REMARK    6  A    between atoms: C_24  and  O_25 
ROOT
HETATM    1  N   UNL     1      40.483 -15.101  -0.887  1.00  0.00    -0.331 N 
HETATM    2  C   UNL     1      41.152 -15.266   0.306  1.00  0.00     0.321 C 
HETATM    3  N   UNL     1      40.528 -16.217   1.081  1.00  0.00    -0.309 N 
HETATM    4  O   UNL     1      42.156 -14.628   0.588  1.00  0.00    -0.247 OA
HETATM    5  H   UNL     1      39.940 -15.886  -1.211  1.00  0.00     0.165 HD
HETATM    6  H   UNL     1      39.574 -16.427   0.824  1.00  0.00     0.170 HD
ENDROOT
BRANCH   1   7
HETATM    7  C   UNL     1      40.985 -14.195  -1.909  1.00  0.00     0.161 C 
BRANCH   7   8
HETATM    8  C   UNL     1      40.160 -12.948  -1.772  1.00  0.00     0.056 A 
HETATM    9  N   UNL     1      40.676 -11.740  -1.364  1.00  0.00    -0.277 N 
HETATM   10  C   UNL     1      42.045 -11.442  -1.007  1.00  0.00     0.179 C 
HETATM   11  N   UNL     1      39.751 -10.764  -1.282  1.00  0.00    -0.185 NA
HETATM   12  C   UNL     1      38.625 -11.353  -1.681  1.00  0.00     0.141 A 
HETATM   13  C   UNL     1      38.815 -12.709  -1.990  1.00  0.00     0.050 A 
ENDBRANCH   7   8
BRANCH   7  14
HETATM   14  C   UNL     1      40.915 -14.796  -3.332  1.00  0.00     0.198 C 
BRANCH  14  15
HETATM   15  O   UNL     1      40.200 -16.038  -3.312  1.00  0.00    -0.394 OA
HETATM   16  C   UNL     1      39.106 -16.024  -4.219  1.00  0.00     0.201 C 
ENDBRANCH  14  15
ENDBRANCH   7  14
ENDBRANCH   1   7
BRANCH   3  17
HETATM   17  C   UNL     1      40.996 -16.791   2.278  1.00  0.00     0.036 A 
HETATM   18  C   UNL     1      40.683 -16.308   3.545  1.00  0.00     0.030 A 
HETATM   19  C   UNL     1      41.223 -16.912   4.687  1.00  0.00     0.010 A 
HETATM   20  C   UNL     1      42.081 -18.024   4.601  1.00  0.00    -0.054 A 
HETATM   21  C   UNL     1      42.402 -18.484   3.318  1.00  0.00     0.010 A 
HETATM   22  C   UNL     1      41.864 -17.879   2.174  1.00  0.00     0.030 A 
BRANCH  20  23
HETATM   23  C   UNL     1      42.658 -18.617   5.886  1.00  0.00     0.018 C 
HETATM   24  C   UNL     1      43.845 -19.570   5.624  1.00  0.00     0.009 C 
HETATM   25  C   UNL     1      45.144 -18.826   5.328  1.00  0.00     0.001 C 
HETATM   26  C   UNL     1      45.509 -17.882   6.467  1.00  0.00     0.000 C 
HETATM   27  C   UNL     1      44.378 -16.906   6.766  1.00  0.00     0.001 C 
HETATM   28  C   UNL     1      43.043 -17.620   7.003  1.00  0.00     0.009 C 
ENDBRANCH  20  23
ENDBRANCH   3  17
TORSDOF 6
ENDMDL
MODEL 4
REMARK VINA RESULT:      -7.4      1.324      2.213
REMARK  6 active torsions:
REMARK  status: ('A' for Active; 'I' for Inactive)
REMARK    1  A    between atoms: C_6  and  C_7 
REMARK    2  A    between atoms: C_7  and  N_8 
REMARK    3  A    between atoms: C_7  and  C_24 
REMARK       I    between atoms: N_8  and  C_9 
REMARK       I    between atoms: C_9  and  N_10 
REMARK    4  A    between atoms: N_10  and  C_11 
REMARK    5  A    between atoms: C_14  and  C_15 
REMARK    6  A    between atoms: C_24  and  O_25 
ROOT
HETATM    1  N   UNL     1      40.585 -15.691  -0.661  1.00  0.00    -0.331 N 
HETATM    2  C   UNL     1      41.475 -15.755   0.389  1.00  0.00     0.321 C 
HETATM    3  N   UNL     1      41.512 -17.027   0.913  1.00  0.00    -0.309 N 
HETATM    4  O   UNL     1      42.118 -14.785   0.762  1.00  0.00    -0.247 OA
HETATM    5  H   UNL     1      40.402 -16.554  -1.148  1.00  0.00     0.165 HD
HETATM    6  H   UNL     1      40.726 -17.615   0.678  1.00  0.00     0.170 HD
ENDROOT
BRANCH   1   7
HETATM    7  C   UNL     1      40.414 -14.466  -1.425  1.00  0.00     0.161 C 
BRANCH   7   8
HETATM    8  C   UNL     1      39.464 -14.820  -2.534  1.00  0.00     0.056 A 
HETATM    9  N   UNL     1      38.278 -14.160  -2.754  1.00  0.00    -0.277 N 
HETATM   10  C   UNL     1      37.735 -13.049  -2.006  1.00  0.00     0.179 C 
HETATM   11  N   UNL     1      37.570 -14.665  -3.783  1.00  0.00    -0.185 NA
HETATM   12  C   UNL     1      38.337 -15.646  -4.253  1.00  0.00     0.141 A 
HETATM   13  C   UNL     1      39.521 -15.795  -3.514  1.00  0.00     0.050 A 
ENDBRANCH   7   8
BRANCH   7  14
HETATM   14  C   UNL     1      41.751 -13.894  -1.952  1.00  0.00     0.198 C 
BRANCH  14  15
HETATM   15  O   UNL     1      41.630 -12.485  -2.185  1.00  0.00    -0.394 OA
HETATM   16  C   UNL     1      41.163 -11.804  -1.028  1.00  0.00     0.201 C 
ENDBRANCH  14  15
ENDBRANCH   7  14
ENDBRANCH   1   7
BRANCH   3  17
HETATM   17  C   UNL     1      42.413 -17.536   1.868  1.00  0.00     0.036 A 
HETATM   18  C   UNL     1      43.376 -18.501   1.589  1.00  0.00     0.030 A 
HETATM   19  C   UNL     1      44.208 -18.985   2.606  1.00  0.00     0.010 A 
HETATM   20  C   UNL     1      44.115 -18.512   3.928  1.00  0.00    -0.054 A 
HETATM   21  C   UNL     1      43.127 -17.557   4.195  1.00  0.00     0.010 A 
HETATM   22  C   UNL     1      42.291 -17.073   3.180  1.00  0.00     0.030 A 
BRANCH  20  23
HETATM   23  C   UNL     1      45.036 -19.105   4.994  1.00  0.00     0.018 C 
HETATM   24  C   UNL     1      44.546 -18.819   6.432  1.00  0.00     0.009 C 
HETATM   25  C   UNL     1      43.394 -19.728   6.853  1.00  0.00     0.001 C 
HETATM   26  C   UNL     1      43.785 -21.197   6.745  1.00  0.00     0.000 C 
HETATM   27  C   UNL     1      44.267 -21.544   5.342  1.00  0.00     0.001 C 
HETATM   28  C   UNL     1      45.380 -20.606   4.863  1.00  0.00     0.009 C 
ENDBRANCH  20  23
ENDBRANCH   3  17
TORSDOF 6
ENDMDL
MODEL 5
REMARK VINA RESULT:      -7.3      6.279      9.389
REMARK  6 active torsions:
REMARK  status: ('A' for Active; 'I' for Inactive)
REMARK    1  A    between atoms: C_6  and  C_7 
REMARK    2  A    between atoms: C_7  and  N_8 
REMARK    3  A    between atoms: C_7  and  C_24 
REMARK       I    between atoms: N_8  and  C_9 
REMARK       I    between atoms: C_9  and  N_10 
REMARK    4  A    between atoms: N_10  and  C_11 
REMARK    5  A    between atoms: C_14  and  C_15 
REMARK    6  A    between atoms: C_24  and  O_25 
ROOT
HETATM    1  N   UNL     1      39.828 -11.897   7.700  1.00  0.00    -0.331 N 
HETATM    2  C   UNL     1      40.566 -12.586   6.763  1.00  0.00     0.321 C 
HETATM    3  N   UNL     1      40.005 -13.818   6.518  1.00  0.00    -0.309 N 
HETATM    4  O   UNL     1      41.574 -12.120   6.252  1.00  0.00    -0.247 OA
HETATM    5  H   UNL     1      38.854 -12.147   7.778  1.00  0.00     0.165 HD
HETATM    6  H   UNL     1      39.359 -14.147   7.220  1.00  0.00     0.170 HD
ENDROOT
BRANCH   1   7
HETATM    7  C   UNL     1      40.180 -10.539   8.083  1.00  0.00     0.161 C 
BRANCH   7   8
HETATM    8  C   UNL     1      40.575 -10.625   9.529  1.00  0.00     0.056 A 
HETATM    9  N   UNL     1      41.877 -10.763   9.951  1.00  0.00    -0.277 N 
HETATM   10  C   UNL     1      43.065 -10.846   9.133  1.00  0.00     0.179 C 
HETATM   11  N   UNL     1      41.997 -10.851  11.291  1.00  0.00    -0.185 NA
HETATM   12  C   UNL     1      40.748 -10.731  11.736  1.00  0.00     0.141 A 
HETATM   13  C   UNL     1      39.821 -10.596  10.689  1.00  0.00     0.050 A 
ENDBRANCH   7   8
BRANCH   7  14
HETATM   14  C   UNL     1      39.034  -9.529   7.842  1.00  0.00     0.198 C 
BRANCH  14  15
HETATM   15  O   UNL     1      38.708  -9.471   6.448  1.00  0.00    -0.394 OA
HETATM   16  C   UNL     1      39.786  -8.949   5.683  1.00  0.00     0.201 C 
ENDBRANCH  14  15
ENDBRANCH   7  14
ENDBRANCH   1   7
BRANCH   3  17
HETATM   17  C   UNL     1      40.356 -14.736   5.509  1.00  0.00     0.036 A 
HETATM   18  C   UNL     1      40.069 -14.554   4.160  1.00  0.00     0.030 A 
HETATM   19  C   UNL     1      40.417 -15.535   3.223  1.00  0.00     0.010 A 
HETATM   20  C   UNL     1      41.075 -16.720   3.602  1.00  0.00    -0.054 A 
HETATM   21  C   UNL     1      41.338 -16.896   4.965  1.00  0.00     0.010 A 
HETATM   22  C   UNL     1      40.988 -15.917   5.904  1.00  0.00     0.030 A 
BRANCH  20  23
HETATM   23  C   UNL     1      41.400 -17.762   2.531  1.00  0.00     0.018 C 
HETATM   24  C   UNL     1      41.586 -17.139   1.129  1.00  0.00     0.009 C 
HETATM   25  C   UNL     1      42.948 -16.469   0.959  1.00  0.00     0.001 C 
HETATM   26  C   UNL     1      44.081 -17.454   1.219  1.00  0.00     0.000 C 
HETATM   27  C   UNL     1      43.958 -18.095   2.595  1.00  0.00     0.001 C 
HETATM   28  C   UNL     1      42.578 -18.719   2.823  1.00  0.00     0.009 C 
ENDBRANCH  20  23
ENDBRANCH   3  17
TORSDOF 6
ENDMDL
MODEL 6
REMARK VINA RESULT:      -7.2      5.063      8.416
REMARK  6 active torsions:
REMARK  status: ('A' for Active; 'I' for Inactive)
REMARK    1  A    between atoms: C_6  and  C_7 
REMARK    2  A    between atoms: C_7  and  N_8 
REMARK    3  A    between atoms: C_7  and  C_24 
REMARK       I    between atoms: N_8  and  C_9 
REMARK       I    between atoms: C_9  and  N_10 
REMARK    4  A    between atoms: N_10  and  C_11 
REMARK    5  A    between atoms: C_14  and  C_15 
REMARK    6  A    between atoms: C_24  and  O_25 
ROOT
HETATM    1  N   UNL     1      43.165 -16.453   4.466  1.00  0.00    -0.331 N 
HETATM    2  C   UNL     1      43.081 -15.824   5.688  1.00  0.00     0.321 C 
HETATM    3  N   UNL     1      43.881 -14.704   5.711  1.00  0.00    -0.309 N 
HETATM    4  O   UNL     1      42.377 -16.245   6.595  1.00  0.00    -0.247 OA
HETATM    5  H   UNL     1      43.425 -15.877   3.680  1.00  0.00     0.165 HD
HETATM    6  H   UNL     1      44.595 -14.668   4.998  1.00  0.00     0.170 HD
ENDROOT
BRANCH   1   7
HETATM    7  C   UNL     1      42.361 -17.628   4.170  1.00  0.00     0.161 C 
BRANCH   7   8
HETATM    8  C   UNL     1      43.346 -18.699   3.800  1.00  0.00     0.056 A 
HETATM    9  N   UNL     1      43.968 -19.506   4.724  1.00  0.00    -0.277 N 
HETATM   10  C   UNL     1      43.807 -19.490   6.160  1.00  0.00     0.179 C 
HETATM   11  N   UNL     1      44.836 -20.378   4.173  1.00  0.00    -0.185 NA
HETATM   12  C   UNL     1      44.738 -20.146   2.865  1.00  0.00     0.141 A 
HETATM   13  C   UNL     1      43.836 -19.111   2.574  1.00  0.00     0.050 A 
ENDBRANCH   7   8
BRANCH   7  14
HETATM   14  C   UNL     1      41.316 -17.376   3.058  1.00  0.00     0.198 C 
BRANCH  14  15
HETATM   15  O   UNL     1      41.295 -15.988   2.701  1.00  0.00    -0.394 OA
HETATM   16  C   UNL     1      40.027 -15.600   2.190  1.00  0.00     0.201 C 
ENDBRANCH  14  15
ENDBRANCH   7  14
ENDBRANCH   1   7
BRANCH   3  17
HETATM   17  C   UNL     1      43.934 -13.706   6.703  1.00  0.00     0.036 A 
HETATM   18  C   UNL     1      44.926 -13.631   7.675  1.00  0.00     0.030 A 
HETATM   19  C   UNL     1      44.884 -12.630   8.654  1.00  0.00     0.010 A 
HETATM   20  C   UNL     1      43.860 -11.666   8.684  1.00  0.00    -0.054 A 
HETATM   21  C   UNL     1      42.859 -11.769   7.711  1.00  0.00     0.010 A 
HETATM   22  C   UNL     1      42.897 -12.771   6.733  1.00  0.00     0.030 A 
BRANCH  20  23
HETATM   23  C   UNL     1      43.860 -10.618   9.797  1.00  0.00     0.018 C 
HETATM   24  C   UNL     1      42.453 -10.046  10.079  1.00  0.00     0.009 C 
HETATM   25  C   UNL     1      41.586 -10.993  10.905  1.00  0.00     0.001 C 
HETATM   26  C   UNL     1      42.256 -11.336  12.230  1.00  0.00     0.000 C 
HETATM   27  C   UNL     1      43.648 -11.917  12.017  1.00  0.00     0.001 C 
HETATM   28  C   UNL     1      44.522 -11.021  11.134  1.00  0.00     0.009 C 
ENDBRANCH  20  23
ENDBRANCH   3  17
TORSDOF 6
ENDMDL
MODEL 7
REMARK VINA RESULT:      -7.2      3.193      9.246
REMARK  6 active torsions:
REMARK  status: ('A' for Active; 'I' for Inactive)
REMARK    1  A    between atoms: C_6  and  C_7 
REMARK    2  A    between atoms: C_7  and  N_8 
REMARK    3  A    between atoms: C_7  and  C_24 
REMARK       I    between atoms: N_8  and  C_9 
REMARK       I    between atoms: C_9  and  N_10 
REMARK    4  A    between atoms: N_10  and  C_11 
REMARK    5  A    between atoms: C_14  and  C_15 
REMARK    6  A    between atoms: C_24  and  O_25 
ROOT
HETATM    1  N   UNL     1      42.777 -17.679   4.539  1.00  0.00    -0.331 N 
HETATM    2  C   UNL     1      42.863 -17.070   3.305  1.00  0.00     0.321 C 
HETATM    3  N   UNL     1      41.629 -17.036   2.697  1.00  0.00    -0.309 N 
HETATM    4  O   UNL     1      43.916 -16.638   2.860  1.00  0.00    -0.247 OA
HETATM    5  H   UNL     1      41.878 -17.650   4.993  1.00  0.00     0.165 HD
HETATM    6  H   UNL     1      40.945 -17.679   3.070  1.00  0.00     0.170 HD
ENDROOT
BRANCH   1   7
HETATM    7  C   UNL     1      43.939 -17.779   5.408  1.00  0.00     0.161 C 
BRANCH   7   8
HETATM    8  C   UNL     1      43.948 -19.200   5.894  1.00  0.00     0.056 A 
HETATM    9  N   UNL     1      44.399 -20.256   5.138  1.00  0.00    -0.277 N 
HETATM   10  C   UNL     1      44.930 -20.215   3.794  1.00  0.00     0.179 C 
HETATM   11  N   UNL     1      44.287 -21.446   5.761  1.00  0.00    -0.185 NA
HETATM   12  C   UNL     1      43.786 -21.138   6.955  1.00  0.00     0.141 A 
HETATM   13  C   UNL     1      43.547 -19.761   7.094  1.00  0.00     0.050 A 
ENDBRANCH   7   8
BRANCH   7  14
HETATM   14  C   UNL     1      43.911 -16.757   6.569  1.00  0.00     0.198 C 
BRANCH  14  15
HETATM   15  O   UNL     1      43.913 -15.420   6.052  1.00  0.00    -0.394 OA
HETATM   16  C   UNL     1      44.680 -14.547   6.871  1.00  0.00     0.201 C 
ENDBRANCH  14  15
ENDBRANCH   7  14
ENDBRANCH   1   7
BRANCH   3  17
HETATM   17  C   UNL     1      41.270 -16.350   1.522  1.00  0.00     0.036 A 
HETATM   18  C   UNL     1      41.776 -16.652   0.261  1.00  0.00     0.030 A 
HETATM   19  C   UNL     1      41.398 -15.894  -0.854  1.00  0.00     0.010 A 
HETATM   20  C   UNL     1      40.495 -14.820  -0.748  1.00  0.00    -0.054 A 
HETATM   21  C   UNL     1      40.013 -14.516   0.530  1.00  0.00     0.010 A 
HETATM   22  C   UNL     1      40.391 -15.272   1.648  1.00  0.00     0.030 A 
BRANCH  20  23
HETATM   23  C   UNL     1      40.149 -14.016  -2.002  1.00  0.00     0.018 C 
HETATM   24  C   UNL     1      40.550 -14.742  -3.305  1.00  0.00     0.009 C 
HETATM   25  C   UNL     1      39.571 -15.850  -3.688  1.00  0.00     0.001 C 
HETATM   26  C   UNL     1      38.156 -15.305  -3.838  1.00  0.00     0.000 C 
HETATM   27  C   UNL     1      37.698 -14.585  -2.575  1.00  0.00     0.001 C 
HETATM   28  C   UNL     1      38.694 -13.511  -2.127  1.00  0.00     0.009 C 
ENDBRANCH  20  23
ENDBRANCH   3  17
TORSDOF 6
ENDMDL
MODEL 8
REMARK VINA RESULT:      -6.9      3.309      9.056
REMARK  6 active torsions:
REMARK  status: ('A' for Active; 'I' for Inactive)
REMARK    1  A    between atoms: C_6  and  C_7 
REMARK    2  A    between atoms: C_7  and  N_8 
REMARK    3  A    between atoms: C_7  and  C_24 
REMARK       I    between atoms: N_8  and  C_9 
REMARK       I    between atoms: C_9  and  N_10 
REMARK    4  A    between atoms: N_10  and  C_11 
REMARK    5  A    between atoms: C_14  and  C_15 
REMARK    6  A    between atoms: C_24  and  O_25 
ROOT
HETATM    1  N   UNL     1      43.005 -18.582   4.346  1.00  0.00    -0.331 N 
HETATM    2  C   UNL     1      42.965 -17.642   3.340  1.00  0.00     0.321 C 
HETATM    3  N   UNL     1      41.689 -17.529   2.836  1.00  0.00    -0.309 N 
HETATM    4  O   UNL     1      43.956 -17.022   2.983  1.00  0.00    -0.247 OA
HETATM    5  H   UNL     1      42.141 -18.752   4.837  1.00  0.00     0.165 HD
HETATM    6  H   UNL     1      41.072 -18.301   3.043  1.00  0.00     0.170 HD
ENDROOT
BRANCH   1   7
HETATM    7  C   UNL     1      44.231 -18.839   5.084  1.00  0.00     0.161 C 
BRANCH   7   8
HETATM    8  C   UNL     1      44.412 -20.329   5.045  1.00  0.00     0.056 A 
HETATM    9  N   UNL     1      44.705 -21.026   3.897  1.00  0.00    -0.277 N 
HETATM   10  C   UNL     1      44.891 -20.494   2.566  1.00  0.00     0.179 C 
HETATM   11  N   UNL     1      44.794 -22.357   4.088  1.00  0.00    -0.185 NA
HETATM   12  C   UNL     1      44.588 -22.510   5.394  1.00  0.00     0.141 A 
HETATM   13  C   UNL     1      44.338 -21.288   6.040  1.00  0.00     0.050 A 
ENDBRANCH   7   8
BRANCH   7  14
HETATM   14  C   UNL     1      44.191 -18.286   6.528  1.00  0.00     0.198 C 
BRANCH  14  15
HETATM   15  O   UNL     1      44.953 -17.074   6.617  1.00  0.00    -0.394 OA
HETATM   16  C   UNL     1      44.109 -15.933   6.687  1.00  0.00     0.201 C 
ENDBRANCH  14  15
ENDBRANCH   7  14
ENDBRANCH   1   7
BRANCH   3  17
HETATM   17  C   UNL     1      41.206 -16.564   1.932  1.00  0.00     0.036 A 
HETATM   18  C   UNL     1      40.279 -15.582   2.267  1.00  0.00     0.030 A 
HETATM   19  C   UNL     1      39.817 -14.683   1.297  1.00  0.00     0.010 A 
HETATM   20  C   UNL     1      40.277 -14.728  -0.033  1.00  0.00    -0.054 A 
HETATM   21  C   UNL     1      41.192 -15.735  -0.357  1.00  0.00     0.010 A 
HETATM   22  C   UNL     1      41.653 -16.637   0.611  1.00  0.00     0.030 A 
BRANCH  20  23
HETATM   23  C   UNL     1      39.709 -13.735  -1.047  1.00  0.00     0.018 C 
HETATM   24  C   UNL     1      40.630 -12.514  -1.265  1.00  0.00     0.009 C 
HETATM   25  C   UNL     1      41.821 -12.827  -2.168  1.00  0.00     0.001 C 
HETATM   26  C   UNL     1      41.361 -13.351  -3.523  1.00  0.00     0.000 C 
HETATM   27  C   UNL     1      40.455 -14.567  -3.373  1.00  0.00     0.001 C 
HETATM   28  C   UNL     1      39.285 -14.305  -2.420  1.00  0.00     0.009 C 
ENDBRANCH  20  23
ENDBRANCH   3  17
TORSDOF 6
ENDMDL
MODEL 9
REMARK VINA RESULT:      -6.9      3.334      9.142
REMARK  6 active torsions:
REMARK  status: ('A' for Active; 'I' for Inactive)
REMARK    1  A    between atoms: C_6  and  C_7 
REMARK    2  A    between atoms: C_7  and  N_8 
REMARK    3  A    between atoms: C_7  and  C_24 
REMARK       I    between atoms: N_8  and  C_9 
REMARK       I    between atoms: C_9  and  N_10 
REMARK    4  A    between atoms: N_10  and  C_11 
REMARK    5  A    between atoms: C_14  and  C_15 
REMARK    6  A    between atoms: C_24  and  O_25 
ROOT
HETATM    1  N   UNL     1      42.709 -17.699   4.836  1.00  0.00    -0.331 N 
HETATM    2  C   UNL     1      42.805 -17.100   3.599  1.00  0.00     0.321 C 
HETATM    3  N   UNL     1      41.572 -17.050   2.989  1.00  0.00    -0.309 N 
HETATM    4  O   UNL     1      43.866 -16.687   3.153  1.00  0.00    -0.247 OA
HETATM    5  H   UNL     1      41.809 -17.653   5.288  1.00  0.00     0.165 HD
HETATM    6  H   UNL     1      40.878 -17.680   3.365  1.00  0.00     0.170 HD
ENDROOT
BRANCH   1   7
HETATM    7  C   UNL     1      43.867 -17.812   5.707  1.00  0.00     0.161 C 
BRANCH   7   8
HETATM    8  C   UNL     1      43.898 -19.250   6.141  1.00  0.00     0.056 A 
HETATM    9  N   UNL     1      44.380 -20.268   5.352  1.00  0.00    -0.277 N 
HETATM   10  C   UNL     1      44.929 -20.167   4.020  1.00  0.00     0.179 C 
HETATM   11  N   UNL     1      44.283 -21.482   5.930  1.00  0.00    -0.185 NA
HETATM   12  C   UNL     1      43.760 -21.229   7.127  1.00  0.00     0.141 A 
HETATM   13  C   UNL     1      43.492 -19.863   7.313  1.00  0.00     0.050 A 
ENDBRANCH   7   8
BRANCH   7  14
HETATM   14  C   UNL     1      43.817 -16.835   6.905  1.00  0.00     0.198 C 
BRANCH  14  15
HETATM   15  O   UNL     1      44.627 -15.682   6.638  1.00  0.00    -0.394 OA
HETATM   16  C   UNL     1      43.830 -14.538   6.365  1.00  0.00     0.201 C 
ENDBRANCH  14  15
ENDBRANCH   7  14
ENDBRANCH   1   7
BRANCH   3  17
HETATM   17  C   UNL     1      41.226 -16.366   1.809  1.00  0.00     0.036 A 
HETATM   18  C   UNL     1      41.703 -16.704   0.547  1.00  0.00     0.030 A 
HETATM   19  C   UNL     1      41.341 -15.946  -0.574  1.00  0.00     0.010 A 
HETATM   20  C   UNL     1      40.482 -14.836  -0.472  1.00  0.00    -0.054 A 
HETATM   21  C   UNL     1      40.028 -14.497   0.808  1.00  0.00     0.010 A 
HETATM   22  C   UNL     1      40.391 -15.253   1.931  1.00  0.00     0.030 A 
BRANCH  20  23
HETATM   23  C   UNL     1      40.152 -14.036  -1.731  1.00  0.00     0.018 C 
HETATM   24  C   UNL     1      39.847 -12.551  -1.433  1.00  0.00     0.009 C 
HETATM   25  C   UNL     1      41.109 -11.729  -1.184  1.00  0.00     0.001 C 
HETATM   26  C   UNL     1      42.061 -11.811  -2.371  1.00  0.00     0.000 C 
HETATM   27  C   UNL     1      42.409 -13.255  -2.709  1.00  0.00     0.001 C 
HETATM   28  C   UNL     1      41.161 -14.123  -2.898  1.00  0.00     0.009 C 
ENDBRANCH  20  23
ENDBRANCH   3  17
TORSDOF 6
ENDMDL
MODEL 10
REMARK VINA RESULT:      -6.9      1.758      2.562
REMARK  6 active torsions:
REMARK  status: ('A' for Active; 'I' for Inactive)
REMARK    1  A    between atoms: C_6  and  C_7 
REMARK    2  A    between atoms: C_7  and  N_8 
REMARK    3  A    between atoms: C_7  and  C_24 
REMARK       I    between atoms: N_8  and  C_9 
REMARK       I    between atoms: C_9  and  N_10 
REMARK    4  A    between atoms: N_10  and  C_11 
REMARK    5  A    between atoms: C_14  and  C_15 
REMARK    6  A    between atoms: C_24  and  O_25 
ROOT
HETATM    1  N   UNL     1      39.494 -14.464  -0.848  1.00  0.00    -0.331 N 
HETATM    2  C   UNL     1      40.376 -14.684   0.188  1.00  0.00     0.321 C 
HETATM    3  N   UNL     1      39.757 -15.363   1.212  1.00  0.00    -0.309 N 
HETATM    4  O   UNL     1      41.538 -14.306   0.150  1.00  0.00    -0.247 OA
HETATM    5  H   UNL     1      38.722 -15.108  -0.926  1.00  0.00     0.165 HD
HETATM    6  H   UNL     1      38.747 -15.341   1.198  1.00  0.00     0.170 HD
ENDROOT
BRANCH   1   7
HETATM    7  C   UNL     1      39.927 -13.820  -2.078  1.00  0.00     0.161 C 
BRANCH   7   8
HETATM    8  C   UNL     1      38.817 -12.877  -2.443  1.00  0.00     0.056 A 
HETATM    9  N   UNL     1      38.908 -11.512  -2.306  1.00  0.00    -0.277 N 
HETATM   10  C   UNL     1      40.031 -10.748  -1.812  1.00  0.00     0.179 C 
HETATM   11  N   UNL     1      37.783 -10.863  -2.666  1.00  0.00    -0.185 NA
HETATM   12  C   UNL     1      36.968 -11.833  -3.076  1.00  0.00     0.141 A 
HETATM   13  C   UNL     1      37.551 -13.105  -2.954  1.00  0.00     0.050 A 
ENDBRANCH   7   8
BRANCH   7  14
HETATM   14  C   UNL     1      40.242 -14.830  -3.207  1.00  0.00     0.198 C 
BRANCH  14  15
HETATM   15  O   UNL     1      41.642 -14.811  -3.513  1.00  0.00    -0.394 OA
HETATM   16  C   UNL     1      42.225 -13.552  -3.206  1.00  0.00     0.201 C 
ENDBRANCH  14  15
ENDBRANCH   7  14
ENDBRANCH   1   7
BRANCH   3  17
HETATM   17  C   UNL     1      40.356 -15.924   2.356  1.00  0.00     0.036 A 
HETATM   18  C   UNL     1      40.901 -17.204   2.398  1.00  0.00     0.030 A 
HETATM   19  C   UNL     1      41.444 -17.703   3.589  1.00  0.00     0.010 A 
HETATM   20  C   UNL     1      41.472 -16.937   4.769  1.00  0.00    -0.054 A 
HETATM   21  C   UNL     1      40.901 -15.661   4.714  1.00  0.00     0.010 A 
HETATM   22  C   UNL     1      40.355 -15.160   3.524  1.00  0.00     0.030 A 
BRANCH  20  23
HETATM   23  C   UNL     1      42.053 -17.556   6.040  1.00  0.00     0.018 C 
HETATM   24  C   UNL     1      43.020 -18.725   5.747  1.00  0.00     0.009 C 
HETATM   25  C   UNL     1      44.398 -18.250   5.291  1.00  0.00     0.001 C 
HETATM   26  C   UNL     1      45.032 -17.329   6.326  1.00  0.00     0.000 C 
HETATM   27  C   UNL     1      44.128 -16.146   6.650  1.00  0.00     0.001 C 
HETATM   28  C   UNL     1      42.716 -16.588   7.047  1.00  0.00     0.009 C 
ENDBRANCH  20  23
ENDBRANCH   3  17
TORSDOF 6
ENDMDL
