MODEL 1
REMARK VINA RESULT:      -8.2      0.000      0.000
REMARK  6 active torsions:
REMARK  status: ('A' for Active; 'I' for Inactive)
REMARK    1  A    between atoms: C_2  and  S_3 
REMARK    2  A    between atoms: C_2  and  C_18 
REMARK    3  A    between atoms: S_3  and  C_4 
REMARK    4  A    between atoms: C_4  and  C_5 
REMARK       I    between atoms: C_5  and  N_6 
REMARK    5  A    between atoms: N_6  and  C_7 
REMARK    6  A    between atoms: C_10  and  C_11 
REMARK       I    between atoms: C_11  and  N_12 
ROOT
HETATM    1  C   UNL     1      43.247 -14.263   4.054  1.00  0.00     0.231 C 
HETATM    2  N   UNL     1      42.164 -14.905   3.469  1.00  0.00    -0.327 N 
HETATM    3  O   UNL     1      44.143 -13.668   3.461  1.00  0.00    -0.272 OA
HETATM    4  H   UNL     1      41.511 -15.358   4.097  1.00  0.00     0.169 HD
ENDROOT
BRANCH   1   5
HETATM    5  C   UNL     1      43.252 -14.365   5.573  1.00  0.00     0.177 C 
BRANCH   5   6
HETATM    6  S   UNL     1      42.343 -15.861   6.087  1.00  0.00    -0.147 SA
BRANCH   6   7
HETATM    7  C   UNL     1      43.784 -16.954   6.380  1.00  0.00     0.113 C 
HETATM    8  C   UNL     1      43.703 -17.545   7.785  1.00  0.00     0.029 C 
BRANCH   7   9
HETATM    9  C   UNL     1      43.854 -18.011   5.322  1.00  0.00     0.118 A 
HETATM   10  N   UNL     1      43.329 -17.940   4.114  1.00  0.00    -0.232 NA
HETATM   11  C   UNL     1      43.621 -19.137   3.509  1.00  0.00     0.085 A 
HETATM   12  C   UNL     1      44.320 -19.972   4.373  1.00  0.00     0.062 A 
HETATM   13  C   UNL     1      43.313 -19.590   2.218  1.00  0.00     0.034 A 
HETATM   14  N   UNL     1      44.452 -19.235   5.521  1.00  0.00    -0.342 N 
HETATM   15  C   UNL     1      44.739 -21.258   4.027  1.00  0.00     0.032 A 
HETATM   16  H   UNL     1      44.896 -19.540   6.376  1.00  0.00     0.167 HD
HETATM   17  C   UNL     1      44.424 -21.694   2.735  1.00  0.00     0.002 A 
HETATM   18  C   UNL     1      43.724 -20.876   1.844  1.00  0.00     0.002 A 
ENDBRANCH   7   9
ENDBRANCH   6   7
ENDBRANCH   5   6
ENDBRANCH   1   5
BRANCH   2  19
HETATM   19  C   UNL     1      41.871 -15.007   2.094  1.00  0.00     0.034 A 
HETATM   20  C   UNL     1      41.865 -16.210   1.383  1.00  0.00     0.030 A 
HETATM   21  C   UNL     1      41.555 -16.235   0.016  1.00  0.00     0.019 A 
HETATM   22  C   UNL     1      41.229 -15.054  -0.655  1.00  0.00     0.032 A 
HETATM   23  C   UNL     1      41.256 -13.844   0.047  1.00  0.00     0.019 A 
HETATM   24  C   UNL     1      41.575 -13.822   1.410  1.00  0.00     0.030 A 
BRANCH  22  25
HETATM   25  C   UNL     1      40.878 -15.026  -2.106  1.00  0.00     0.251 C 
HETATM   26  N   UNL     1      39.778 -15.764  -2.491  1.00  0.00    -0.361 N 
HETATM   27  C   UNL     1      39.303 -15.764  -3.853  1.00  0.00     0.149 C 
HETATM   28  H   UNL     1      39.166 -16.150  -1.786  1.00  0.00     0.162 HD
HETATM   29  O   UNL     1      41.541 -14.344  -2.880  1.00  0.00    -0.268 OA
ENDBRANCH  22  25
ENDBRANCH   2  19
TORSDOF 6
ENDMDL
MODEL 2
REMARK VINA RESULT:      -8.0      2.745      6.177
REMARK  6 active torsions:
REMARK  status: ('A' for Active; 'I' for Inactive)
REMARK    1  A    between atoms: C_2  and  S_3 
REMARK    2  A    between atoms: C_2  and  C_18 
REMARK    3  A    between atoms: S_3  and  C_4 
REMARK    4  A    between atoms: C_4  and  C_5 
REMARK       I    between atoms: C_5  and  N_6 
REMARK    5  A    between atoms: N_6  and  C_7 
REMARK    6  A    between atoms: C_10  and  C_11 
REMARK       I    between atoms: C_11  and  N_12 
ROOT
HETATM    1  C   UNL     1      41.781 -14.981   1.686  1.00  0.00     0.231 C 
HETATM    2  N   UNL     1      42.993 -15.500   2.119  1.00  0.00    -0.327 N 
HETATM    3  O   UNL     1      40.787 -15.628   1.369  1.00  0.00    -0.272 OA
HETATM    4  H   UNL     1      43.723 -14.832   2.336  1.00  0.00     0.169 HD
ENDROOT
BRANCH   1   5
HETATM    5  C   UNL     1      41.775 -13.460   1.614  1.00  0.00     0.177 C 
BRANCH   5   6
HETATM    6  S   UNL     1      40.570 -12.799   2.814  1.00  0.00    -0.147 SA
BRANCH   6   7
HETATM    7  C   UNL     1      41.742 -12.382   4.159  1.00  0.00     0.113 C 
HETATM    8  C   UNL     1      41.165 -11.257   5.013  1.00  0.00     0.029 C 
BRANCH   7   9
HETATM    9  C   UNL     1      42.058 -13.603   4.966  1.00  0.00     0.118 A 
HETATM   10  N   UNL     1      41.220 -14.576   5.266  1.00  0.00    -0.232 NA
HETATM   11  C   UNL     1      41.936 -15.462   6.033  1.00  0.00     0.085 A 
HETATM   12  C   UNL     1      43.237 -15.011   6.226  1.00  0.00     0.062 A 
HETATM   13  C   UNL     1      41.539 -16.676   6.609  1.00  0.00     0.034 A 
HETATM   14  N   UNL     1      43.289 -13.825   5.541  1.00  0.00    -0.342 N 
HETATM   15  C   UNL     1      44.187 -15.707   6.976  1.00  0.00     0.032 A 
HETATM   16  H   UNL     1      44.085 -13.208   5.482  1.00  0.00     0.167 HD
HETATM   17  C   UNL     1      43.773 -16.918   7.544  1.00  0.00     0.002 A 
HETATM   18  C   UNL     1      42.473 -17.397   7.365  1.00  0.00     0.002 A 
ENDBRANCH   7   9
ENDBRANCH   6   7
ENDBRANCH   5   6
ENDBRANCH   1   5
BRANCH   2  19
HETATM   19  C   UNL     1      43.332 -16.859   2.283  1.00  0.00     0.034 A 
HETATM   20  C   UNL     1      43.423 -17.775   1.232  1.00  0.00     0.030 A 
HETATM   21  C   UNL     1      43.774 -19.111   1.471  1.00  0.00     0.019 A 
HETATM   22  C   UNL     1      44.056 -19.544   2.769  1.00  0.00     0.032 A 
HETATM   23  C   UNL     1      43.943 -18.636   3.828  1.00  0.00     0.019 A 
HETATM   24  C   UNL     1      43.584 -17.306   3.586  1.00  0.00     0.030 A 
BRANCH  22  25
HETATM   25  C   UNL     1      44.446 -20.952   3.078  1.00  0.00     0.251 C 
HETATM   26  N   UNL     1      44.725 -21.241   4.397  1.00  0.00    -0.361 N 
HETATM   27  C   UNL     1      45.051 -22.579   4.829  1.00  0.00     0.149 C 
HETATM   28  H   UNL     1      44.503 -20.565   5.113  1.00  0.00     0.162 HD
HETATM   29  O   UNL     1      44.476 -21.787   2.181  1.00  0.00    -0.268 OA
ENDBRANCH  22  25
ENDBRANCH   2  19
TORSDOF 6
ENDMDL
MODEL 3
REMARK VINA RESULT:      -7.7      2.858      6.508
REMARK  6 active torsions:
REMARK  status: ('A' for Active; 'I' for Inactive)
REMARK    1  A    between atoms: C_2  and  S_3 
REMARK    2  A    between atoms: C_2  and  C_18 
REMARK    3  A    between atoms: S_3  and  C_4 
REMARK    4  A    between atoms: C_4  and  C_5 
REMARK       I    between atoms: C_5  and  N_6 
REMARK    5  A    between atoms: N_6  and  C_7 
REMARK    6  A    between atoms: C_10  and  C_11 
REMARK       I    between atoms: C_11  and  N_12 
ROOT
HETATM    1  C   UNL     1      42.956 -13.756   5.581  1.00  0.00     0.231 C 
HETATM    2  N   UNL     1      42.597 -15.000   6.080  1.00  0.00    -0.327 N 
HETATM    3  O   UNL     1      43.848 -13.531   4.766  1.00  0.00    -0.272 OA
HETATM    4  H   UNL     1      41.842 -15.019   6.755  1.00  0.00     0.169 HD
ENDROOT
BRANCH   1   5
HETATM    5  C   UNL     1      42.126 -12.619   6.158  1.00  0.00     0.177 C 
BRANCH   5   6
HETATM    6  S   UNL     1      41.457 -11.601   4.799  1.00  0.00    -0.147 SA
BRANCH   6   7
HETATM    7  C   UNL     1      39.989 -12.625   4.404  1.00  0.00     0.113 C 
HETATM    8  C   UNL     1      38.878 -11.737   3.850  1.00  0.00     0.029 C 
BRANCH   7   9
HETATM    9  C   UNL     1      40.365 -13.722   3.458  1.00  0.00     0.118 A 
HETATM   10  N   UNL     1      41.229 -13.633   2.465  1.00  0.00    -0.232 NA
HETATM   11  C   UNL     1      41.233 -14.867   1.863  1.00  0.00     0.085 A 
HETATM   12  C   UNL     1      40.335 -15.726   2.485  1.00  0.00     0.062 A 
HETATM   13  C   UNL     1      41.977 -15.328   0.767  1.00  0.00     0.034 A 
HETATM   14  N   UNL     1      39.792 -14.973   3.494  1.00  0.00    -0.342 N 
HETATM   15  C   UNL     1      40.123 -17.043   2.075  1.00  0.00     0.032 A 
HETATM   16  H   UNL     1      39.080 -15.275   4.143  1.00  0.00     0.167 HD
HETATM   17  C   UNL     1      40.874 -17.488   0.981  1.00  0.00     0.002 A 
HETATM   18  C   UNL     1      41.786 -16.648   0.336  1.00  0.00     0.002 A 
ENDBRANCH   7   9
ENDBRANCH   6   7
ENDBRANCH   5   6
ENDBRANCH   1   5
BRANCH   2  19
HETATM   19  C   UNL     1      43.172 -16.248   5.762  1.00  0.00     0.034 A 
HETATM   20  C   UNL     1      44.150 -16.878   6.536  1.00  0.00     0.030 A 
HETATM   21  C   UNL     1      44.669 -18.125   6.160  1.00  0.00     0.019 A 
HETATM   22  C   UNL     1      44.202 -18.767   5.010  1.00  0.00     0.032 A 
HETATM   23  C   UNL     1      43.239 -18.129   4.220  1.00  0.00     0.019 A 
HETATM   24  C   UNL     1      42.730 -16.880   4.594  1.00  0.00     0.030 A 
BRANCH  22  25
HETATM   25  C   UNL     1      44.712 -20.100   4.572  1.00  0.00     0.251 C 
HETATM   26  N   UNL     1      44.714 -21.103   5.519  1.00  0.00    -0.361 N 
HETATM   27  C   UNL     1      45.121 -22.449   5.198  1.00  0.00     0.149 C 
HETATM   28  H   UNL     1      44.234 -20.960   6.396  1.00  0.00     0.162 HD
HETATM   29  O   UNL     1      45.072 -20.264   3.412  1.00  0.00    -0.268 OA
ENDBRANCH  22  25
ENDBRANCH   2  19
TORSDOF 6
ENDMDL
MODEL 4
REMARK VINA RESULT:      -7.6      1.743      2.186
REMARK  6 active torsions:
REMARK  status: ('A' for Active; 'I' for Inactive)
REMARK    1  A    between atoms: C_2  and  S_3 
REMARK    2  A    between atoms: C_2  and  C_18 
REMARK    3  A    between atoms: S_3  and  C_4 
REMARK    4  A    between atoms: C_4  and  C_5 
REMARK       I    between atoms: C_5  and  N_6 
REMARK    5  A    between atoms: N_6  and  C_7 
REMARK    6  A    between atoms: C_10  and  C_11 
REMARK       I    between atoms: C_11  and  N_12 
ROOT
HETATM    1  C   UNL     1      40.943 -15.499   3.932  1.00  0.00     0.231 C 
HETATM    2  N   UNL     1      40.695 -14.362   3.176  1.00  0.00    -0.327 N 
HETATM    3  O   UNL     1      40.878 -16.660   3.538  1.00  0.00    -0.272 OA
HETATM    4  H   UNL     1      40.784 -13.471   3.650  1.00  0.00     0.169 HD
ENDROOT
BRANCH   1   5
HETATM    5  C   UNL     1      41.313 -15.187   5.375  1.00  0.00     0.177 C 
BRANCH   5   6
HETATM    6  S   UNL     1      41.841 -16.720   6.214  1.00  0.00    -0.147 SA
BRANCH   6   7
HETATM    7  C   UNL     1      43.547 -16.806   5.550  1.00  0.00     0.113 C 
HETATM    8  C   UNL     1      44.550 -16.649   6.690  1.00  0.00     0.029 C 
BRANCH   7   9
HETATM    9  C   UNL     1      43.742 -18.083   4.794  1.00  0.00     0.118 A 
HETATM   10  N   UNL     1      44.349 -19.167   5.238  1.00  0.00    -0.232 NA
HETATM   11  C   UNL     1      44.310 -20.067   4.202  1.00  0.00     0.085 A 
HETATM   12  C   UNL     1      43.686 -19.516   3.089  1.00  0.00     0.062 A 
HETATM   13  C   UNL     1      44.796 -21.381   4.135  1.00  0.00     0.034 A 
HETATM   14  N   UNL     1      43.338 -18.252   3.489  1.00  0.00    -0.342 N 
HETATM   15  C   UNL     1      43.514 -20.203   1.886  1.00  0.00     0.032 A 
HETATM   16  H   UNL     1      42.879 -17.554   2.921  1.00  0.00     0.167 HD
HETATM   17  C   UNL     1      44.006 -21.513   1.836  1.00  0.00     0.002 A 
HETATM   18  C   UNL     1      44.635 -22.094   2.940  1.00  0.00     0.002 A 
ENDBRANCH   7   9
ENDBRANCH   6   7
ENDBRANCH   5   6
ENDBRANCH   1   5
BRANCH   2  19
HETATM   19  C   UNL     1      40.320 -14.303   1.818  1.00  0.00     0.034 A 
HETATM   20  C   UNL     1      41.222 -14.388   0.754  1.00  0.00     0.030 A 
HETATM   21  C   UNL     1      40.774 -14.331  -0.573  1.00  0.00     0.019 A 
HETATM   22  C   UNL     1      39.410 -14.204  -0.853  1.00  0.00     0.032 A 
HETATM   23  C   UNL     1      38.506 -14.096   0.209  1.00  0.00     0.019 A 
HETATM   24  C   UNL     1      38.959 -14.144   1.533  1.00  0.00     0.030 A 
BRANCH  22  25
HETATM   25  C   UNL     1      38.879 -14.151  -2.247  1.00  0.00     0.251 C 
HETATM   26  N   UNL     1      37.745 -14.893  -2.506  1.00  0.00    -0.361 N 
HETATM   27  C   UNL     1      37.102 -14.872  -3.797  1.00  0.00     0.149 C 
HETATM   28  H   UNL     1      37.231 -15.300  -1.738  1.00  0.00     0.162 HD
HETATM   29  O   UNL     1      39.433 -13.447  -3.084  1.00  0.00    -0.268 OA
ENDBRANCH  22  25
ENDBRANCH   2  19
TORSDOF 6
ENDMDL
MODEL 5
REMARK VINA RESULT:      -7.4      2.480      7.696
REMARK  6 active torsions:
REMARK  status: ('A' for Active; 'I' for Inactive)
REMARK    1  A    between atoms: C_2  and  S_3 
REMARK    2  A    between atoms: C_2  and  C_18 
REMARK    3  A    between atoms: S_3  and  C_4 
REMARK    4  A    between atoms: C_4  and  C_5 
REMARK       I    between atoms: C_5  and  N_6 
REMARK    5  A    between atoms: N_6  and  C_7 
REMARK    6  A    between atoms: C_10  and  C_11 
REMARK       I    between atoms: C_11  and  N_12 
ROOT
HETATM    1  C   UNL     1      42.946 -14.075   2.601  1.00  0.00     0.231 C 
HETATM    2  N   UNL     1      42.415 -15.275   2.147  1.00  0.00    -0.327 N 
HETATM    3  O   UNL     1      43.974 -13.939   3.258  1.00  0.00    -0.272 OA
HETATM    4  H   UNL     1      41.551 -15.220   1.621  1.00  0.00     0.169 HD
ENDROOT
BRANCH   1   5
HETATM    5  C   UNL     1      42.105 -12.866   2.213  1.00  0.00     0.177 C 
BRANCH   5   6
HETATM    6  S   UNL     1      40.337 -13.314   2.256  1.00  0.00    -0.147 SA
BRANCH   6   7
HETATM    7  C   UNL     1      39.785 -12.336   0.808  1.00  0.00     0.113 C 
HETATM    8  C   UNL     1      40.787 -11.220   0.530  1.00  0.00     0.029 C 
BRANCH   7   9
HETATM    9  C   UNL     1      39.590 -13.232  -0.376  1.00  0.00     0.118 A 
HETATM   10  N   UNL     1      40.503 -14.013  -0.920  1.00  0.00    -0.232 NA
HETATM   11  C   UNL     1      39.885 -14.624  -1.983  1.00  0.00     0.085 A 
HETATM   12  C   UNL     1      38.571 -14.191  -2.109  1.00  0.00     0.062 A 
HETATM   13  C   UNL     1      40.389 -15.560  -2.898  1.00  0.00     0.034 A 
HETATM   14  N   UNL     1      38.407 -13.303  -1.077  1.00  0.00    -0.342 N 
HETATM   15  C   UNL     1      37.707 -14.638  -3.110  1.00  0.00     0.032 A 
HETATM   16  H   UNL     1      37.571 -12.775  -0.874  1.00  0.00     0.167 HD
HETATM   17  C   UNL     1      38.226 -15.573  -4.014  1.00  0.00     0.002 A 
HETATM   18  C   UNL     1      39.543 -16.028  -3.912  1.00  0.00     0.002 A 
ENDBRANCH   7   9
ENDBRANCH   6   7
ENDBRANCH   5   6
ENDBRANCH   1   5
BRANCH   2  19
HETATM   19  C   UNL     1      42.938 -16.569   2.344  1.00  0.00     0.034 A 
HETATM   20  C   UNL     1      43.625 -17.291   1.365  1.00  0.00     0.030 A 
HETATM   21  C   UNL     1      44.125 -18.573   1.637  1.00  0.00     0.019 A 
HETATM   22  C   UNL     1      43.958 -19.142   2.902  1.00  0.00     0.032 A 
HETATM   23  C   UNL     1      43.250 -18.431   3.878  1.00  0.00     0.019 A 
HETATM   24  C   UNL     1      42.745 -17.156   3.600  1.00  0.00     0.030 A 
BRANCH  22  25
HETATM   25  C   UNL     1      44.481 -20.497   3.248  1.00  0.00     0.251 C 
HETATM   26  N   UNL     1      44.604 -20.788   4.591  1.00  0.00    -0.361 N 
HETATM   27  C   UNL     1      45.037 -22.085   5.049  1.00  0.00     0.149 C 
HETATM   28  H   UNL     1      44.194 -20.168   5.274  1.00  0.00     0.162 HD
HETATM   29  O   UNL     1      44.749 -21.293   2.355  1.00  0.00    -0.268 OA
ENDBRANCH  22  25
ENDBRANCH   2  19
TORSDOF 6
ENDMDL
MODEL 6
REMARK VINA RESULT:      -7.4      3.071      5.697
REMARK  6 active torsions:
REMARK  status: ('A' for Active; 'I' for Inactive)
REMARK    1  A    between atoms: C_2  and  S_3 
REMARK    2  A    between atoms: C_2  and  C_18 
REMARK    3  A    between atoms: S_3  and  C_4 
REMARK    4  A    between atoms: C_4  and  C_5 
REMARK       I    between atoms: C_5  and  N_6 
REMARK    5  A    between atoms: N_6  and  C_7 
REMARK    6  A    between atoms: C_10  and  C_11 
REMARK       I    between atoms: C_11  and  N_12 
ROOT
HETATM    1  C   UNL     1      42.403 -13.738   2.503  1.00  0.00     0.231 C 
HETATM    2  N   UNL     1      41.819 -14.963   2.214  1.00  0.00    -0.327 N 
HETATM    3  O   UNL     1      43.531 -13.562   2.957  1.00  0.00    -0.272 OA
HETATM    4  H   UNL     1      40.874 -14.942   1.849  1.00  0.00     0.169 HD
ENDROOT
BRANCH   1   5
HETATM    5  C   UNL     1      41.489 -12.557   2.210  1.00  0.00     0.177 C 
BRANCH   5   6
HETATM    6  S   UNL     1      39.928 -12.750   3.136  1.00  0.00    -0.147 SA
BRANCH   6   7
HETATM    7  C   UNL     1      40.566 -12.360   4.808  1.00  0.00     0.113 C 
HETATM    8  C   UNL     1      39.444 -11.777   5.663  1.00  0.00     0.029 C 
BRANCH   7   9
HETATM    9  C   UNL     1      41.174 -13.581   5.426  1.00  0.00     0.118 A 
HETATM   10  N   UNL     1      40.554 -14.718   5.678  1.00  0.00    -0.232 NA
HETATM   11  C   UNL     1      41.492 -15.533   6.262  1.00  0.00     0.085 A 
HETATM   12  C   UNL     1      42.709 -14.875   6.391  1.00  0.00     0.062 A 
HETATM   13  C   UNL     1      41.375 -16.854   6.717  1.00  0.00     0.034 A 
HETATM   14  N   UNL     1      42.481 -13.634   5.856  1.00  0.00    -0.342 N 
HETATM   15  C   UNL     1      43.842 -15.460   6.960  1.00  0.00     0.032 A 
HETATM   16  H   UNL     1      43.148 -12.878   5.801  1.00  0.00     0.167 HD
HETATM   17  C   UNL     1      43.708 -16.780   7.408  1.00  0.00     0.002 A 
HETATM   18  C   UNL     1      42.497 -17.467   7.290  1.00  0.00     0.002 A 
ENDBRANCH   7   9
ENDBRANCH   6   7
ENDBRANCH   5   6
ENDBRANCH   1   5
BRANCH   2  19
HETATM   19  C   UNL     1      42.388 -16.243   2.380  1.00  0.00     0.034 A 
HETATM   20  C   UNL     1      42.006 -17.145   3.376  1.00  0.00     0.030 A 
HETATM   21  C   UNL     1      42.612 -18.405   3.474  1.00  0.00     0.019 A 
HETATM   22  C   UNL     1      43.600 -18.786   2.561  1.00  0.00     0.032 A 
HETATM   23  C   UNL     1      44.001 -17.877   1.576  1.00  0.00     0.019 A 
HETATM   24  C   UNL     1      43.400 -16.616   1.488  1.00  0.00     0.030 A 
BRANCH  22  25
HETATM   25  C   UNL     1      44.268 -20.120   2.613  1.00  0.00     0.251 C 
HETATM   26  N   UNL     1      43.839 -21.062   1.701  1.00  0.00    -0.361 N 
HETATM   27  C   UNL     1      44.452 -22.365   1.610  1.00  0.00     0.149 C 
HETATM   28  H   UNL     1      43.230 -20.783   0.945  1.00  0.00     0.162 HD
HETATM   29  O   UNL     1      45.170 -20.320   3.418  1.00  0.00    -0.268 OA
ENDBRANCH  22  25
ENDBRANCH   2  19
TORSDOF 6
ENDMDL
MODEL 7
REMARK VINA RESULT:      -7.3      2.638      6.623
REMARK  6 active torsions:
REMARK  status: ('A' for Active; 'I' for Inactive)
REMARK    1  A    between atoms: C_2  and  S_3 
REMARK    2  A    between atoms: C_2  and  C_18 
REMARK    3  A    between atoms: S_3  and  C_4 
REMARK    4  A    between atoms: C_4  and  C_5 
REMARK       I    between atoms: C_5  and  N_6 
REMARK    5  A    between atoms: N_6  and  C_7 
REMARK    6  A    between atoms: C_10  and  C_11 
REMARK       I    between atoms: C_11  and  N_12 
ROOT
HETATM    1  C   UNL     1      41.822 -13.202   2.644  1.00  0.00     0.231 C 
HETATM    2  N   UNL     1      41.054 -13.836   3.611  1.00  0.00    -0.327 N 
HETATM    3  O   UNL     1      43.040 -13.289   2.513  1.00  0.00    -0.272 OA
HETATM    4  H   UNL     1      40.057 -13.657   3.590  1.00  0.00     0.169 HD
ENDROOT
BRANCH   1   5
HETATM    5  C   UNL     1      41.000 -12.328   1.707  1.00  0.00     0.177 C 
BRANCH   5   6
HETATM    6  S   UNL     1      39.489 -13.222   1.208  1.00  0.00    -0.147 SA
BRANCH   6   7
HETATM    7  C   UNL     1      40.237 -14.313  -0.060  1.00  0.00     0.113 C 
HETATM    8  C   UNL     1      41.096 -13.483  -1.009  1.00  0.00     0.029 C 
BRANCH   7   9
HETATM    9  C   UNL     1      41.014 -15.410   0.598  1.00  0.00     0.118 A 
HETATM   10  N   UNL     1      40.591 -16.187   1.576  1.00  0.00    -0.232 NA
HETATM   11  C   UNL     1      41.640 -17.022   1.870  1.00  0.00     0.085 A 
HETATM   12  C   UNL     1      42.740 -16.738   1.070  1.00  0.00     0.062 A 
HETATM   13  C   UNL     1      41.730 -18.050   2.820  1.00  0.00     0.034 A 
HETATM   14  N   UNL     1      42.319 -15.706   0.272  1.00  0.00    -0.342 N 
HETATM   15  C   UNL     1      43.952 -17.424   1.158  1.00  0.00     0.032 A 
HETATM   16  H   UNL     1      42.872 -15.229  -0.425  1.00  0.00     0.167 HD
HETATM   17  C   UNL     1      44.025 -18.448   2.111  1.00  0.00     0.002 A 
HETATM   18  C   UNL     1      42.935 -18.758   2.928  1.00  0.00     0.002 A 
ENDBRANCH   7   9
ENDBRANCH   6   7
ENDBRANCH   5   6
ENDBRANCH   1   5
BRANCH   2  19
HETATM   19  C   UNL     1      41.505 -14.700   4.630  1.00  0.00     0.034 A 
HETATM   20  C   UNL     1      40.659 -15.459   5.442  1.00  0.00     0.030 A 
HETATM   21  C   UNL     1      41.182 -16.305   6.431  1.00  0.00     0.019 A 
HETATM   22  C   UNL     1      42.564 -16.413   6.609  1.00  0.00     0.032 A 
HETATM   23  C   UNL     1      43.414 -15.637   5.813  1.00  0.00     0.019 A 
HETATM   24  C   UNL     1      42.888 -14.788   4.832  1.00  0.00     0.030 A 
BRANCH  22  25
HETATM   25  C   UNL     1      43.173 -17.307   7.638  1.00  0.00     0.251 C 
HETATM   26  N   UNL     1      43.393 -18.617   7.266  1.00  0.00    -0.361 N 
HETATM   27  C   UNL     1      44.035 -19.559   8.151  1.00  0.00     0.149 C 
HETATM   28  H   UNL     1      43.298 -18.882   6.297  1.00  0.00     0.162 HD
HETATM   29  O   UNL     1      43.477 -16.854   8.736  1.00  0.00    -0.268 OA
ENDBRANCH  22  25
ENDBRANCH   2  19
TORSDOF 6
ENDMDL
MODEL 8
REMARK VINA RESULT:      -7.2      2.391      4.595
REMARK  6 active torsions:
REMARK  status: ('A' for Active; 'I' for Inactive)
REMARK    1  A    between atoms: C_2  and  S_3 
REMARK    2  A    between atoms: C_2  and  C_18 
REMARK    3  A    between atoms: S_3  and  C_4 
REMARK    4  A    between atoms: C_4  and  C_5 
REMARK       I    between atoms: C_5  and  N_6 
REMARK    5  A    between atoms: N_6  and  C_7 
REMARK    6  A    between atoms: C_10  and  C_11 
REMARK       I    between atoms: C_11  and  N_12 
ROOT
HETATM    1  C   UNL     1      44.060 -19.650   3.723  1.00  0.00     0.231 C 
HETATM    2  N   UNL     1      43.571 -18.352   3.772  1.00  0.00    -0.327 N 
HETATM    3  O   UNL     1      43.937 -20.436   2.787  1.00  0.00    -0.272 OA
HETATM    4  H   UNL     1      43.749 -17.830   4.622  1.00  0.00     0.169 HD
ENDROOT
BRANCH   1   5
HETATM    5  C   UNL     1      44.793 -20.060   4.992  1.00  0.00     0.177 C 
BRANCH   5   6
HETATM    6  S   UNL     1      43.674 -19.893   6.424  1.00  0.00    -0.147 SA
BRANCH   6   7
HETATM    7  C   UNL     1      44.328 -18.314   7.084  1.00  0.00     0.113 C 
HETATM    8  C   UNL     1      45.751 -18.096   6.578  1.00  0.00     0.029 C 
BRANCH   7   9
HETATM    9  C   UNL     1      43.416 -17.184   6.718  1.00  0.00     0.118 A 
HETATM   10  N   UNL     1      42.105 -17.253   6.587  1.00  0.00    -0.232 NA
HETATM   11  C   UNL     1      41.701 -15.992   6.222  1.00  0.00     0.085 A 
HETATM   12  C   UNL     1      42.789 -15.137   6.104  1.00  0.00     0.062 A 
HETATM   13  C   UNL     1      40.412 -15.502   5.965  1.00  0.00     0.034 A 
HETATM   14  N   UNL     1      43.870 -15.919   6.421  1.00  0.00    -0.342 N 
HETATM   15  C   UNL     1      42.675 -13.795   5.736  1.00  0.00     0.032 A 
HETATM   16  H   UNL     1      44.836 -15.626   6.419  1.00  0.00     0.167 HD
HETATM   17  C   UNL     1      41.382 -13.322   5.484  1.00  0.00     0.002 A 
HETATM   18  C   UNL     1      40.268 -14.158   5.596  1.00  0.00     0.002 A 
ENDBRANCH   7   9
ENDBRANCH   6   7
ENDBRANCH   5   6
ENDBRANCH   1   5
BRANCH   2  19
HETATM   19  C   UNL     1      42.841 -17.674   2.774  1.00  0.00     0.034 A 
HETATM   20  C   UNL     1      41.506 -17.286   2.909  1.00  0.00     0.030 A 
HETATM   21  C   UNL     1      40.847 -16.606   1.875  1.00  0.00     0.019 A 
HETATM   22  C   UNL     1      41.525 -16.291   0.694  1.00  0.00     0.032 A 
HETATM   23  C   UNL     1      42.856 -16.698   0.545  1.00  0.00     0.019 A 
HETATM   24  C   UNL     1      43.507 -17.384   1.577  1.00  0.00     0.030 A 
BRANCH  22  25
HETATM   25  C   UNL     1      40.875 -15.558  -0.433  1.00  0.00     0.251 C 
HETATM   26  N   UNL     1      41.116 -16.038  -1.703  1.00  0.00    -0.361 N 
HETATM   27  C   UNL     1      40.493 -15.454  -2.866  1.00  0.00     0.149 C 
HETATM   28  H   UNL     1      41.567 -16.934  -1.820  1.00  0.00     0.162 HD
HETATM   29  O   UNL     1      40.146 -14.601  -0.197  1.00  0.00    -0.268 OA
ENDBRANCH  22  25
ENDBRANCH   2  19
TORSDOF 6
ENDMDL
MODEL 9
REMARK VINA RESULT:      -7.2      1.804      2.016
REMARK  6 active torsions:
REMARK  status: ('A' for Active; 'I' for Inactive)
REMARK    1  A    between atoms: C_2  and  S_3 
REMARK    2  A    between atoms: C_2  and  C_18 
REMARK    3  A    between atoms: S_3  and  C_4 
REMARK    4  A    between atoms: C_4  and  C_5 
REMARK       I    between atoms: C_5  and  N_6 
REMARK    5  A    between atoms: N_6  and  C_7 
REMARK    6  A    between atoms: C_10  and  C_11 
REMARK       I    between atoms: C_11  and  N_12 
ROOT
HETATM    1  C   UNL     1      42.793 -13.792   3.632  1.00  0.00     0.231 C 
HETATM    2  N   UNL     1      41.706 -13.684   2.774  1.00  0.00    -0.327 N 
HETATM    3  O   UNL     1      43.976 -13.820   3.303  1.00  0.00    -0.272 OA
HETATM    4  H   UNL     1      40.788 -13.682   3.200  1.00  0.00     0.169 HD
ENDROOT
BRANCH   1   5
HETATM    5  C   UNL     1      42.389 -13.891   5.096  1.00  0.00     0.177 C 
BRANCH   5   6
HETATM    6  S   UNL     1      43.609 -14.907   5.997  1.00  0.00    -0.147 SA
BRANCH   6   7
HETATM    7  C   UNL     1      42.585 -16.411   6.217  1.00  0.00     0.113 C 
HETATM    8  C   UNL     1      41.107 -16.041   6.143  1.00  0.00     0.029 C 
BRANCH   7   9
HETATM    9  C   UNL     1      42.963 -17.445   5.203  1.00  0.00     0.118 A 
HETATM   10  N   UNL     1      42.439 -17.585   4.000  1.00  0.00    -0.232 NA
HETATM   11  C   UNL     1      43.072 -18.668   3.441  1.00  0.00     0.085 A 
HETATM   12  C   UNL     1      43.989 -19.218   4.328  1.00  0.00     0.062 A 
HETATM   13  C   UNL     1      42.910 -19.248   2.175  1.00  0.00     0.034 A 
HETATM   14  N   UNL     1      43.899 -18.426   5.443  1.00  0.00    -0.342 N 
HETATM   15  C   UNL     1      44.771 -20.336   4.030  1.00  0.00     0.032 A 
HETATM   16  H   UNL     1      44.415 -18.547   6.302  1.00  0.00     0.167 HD
HETATM   17  C   UNL     1      44.597 -20.902   2.761  1.00  0.00     0.002 A 
HETATM   18  C   UNL     1      43.684 -20.369   1.848  1.00  0.00     0.002 A 
ENDBRANCH   7   9
ENDBRANCH   6   7
ENDBRANCH   5   6
ENDBRANCH   1   5
BRANCH   2  19
HETATM   19  C   UNL     1      41.734 -13.587   1.367  1.00  0.00     0.034 A 
HETATM   20  C   UNL     1      41.488 -14.657   0.504  1.00  0.00     0.030 A 
HETATM   21  C   UNL     1      41.524 -14.482  -0.886  1.00  0.00     0.019 A 
HETATM   22  C   UNL     1      41.792 -13.223  -1.432  1.00  0.00     0.032 A 
HETATM   23  C   UNL     1      42.061 -12.153  -0.572  1.00  0.00     0.019 A 
HETATM   24  C   UNL     1      42.033 -12.335   0.816  1.00  0.00     0.030 A 
BRANCH  22  25
HETATM   25  C   UNL     1      41.829 -12.979  -2.904  1.00  0.00     0.251 C 
HETATM   26  N   UNL     1      42.188 -11.711  -3.312  1.00  0.00    -0.361 N 
HETATM   27  C   UNL     1      42.323 -11.372  -4.708  1.00  0.00     0.149 C 
HETATM   28  H   UNL     1      42.564 -11.059  -2.638  1.00  0.00     0.162 HD
HETATM   29  O   UNL     1      41.577 -13.894  -3.680  1.00  0.00    -0.268 OA
ENDBRANCH  22  25
ENDBRANCH   2  19
TORSDOF 6
ENDMDL
MODEL 10
REMARK VINA RESULT:      -7.2      4.679      8.414
REMARK  6 active torsions:
REMARK  status: ('A' for Active; 'I' for Inactive)
REMARK    1  A    between atoms: C_2  and  S_3 
REMARK    2  A    between atoms: C_2  and  C_18 
REMARK    3  A    between atoms: S_3  and  C_4 
REMARK    4  A    between atoms: C_4  and  C_5 
REMARK       I    between atoms: C_5  and  N_6 
REMARK    5  A    between atoms: N_6  and  C_7 
REMARK    6  A    between atoms: C_10  and  C_11 
REMARK       I    between atoms: C_11  and  N_12 
ROOT
HETATM    1  C   UNL     1      41.856 -13.850   4.500  1.00  0.00     0.231 C 
HETATM    2  N   UNL     1      43.017 -14.578   4.720  1.00  0.00    -0.327 N 
HETATM    3  O   UNL     1      40.870 -14.230   3.874  1.00  0.00    -0.272 OA
HETATM    4  H   UNL     1      43.747 -14.120   5.253  1.00  0.00     0.169 HD
ENDROOT
BRANCH   1   5
HETATM    5  C   UNL     1      41.897 -12.459   5.116  1.00  0.00     0.177 C 
BRANCH   5   6
HETATM    6  S   UNL     1      40.496 -12.259   6.267  1.00  0.00    -0.147 SA
BRANCH   6   7
HETATM    7  C   UNL     1      40.859 -10.554   6.829  1.00  0.00     0.113 C 
HETATM    8  C   UNL     1      39.573  -9.734   6.848  1.00  0.00     0.029 C 
BRANCH   7   9
HETATM    9  C   UNL     1      41.534 -10.583   8.165  1.00  0.00     0.118 A 
HETATM   10  N   UNL     1      42.813 -10.359   8.397  1.00  0.00    -0.232 NA
HETATM   11  C   UNL     1      42.979 -10.515   9.751  1.00  0.00     0.085 A 
HETATM   12  C   UNL     1      41.780 -10.866  10.361  1.00  0.00     0.062 A 
HETATM   13  C   UNL     1      44.133 -10.381  10.536  1.00  0.00     0.034 A 
HETATM   14  N   UNL     1      40.877 -10.907   9.331  1.00  0.00    -0.342 N 
HETATM   15  C   UNL     1      41.655 -11.099  11.732  1.00  0.00     0.032 A 
HETATM   16  H   UNL     1      39.900 -11.150   9.406  1.00  0.00     0.167 HD
HETATM   17  C   UNL     1      42.817 -10.960  12.500  1.00  0.00     0.002 A 
HETATM   18  C   UNL     1      44.036 -10.606  11.915  1.00  0.00     0.002 A 
ENDBRANCH   7   9
ENDBRANCH   6   7
ENDBRANCH   5   6
ENDBRANCH   1   5
BRANCH   2  19
HETATM   19  C   UNL     1      43.304 -15.886   4.278  1.00  0.00     0.034 A 
HETATM   20  C   UNL     1      43.438 -16.244   2.934  1.00  0.00     0.030 A 
HETATM   21  C   UNL     1      43.733 -17.565   2.569  1.00  0.00     0.019 A 
HETATM   22  C   UNL     1      43.915 -18.544   3.550  1.00  0.00     0.032 A 
HETATM   23  C   UNL     1      43.760 -18.194   4.896  1.00  0.00     0.019 A 
HETATM   24  C   UNL     1      43.456 -16.876   5.255  1.00  0.00     0.030 A 
BRANCH  22  25
HETATM   25  C   UNL     1      44.243 -19.962   3.217  1.00  0.00     0.251 C 
HETATM   26  N   UNL     1      43.660 -20.482   2.080  1.00  0.00    -0.361 N 
HETATM   27  C   UNL     1      43.951 -21.817   1.620  1.00  0.00     0.149 C 
HETATM   28  H   UNL     1      43.183 -19.864   1.439  1.00  0.00     0.162 HD
HETATM   29  O   UNL     1      45.021 -20.590   3.927  1.00  0.00    -0.268 OA
ENDBRANCH  22  25
ENDBRANCH   2  19
TORSDOF 6
ENDMDL
