MODEL 1
REMARK VINA RESULT:      -8.1      0.000      0.000
REMARK  6 active torsions:
REMARK  status: ('A' for Active; 'I' for Inactive)
REMARK    1  A    between atoms: C_4  and  C_5 
REMARK    2  A    between atoms: C_5  and  N_6 
REMARK    3  A    between atoms: C_5  and  C_22 
REMARK    4  A    between atoms: N_6  and  C_9 
REMARK    5  A    between atoms: C_9  and  C_10 
REMARK    6  A    between atoms: C_13  and  C_14 
REMARK       I    between atoms: C_22  and  N_23 
ROOT
HETATM    1  N   UNL     1      42.378 -14.215   6.129  1.00  0.00    -0.054 N 
HETATM    2  H   UNL     1      41.791 -14.790   6.744  1.00  0.00     0.278 HD
HETATM    3  H   UNL     1      42.163 -13.233   6.344  1.00  0.00     0.278 HD
ENDROOT
BRANCH   1   4
HETATM    4  C   UNL     1      43.838 -14.406   6.468  1.00  0.00     0.310 C 
BRANCH   4   5
HETATM    5  C   UNL     1      44.083 -15.831   6.920  1.00  0.00    -0.019 A 
HETATM    6  C   UNL     1      45.070 -16.609   6.293  1.00  0.00     0.010 A 
HETATM    7  C   UNL     1      45.292 -17.927   6.698  1.00  0.00     0.001 A 
HETATM    8  C   UNL     1      44.529 -18.484   7.722  1.00  0.00     0.000 A 
HETATM    9  C   UNL     1      43.541 -17.727   8.345  1.00  0.00     0.001 A 
HETATM   10  C   UNL     1      43.315 -16.409   7.947  1.00  0.00     0.010 A 
ENDBRANCH   4   5
BRANCH   4  11
HETATM   11  C   UNL     1      44.274 -13.386   7.548  1.00  0.00     0.251 C 
HETATM   12  N   UNL     1      43.402 -12.391   7.874  1.00  0.00    -0.368 N 
HETATM   13  H   UNL     1      42.656 -12.086   7.259  1.00  0.00     0.159 HD
HETATM   14  H   UNL     1      43.730 -11.694   8.538  1.00  0.00     0.159 HD
HETATM   15  O   UNL     1      45.357 -13.505   8.120  1.00  0.00    -0.271 OA
ENDBRANCH   4  11
ENDBRANCH   1   4
BRANCH   1  16
HETATM   16  C   UNL     1      42.019 -14.454   4.704  1.00  0.00     0.272 C 
BRANCH  16  17
HETATM   17  C   UNL     1      42.418 -15.829   4.240  1.00  0.00    -0.033 A 
HETATM   18  C   UNL     1      43.406 -16.006   3.263  1.00  0.00     0.010 A 
HETATM   19  C   UNL     1      43.792 -17.291   2.863  1.00  0.00     0.013 A 
HETATM   20  C   UNL     1      43.226 -18.440   3.440  1.00  0.00    -0.025 A 
HETATM   21  C   UNL     1      42.242 -18.249   4.424  1.00  0.00     0.013 A 
HETATM   22  C   UNL     1      41.841 -16.967   4.818  1.00  0.00     0.010 A 
BRANCH  20  23
HETATM   23  C   UNL     1      43.666 -19.793   3.048  1.00  0.00    -0.008 A 
HETATM   24  C   UNL     1      44.472 -20.578   3.877  1.00  0.00     0.128 A 
HETATM   25  N   UNL     1      44.912 -21.825   3.582  1.00  0.00    -0.272 NA
HETATM   26  C   UNL     1      44.528 -22.339   2.397  1.00  0.00     0.116 A 
HETATM   27  C   UNL     1      43.727 -21.661   1.496  1.00  0.00     0.020 A 
HETATM   28  C   UNL     1      43.297 -20.375   1.827  1.00  0.00     0.015 A 
ENDBRANCH  20  23
ENDBRANCH  16  17
ENDBRANCH   1  16
TORSDOF 6
ENDMDL
MODEL 2
REMARK VINA RESULT:      -7.8      5.573      7.683
REMARK  6 active torsions:
REMARK  status: ('A' for Active; 'I' for Inactive)
REMARK    1  A    between atoms: C_4  and  C_5 
REMARK    2  A    between atoms: C_5  and  N_6 
REMARK    3  A    between atoms: C_5  and  C_22 
REMARK    4  A    between atoms: N_6  and  C_9 
REMARK    5  A    between atoms: C_9  and  C_10 
REMARK    6  A    between atoms: C_13  and  C_14 
REMARK       I    between atoms: C_22  and  N_23 
ROOT
HETATM    1  N   UNL     1      41.840 -15.220  -0.848  1.00  0.00    -0.054 N 
HETATM    2  H   UNL     1      41.468 -16.103  -1.216  1.00  0.00     0.278 HD
HETATM    3  H   UNL     1      42.803 -15.132  -1.197  1.00  0.00     0.278 HD
ENDROOT
BRANCH   1   4
HETATM    4  C   UNL     1      41.079 -14.048  -1.424  1.00  0.00     0.310 C 
BRANCH   4   5
HETATM    5  C   UNL     1      39.990 -14.545  -2.352  1.00  0.00    -0.019 A 
HETATM    6  C   UNL     1      40.201 -15.692  -3.135  1.00  0.00     0.010 A 
HETATM    7  C   UNL     1      39.204 -16.149  -4.001  1.00  0.00     0.001 A 
HETATM    8  C   UNL     1      37.995 -15.464  -4.101  1.00  0.00     0.000 A 
HETATM    9  C   UNL     1      37.776 -14.321  -3.338  1.00  0.00     0.001 A 
HETATM   10  C   UNL     1      38.767 -13.860  -2.469  1.00  0.00     0.010 A 
ENDBRANCH   4   5
BRANCH   4  11
HETATM   11  C   UNL     1      42.049 -13.087  -2.153  1.00  0.00     0.251 C 
HETATM   12  N   UNL     1      42.939 -13.626  -3.032  1.00  0.00    -0.368 N 
HETATM   13  H   UNL     1      43.224 -14.599  -3.005  1.00  0.00     0.159 HD
HETATM   14  H   UNL     1      43.611 -12.989  -3.452  1.00  0.00     0.159 HD
HETATM   15  O   UNL     1      41.981 -11.872  -1.970  1.00  0.00    -0.271 OA
ENDBRANCH   4  11
ENDBRANCH   1   4
BRANCH   1  16
HETATM   16  C   UNL     1      41.902 -15.268   0.639  1.00  0.00     0.272 C 
BRANCH  16  17
HETATM   17  C   UNL     1      42.445 -16.577   1.143  1.00  0.00    -0.033 A 
HETATM   18  C   UNL     1      43.816 -16.752   1.376  1.00  0.00     0.010 A 
HETATM   19  C   UNL     1      44.306 -17.964   1.877  1.00  0.00     0.013 A 
HETATM   20  C   UNL     1      43.447 -19.031   2.186  1.00  0.00    -0.025 A 
HETATM   21  C   UNL     1      42.075 -18.841   1.956  1.00  0.00     0.013 A 
HETATM   22  C   UNL     1      41.579 -17.637   1.442  1.00  0.00     0.010 A 
BRANCH  20  23
HETATM   23  C   UNL     1      43.962 -20.292   2.754  1.00  0.00    -0.008 A 
HETATM   24  C   UNL     1      44.051 -21.463   1.997  1.00  0.00     0.128 A 
HETATM   25  N   UNL     1      44.513 -22.653   2.452  1.00  0.00    -0.272 NA
HETATM   26  C   UNL     1      44.924 -22.693   3.734  1.00  0.00     0.116 A 
HETATM   27  C   UNL     1      44.891 -21.598   4.580  1.00  0.00     0.020 A 
HETATM   28  C   UNL     1      44.402 -20.390   4.082  1.00  0.00     0.015 A 
ENDBRANCH  20  23
ENDBRANCH  16  17
ENDBRANCH   1  16
TORSDOF 6
ENDMDL
MODEL 3
REMARK VINA RESULT:      -7.7      5.581      7.687
REMARK  6 active torsions:
REMARK  status: ('A' for Active; 'I' for Inactive)
REMARK    1  A    between atoms: C_4  and  C_5 
REMARK    2  A    between atoms: C_5  and  N_6 
REMARK    3  A    between atoms: C_5  and  C_22 
REMARK    4  A    between atoms: N_6  and  C_9 
REMARK    5  A    between atoms: C_9  and  C_10 
REMARK    6  A    between atoms: C_13  and  C_14 
REMARK       I    between atoms: C_22  and  N_23 
ROOT
HETATM    1  N   UNL     1      41.881 -14.788  -0.711  1.00  0.00    -0.054 N 
HETATM    2  H   UNL     1      41.909 -15.670  -1.234  1.00  0.00     0.278 HD
HETATM    3  H   UNL     1      42.846 -14.434  -0.670  1.00  0.00     0.278 HD
ENDROOT
BRANCH   1   4
HETATM    4  C   UNL     1      41.089 -13.751  -1.474  1.00  0.00     0.310 C 
BRANCH   4   5
HETATM    5  C   UNL     1      40.045 -14.429  -2.336  1.00  0.00    -0.019 A 
HETATM    6  C   UNL     1      38.730 -13.936  -2.368  1.00  0.00     0.010 A 
HETATM    7  C   UNL     1      37.760 -14.563  -3.153  1.00  0.00     0.001 A 
HETATM    8  C   UNL     1      38.087 -15.691  -3.904  1.00  0.00     0.000 A 
HETATM    9  C   UNL     1      39.384 -16.195  -3.873  1.00  0.00     0.001 A 
HETATM   10  C   UNL     1      40.359 -15.573  -3.092  1.00  0.00     0.010 A 
ENDBRANCH   4   5
BRANCH   4  11
HETATM   11  C   UNL     1      42.040 -12.870  -2.322  1.00  0.00     0.251 C 
HETATM   12  N   UNL     1      43.118 -13.469  -2.899  1.00  0.00    -0.368 N 
HETATM   13  H   UNL     1      43.512 -14.342  -2.563  1.00  0.00     0.159 HD
HETATM   14  H   UNL     1      43.766 -12.865  -3.398  1.00  0.00     0.159 HD
HETATM   15  O   UNL     1      41.795 -11.678  -2.499  1.00  0.00    -0.271 OA
ENDBRANCH   4  11
ENDBRANCH   1   4
BRANCH   1  16
HETATM   16  C   UNL     1      41.430 -15.031   0.687  1.00  0.00     0.272 C 
BRANCH  16  17
HETATM   17  C   UNL     1      42.070 -16.253   1.287  1.00  0.00    -0.033 A 
HETATM   18  C   UNL     1      41.658 -16.751   2.530  1.00  0.00     0.010 A 
HETATM   19  C   UNL     1      42.238 -17.908   3.063  1.00  0.00     0.013 A 
HETATM   20  C   UNL     1      43.229 -18.620   2.366  1.00  0.00    -0.025 A 
HETATM   21  C   UNL     1      43.628 -18.115   1.118  1.00  0.00     0.013 A 
HETATM   22  C   UNL     1      43.062 -16.950   0.585  1.00  0.00     0.010 A 
BRANCH  20  23
HETATM   23  C   UNL     1      43.807 -19.863   2.911  1.00  0.00    -0.008 A 
HETATM   24  C   UNL     1      44.323 -19.932   4.208  1.00  0.00     0.128 A 
HETATM   25  N   UNL     1      44.868 -21.037   4.773  1.00  0.00    -0.272 NA
HETATM   26  C   UNL     1      44.900 -22.151   4.017  1.00  0.00     0.116 A 
HETATM   27  C   UNL     1      44.415 -22.208   2.722  1.00  0.00     0.020 A 
HETATM   28  C   UNL     1      43.867 -21.050   2.167  1.00  0.00     0.015 A 
ENDBRANCH  20  23
ENDBRANCH  16  17
ENDBRANCH   1  16
TORSDOF 6
ENDMDL
MODEL 4
REMARK VINA RESULT:      -7.7      2.112      2.608
REMARK  6 active torsions:
REMARK  status: ('A' for Active; 'I' for Inactive)
REMARK    1  A    between atoms: C_4  and  C_5 
REMARK    2  A    between atoms: C_5  and  N_6 
REMARK    3  A    between atoms: C_5  and  C_22 
REMARK    4  A    between atoms: N_6  and  C_9 
REMARK    5  A    between atoms: C_9  and  C_10 
REMARK    6  A    between atoms: C_13  and  C_14 
REMARK       I    between atoms: C_22  and  N_23 
ROOT
HETATM    1  N   UNL     1      40.573 -13.948   3.640  1.00  0.00    -0.054 N 
HETATM    2  H   UNL     1      39.953 -14.756   3.767  1.00  0.00     0.278 HD
HETATM    3  H   UNL     1      39.978 -13.154   3.370  1.00  0.00     0.278 HD
ENDROOT
BRANCH   1   4
HETATM    4  C   UNL     1      41.210 -13.564   4.956  1.00  0.00     0.310 C 
BRANCH   4   5
HETATM    5  C   UNL     1      41.674 -14.806   5.688  1.00  0.00    -0.019 A 
HETATM    6  C   UNL     1      43.024 -14.948   6.049  1.00  0.00     0.010 A 
HETATM    7  C   UNL     1      43.460 -16.096   6.714  1.00  0.00     0.001 A 
HETATM    8  C   UNL     1      42.560 -17.114   7.018  1.00  0.00     0.000 A 
HETATM    9  C   UNL     1      41.221 -16.991   6.658  1.00  0.00     0.001 A 
HETATM   10  C   UNL     1      40.778 -15.846   5.994  1.00  0.00     0.010 A 
ENDBRANCH   4   5
BRANCH   4  11
HETATM   11  C   UNL     1      40.216 -12.740   5.810  1.00  0.00     0.251 C 
HETATM   12  N   UNL     1      40.702 -12.087   6.902  1.00  0.00    -0.368 N 
HETATM   13  H   UNL     1      41.565 -12.350   7.366  1.00  0.00     0.159 HD
HETATM   14  H   UNL     1      40.025 -11.604   7.487  1.00  0.00     0.159 HD
HETATM   15  O   UNL     1      39.034 -12.650   5.481  1.00  0.00    -0.271 OA
ENDBRANCH   4  11
ENDBRANCH   1   4
BRANCH   1  16
HETATM   16  C   UNL     1      41.525 -14.200   2.523  1.00  0.00     0.272 C 
BRANCH  16  17
HETATM   17  C   UNL     1      42.073 -15.600   2.548  1.00  0.00    -0.033 A 
HETATM   18  C   UNL     1      43.452 -15.839   2.630  1.00  0.00     0.010 A 
HETATM   19  C   UNL     1      43.948 -17.147   2.686  1.00  0.00     0.013 A 
HETATM   20  C   UNL     1      43.089 -18.258   2.687  1.00  0.00    -0.025 A 
HETATM   21  C   UNL     1      41.709 -18.006   2.612  1.00  0.00     0.013 A 
HETATM   22  C   UNL     1      41.206 -16.701   2.541  1.00  0.00     0.010 A 
BRANCH  20  23
HETATM   23  C   UNL     1      43.613 -19.633   2.789  1.00  0.00    -0.008 A 
HETATM   24  C   UNL     1      44.317 -20.075   3.913  1.00  0.00     0.128 A 
HETATM   25  N   UNL     1      44.826 -21.320   4.076  1.00  0.00    -0.272 NA
HETATM   26  C   UNL     1      44.622 -22.194   3.070  1.00  0.00     0.116 A 
HETATM   27  C   UNL     1      43.936 -21.875   1.911  1.00  0.00     0.020 A 
HETATM   28  C   UNL     1      43.431 -20.582   1.773  1.00  0.00     0.015 A 
ENDBRANCH  20  23
ENDBRANCH  16  17
ENDBRANCH   1  16
TORSDOF 6
ENDMDL
MODEL 5
REMARK VINA RESULT:      -7.7      2.553      3.616
REMARK  6 active torsions:
REMARK  status: ('A' for Active; 'I' for Inactive)
REMARK    1  A    between atoms: C_4  and  C_5 
REMARK    2  A    between atoms: C_5  and  N_6 
REMARK    3  A    between atoms: C_5  and  C_22 
REMARK    4  A    between atoms: N_6  and  C_9 
REMARK    5  A    between atoms: C_9  and  C_10 
REMARK    6  A    between atoms: C_13  and  C_14 
REMARK       I    between atoms: C_22  and  N_23 
ROOT
HETATM    1  N   UNL     1      41.146 -14.505   1.640  1.00  0.00    -0.054 N 
HETATM    2  H   UNL     1      40.400 -15.078   2.049  1.00  0.00     0.278 HD
HETATM    3  H   UNL     1      40.691 -13.706   1.180  1.00  0.00     0.278 HD
ENDROOT
BRANCH   1   4
HETATM    4  C   UNL     1      42.016 -13.919   2.729  1.00  0.00     0.310 C 
BRANCH   4   5
HETATM    5  C   UNL     1      42.084 -14.872   3.905  1.00  0.00    -0.019 A 
HETATM    6  C   UNL     1      40.902 -15.370   4.477  1.00  0.00     0.010 A 
HETATM    7  C   UNL     1      40.959 -16.240   5.568  1.00  0.00     0.001 A 
HETATM    8  C   UNL     1      42.189 -16.614   6.104  1.00  0.00     0.000 A 
HETATM    9  C   UNL     1      43.368 -16.119   5.553  1.00  0.00     0.001 A 
HETATM   10  C   UNL     1      43.319 -15.251   4.461  1.00  0.00     0.010 A 
ENDBRANCH   4   5
BRANCH   4  11
HETATM   11  C   UNL     1      41.476 -12.532   3.154  1.00  0.00     0.251 C 
HETATM   12  N   UNL     1      42.041 -11.934   4.240  1.00  0.00    -0.368 N 
HETATM   13  H   UNL     1      42.542 -12.448   4.957  1.00  0.00     0.159 HD
HETATM   14  H   UNL     1      41.632 -11.054   4.544  1.00  0.00     0.159 HD
HETATM   15  O   UNL     1      40.595 -11.975   2.499  1.00  0.00    -0.271 OA
ENDBRANCH   4  11
ENDBRANCH   1   4
BRANCH   1  16
HETATM   16  C   UNL     1      41.872 -15.276   0.593  1.00  0.00     0.272 C 
BRANCH  16  17
HETATM   17  C   UNL     1      42.415 -16.577   1.119  1.00  0.00    -0.033 A 
HETATM   18  C   UNL     1      43.794 -16.782   1.264  1.00  0.00     0.010 A 
HETATM   19  C   UNL     1      44.285 -17.985   1.786  1.00  0.00     0.013 A 
HETATM   20  C   UNL     1      43.421 -19.011   2.202  1.00  0.00    -0.025 A 
HETATM   21  C   UNL     1      42.042 -18.791   2.058  1.00  0.00     0.013 A 
HETATM   22  C   UNL     1      41.544 -17.596   1.524  1.00  0.00     0.010 A 
BRANCH  20  23
HETATM   23  C   UNL     1      43.942 -20.260   2.790  1.00  0.00    -0.008 A 
HETATM   24  C   UNL     1      43.967 -21.461   2.075  1.00  0.00     0.128 A 
HETATM   25  N   UNL     1      44.429 -22.643   2.551  1.00  0.00    -0.272 NA
HETATM   26  C   UNL     1      44.907 -22.643   3.811  1.00  0.00     0.116 A 
HETATM   27  C   UNL     1      44.940 -21.517   4.614  1.00  0.00     0.020 A 
HETATM   28  C   UNL     1      44.449 -20.318   4.096  1.00  0.00     0.015 A 
ENDBRANCH  20  23
ENDBRANCH  16  17
ENDBRANCH   1  16
TORSDOF 6
ENDMDL
MODEL 6
REMARK VINA RESULT:      -7.5      2.849      5.034
REMARK  6 active torsions:
REMARK  status: ('A' for Active; 'I' for Inactive)
REMARK    1  A    between atoms: C_4  and  C_5 
REMARK    2  A    between atoms: C_5  and  N_6 
REMARK    3  A    between atoms: C_5  and  C_22 
REMARK    4  A    between atoms: N_6  and  C_9 
REMARK    5  A    between atoms: C_9  and  C_10 
REMARK    6  A    between atoms: C_13  and  C_14 
REMARK       I    between atoms: C_22  and  N_23 
ROOT
HETATM    1  N   UNL     1      41.999 -13.905   3.919  1.00  0.00    -0.054 N 
HETATM    2  H   UNL     1      41.784 -12.917   3.742  1.00  0.00     0.278 HD
HETATM    3  H   UNL     1      42.376 -13.962   4.875  1.00  0.00     0.278 HD
ENDROOT
BRANCH   1   4
HETATM    4  C   UNL     1      40.730 -14.726   3.922  1.00  0.00     0.310 C 
BRANCH   4   5
HETATM    5  C   UNL     1      39.731 -14.138   2.948  1.00  0.00    -0.019 A 
HETATM    6  C   UNL     1      39.027 -14.977   2.069  1.00  0.00     0.010 A 
HETATM    7  C   UNL     1      38.112 -14.439   1.160  1.00  0.00     0.001 A 
HETATM    8  C   UNL     1      37.898 -13.063   1.113  1.00  0.00     0.000 A 
HETATM    9  C   UNL     1      38.596 -12.219   1.972  1.00  0.00     0.001 A 
HETATM   10  C   UNL     1      39.510 -12.750   2.884  1.00  0.00     0.010 A 
ENDBRANCH   4   5
BRANCH   4  11
HETATM   11  C   UNL     1      40.147 -14.804   5.355  1.00  0.00     0.251 C 
HETATM   12  N   UNL     1      40.063 -16.029   5.943  1.00  0.00    -0.368 N 
HETATM   13  H   UNL     1      40.050 -16.896   5.417  1.00  0.00     0.159 HD
HETATM   14  H   UNL     1      39.619 -16.069   6.857  1.00  0.00     0.159 HD
HETATM   15  O   UNL     1      39.814 -13.780   5.950  1.00  0.00    -0.271 OA
ENDBRANCH   4  11
ENDBRANCH   1   4
BRANCH   1  16
HETATM   16  C   UNL     1      43.059 -14.377   2.987  1.00  0.00     0.272 C 
BRANCH  16  17
HETATM   17  C   UNL     1      43.309 -15.855   3.111  1.00  0.00    -0.033 A 
HETATM   18  C   UNL     1      43.414 -16.671   1.977  1.00  0.00     0.010 A 
HETATM   19  C   UNL     1      43.680 -18.040   2.104  1.00  0.00     0.013 A 
HETATM   20  C   UNL     1      43.875 -18.635   3.361  1.00  0.00    -0.025 A 
HETATM   21  C   UNL     1      43.775 -17.806   4.490  1.00  0.00     0.013 A 
HETATM   22  C   UNL     1      43.495 -16.439   4.371  1.00  0.00     0.010 A 
BRANCH  20  23
HETATM   23  C   UNL     1      44.198 -20.069   3.489  1.00  0.00    -0.008 A 
HETATM   24  C   UNL     1      44.156 -20.937   2.395  1.00  0.00     0.128 A 
HETATM   25  N   UNL     1      44.440 -22.262   2.438  1.00  0.00    -0.272 NA
HETATM   26  C   UNL     1      44.797 -22.766   3.635  1.00  0.00     0.116 A 
HETATM   27  C   UNL     1      44.880 -22.005   4.788  1.00  0.00     0.020 A 
HETATM   28  C   UNL     1      44.574 -20.646   4.711  1.00  0.00     0.015 A 
ENDBRANCH  20  23
ENDBRANCH  16  17
ENDBRANCH   1  16
TORSDOF 6
ENDMDL
MODEL 7
REMARK VINA RESULT:      -7.5      3.886      6.207
REMARK  6 active torsions:
REMARK  status: ('A' for Active; 'I' for Inactive)
REMARK    1  A    between atoms: C_4  and  C_5 
REMARK    2  A    between atoms: C_5  and  N_6 
REMARK    3  A    between atoms: C_5  and  C_22 
REMARK    4  A    between atoms: N_6  and  C_9 
REMARK    5  A    between atoms: C_9  and  C_10 
REMARK    6  A    between atoms: C_13  and  C_14 
REMARK       I    between atoms: C_22  and  N_23 
ROOT
HETATM    1  N   UNL     1      41.824 -14.076   2.014  1.00  0.00    -0.054 N 
HETATM    2  H   UNL     1      41.928 -13.252   1.412  1.00  0.00     0.278 HD
HETATM    3  H   UNL     1      41.062 -13.870   2.673  1.00  0.00     0.278 HD
ENDROOT
BRANCH   1   4
HETATM    4  C   UNL     1      41.363 -15.265   1.203  1.00  0.00     0.310 C 
BRANCH   4   5
HETATM    5  C   UNL     1      41.394 -14.927  -0.273  1.00  0.00    -0.019 A 
HETATM    6  C   UNL     1      41.783 -13.644  -0.694  1.00  0.00     0.010 A 
HETATM    7  C   UNL     1      41.804 -13.323  -2.053  1.00  0.00     0.001 A 
HETATM    8  C   UNL     1      41.429 -14.271  -3.003  1.00  0.00     0.000 A 
HETATM    9  C   UNL     1      41.032 -15.542  -2.599  1.00  0.00     0.001 A 
HETATM   10  C   UNL     1      41.011 -15.871  -1.243  1.00  0.00     0.010 A 
ENDBRANCH   4   5
BRANCH   4  11
HETATM   11  C   UNL     1      39.948 -15.703   1.654  1.00  0.00     0.251 C 
HETATM   12  N   UNL     1      39.783 -16.988   2.074  1.00  0.00    -0.368 N 
HETATM   13  H   UNL     1      40.413 -17.740   1.818  1.00  0.00     0.159 HD
HETATM   14  H   UNL     1      38.835 -17.277   2.305  1.00  0.00     0.159 HD
HETATM   15  O   UNL     1      39.019 -14.897   1.670  1.00  0.00    -0.271 OA
ENDBRANCH   4  11
ENDBRANCH   1   4
BRANCH   1  16
HETATM   16  C   UNL     1      43.063 -14.293   2.810  1.00  0.00     0.272 C 
BRANCH  16  17
HETATM   17  C   UNL     1      43.393 -15.752   2.964  1.00  0.00    -0.033 A 
HETATM   18  C   UNL     1      43.144 -16.430   4.165  1.00  0.00     0.010 A 
HETATM   19  C   UNL     1      43.424 -17.796   4.285  1.00  0.00     0.013 A 
HETATM   20  C   UNL     1      43.937 -18.537   3.208  1.00  0.00    -0.025 A 
HETATM   21  C   UNL     1      44.175 -17.849   2.007  1.00  0.00     0.013 A 
HETATM   22  C   UNL     1      43.910 -16.479   1.884  1.00  0.00     0.010 A 
BRANCH  20  23
HETATM   23  C   UNL     1      44.191 -19.986   3.324  1.00  0.00    -0.008 A 
HETATM   24  C   UNL     1      44.037 -20.854   2.239  1.00  0.00     0.128 A 
HETATM   25  N   UNL     1      44.252 -22.192   2.274  1.00  0.00    -0.272 NA
HETATM   26  C   UNL     1      44.653 -22.711   3.451  1.00  0.00     0.116 A 
HETATM   27  C   UNL     1      44.845 -21.953   4.592  1.00  0.00     0.020 A 
HETATM   28  C   UNL     1      44.608 -20.579   4.525  1.00  0.00     0.015 A 
ENDBRANCH  20  23
ENDBRANCH  16  17
ENDBRANCH   1  16
TORSDOF 6
ENDMDL
MODEL 8
REMARK VINA RESULT:      -7.4      3.806      5.936
REMARK  6 active torsions:
REMARK  status: ('A' for Active; 'I' for Inactive)
REMARK    1  A    between atoms: C_4  and  C_5 
REMARK    2  A    between atoms: C_5  and  N_6 
REMARK    3  A    between atoms: C_5  and  C_22 
REMARK    4  A    between atoms: N_6  and  C_9 
REMARK    5  A    between atoms: C_9  and  C_10 
REMARK    6  A    between atoms: C_13  and  C_14 
REMARK       I    between atoms: C_22  and  N_23 
ROOT
HETATM    1  N   UNL     1      42.236 -18.196   5.034  1.00  0.00    -0.054 N 
HETATM    2  H   UNL     1      41.682 -18.784   4.402  1.00  0.00     0.278 HD
HETATM    3  H   UNL     1      42.062 -18.538   5.988  1.00  0.00     0.278 HD
ENDROOT
BRANCH   1   4
HETATM    4  C   UNL     1      43.712 -18.397   4.781  1.00  0.00     0.310 C 
BRANCH   4   5
HETATM    5  C   UNL     1      43.924 -19.602   3.888  1.00  0.00    -0.019 A 
HETATM    6  C   UNL     1      43.457 -19.588   2.564  1.00  0.00     0.010 A 
HETATM    7  C   UNL     1      43.640 -20.700   1.739  1.00  0.00     0.001 A 
HETATM    8  C   UNL     1      44.279 -21.837   2.227  1.00  0.00     0.000 A 
HETATM    9  C   UNL     1      44.738 -21.868   3.541  1.00  0.00     0.001 A 
HETATM   10  C   UNL     1      44.560 -20.760   4.370  1.00  0.00     0.010 A 
ENDBRANCH   4   5
BRANCH   4  11
HETATM   11  C   UNL     1      44.469 -18.546   6.123  1.00  0.00     0.251 C 
HETATM   12  N   UNL     1      43.827 -19.167   7.152  1.00  0.00    -0.368 N 
HETATM   13  H   UNL     1      42.817 -19.245   7.207  1.00  0.00     0.159 HD
HETATM   14  H   UNL     1      44.314 -19.199   8.044  1.00  0.00     0.159 HD
HETATM   15  O   UNL     1      45.629 -18.152   6.234  1.00  0.00    -0.271 OA
ENDBRANCH   4  11
ENDBRANCH   1   4
BRANCH   1  16
HETATM   16  C   UNL     1      41.766 -16.784   4.969  1.00  0.00     0.272 C 
BRANCH  16  17
HETATM   17  C   UNL     1      41.628 -16.296   3.553  1.00  0.00    -0.033 A 
HETATM   18  C   UNL     1      42.354 -15.189   3.093  1.00  0.00     0.010 A 
HETATM   19  C   UNL     1      42.242 -14.764   1.763  1.00  0.00     0.013 A 
HETATM   20  C   UNL     1      41.425 -15.442   0.843  1.00  0.00    -0.025 A 
HETATM   21  C   UNL     1      40.709 -16.554   1.314  1.00  0.00     0.013 A 
HETATM   22  C   UNL     1      40.805 -16.976   2.646  1.00  0.00     0.010 A 
BRANCH  20  23
HETATM   23  C   UNL     1      41.344 -15.018  -0.568  1.00  0.00    -0.008 A 
HETATM   24  C   UNL     1      41.626 -13.707  -0.964  1.00  0.00     0.128 A 
HETATM   25  N   UNL     1      41.572 -13.248  -2.238  1.00  0.00    -0.272 NA
HETATM   26  C   UNL     1      41.226 -14.139  -3.188  1.00  0.00     0.116 A 
HETATM   27  C   UNL     1      40.930 -15.463  -2.920  1.00  0.00     0.020 A 
HETATM   28  C   UNL     1      40.988 -15.902  -1.596  1.00  0.00     0.015 A 
ENDBRANCH  20  23
ENDBRANCH  16  17
ENDBRANCH   1  16
TORSDOF 6
ENDMDL
MODEL 9
REMARK VINA RESULT:      -7.2      3.771      6.000
REMARK  6 active torsions:
REMARK  status: ('A' for Active; 'I' for Inactive)
REMARK    1  A    between atoms: C_4  and  C_5 
REMARK    2  A    between atoms: C_5  and  N_6 
REMARK    3  A    between atoms: C_5  and  C_22 
REMARK    4  A    between atoms: N_6  and  C_9 
REMARK    5  A    between atoms: C_9  and  C_10 
REMARK    6  A    between atoms: C_13  and  C_14 
REMARK       I    between atoms: C_22  and  N_23 
ROOT
HETATM    1  N   UNL     1      41.786 -14.219   2.620  1.00  0.00    -0.054 N 
HETATM    2  H   UNL     1      41.684 -13.198   2.652  1.00  0.00     0.278 HD
HETATM    3  H   UNL     1      41.442 -14.581   3.519  1.00  0.00     0.278 HD
ENDROOT
BRANCH   1   4
HETATM    4  C   UNL     1      40.880 -14.805   1.562  1.00  0.00     0.310 C 
BRANCH   4   5
HETATM    5  C   UNL     1      41.239 -14.239   0.203  1.00  0.00    -0.019 A 
HETATM    6  C   UNL     1      41.084 -15.024  -0.951  1.00  0.00     0.010 A 
HETATM    7  C   UNL     1      41.423 -14.511  -2.205  1.00  0.00     0.001 A 
HETATM    8  C   UNL     1      41.928 -13.218  -2.320  1.00  0.00     0.000 A 
HETATM    9  C   UNL     1      42.096 -12.432  -1.183  1.00  0.00     0.001 A 
HETATM   10  C   UNL     1      41.758 -12.937   0.073  1.00  0.00     0.010 A 
ENDBRANCH   4   5
BRANCH   4  11
HETATM   11  C   UNL     1      39.398 -14.532   1.916  1.00  0.00     0.251 C 
HETATM   12  N   UNL     1      38.526 -15.577   1.858  1.00  0.00    -0.368 N 
HETATM   13  H   UNL     1      38.699 -16.413   1.310  1.00  0.00     0.159 HD
HETATM   14  H   UNL     1      37.546 -15.367   2.031  1.00  0.00     0.159 HD
HETATM   15  O   UNL     1      39.038 -13.413   2.279  1.00  0.00    -0.271 OA
ENDBRANCH   4  11
ENDBRANCH   1   4
BRANCH   1  16
HETATM   16  C   UNL     1      43.223 -14.590   2.504  1.00  0.00     0.272 C 
BRANCH  16  17
HETATM   17  C   UNL     1      43.452 -16.057   2.746  1.00  0.00    -0.033 A 
HETATM   18  C   UNL     1      43.843 -16.912   1.706  1.00  0.00     0.010 A 
HETATM   19  C   UNL     1      44.086 -18.269   1.950  1.00  0.00     0.013 A 
HETATM   20  C   UNL     1      43.972 -18.814   3.240  1.00  0.00    -0.025 A 
HETATM   21  C   UNL     1      43.588 -17.946   4.275  1.00  0.00     0.013 A 
HETATM   22  C   UNL     1      43.329 -16.591   4.035  1.00  0.00     0.010 A 
BRANCH  20  23
HETATM   23  C   UNL     1      44.271 -20.235   3.501  1.00  0.00    -0.008 A 
HETATM   24  C   UNL     1      44.239 -21.196   2.487  1.00  0.00     0.128 A 
HETATM   25  N   UNL     1      44.501 -22.515   2.653  1.00  0.00    -0.272 NA
HETATM   26  C   UNL     1      44.826 -22.916   3.898  1.00  0.00     0.116 A 
HETATM   27  C   UNL     1      44.896 -22.057   4.981  1.00  0.00     0.020 A 
HETATM   28  C   UNL     1      44.612 -20.706   4.777  1.00  0.00     0.015 A 
ENDBRANCH  20  23
ENDBRANCH  16  17
ENDBRANCH   1  16
TORSDOF 6
ENDMDL
MODEL 10
REMARK VINA RESULT:      -7.2      2.685      7.592
REMARK  6 active torsions:
REMARK  status: ('A' for Active; 'I' for Inactive)
REMARK    1  A    between atoms: C_4  and  C_5 
REMARK    2  A    between atoms: C_5  and  N_6 
REMARK    3  A    between atoms: C_5  and  C_22 
REMARK    4  A    between atoms: N_6  and  C_9 
REMARK    5  A    between atoms: C_9  and  C_10 
REMARK    6  A    between atoms: C_13  and  C_14 
REMARK       I    between atoms: C_22  and  N_23 
ROOT
HETATM    1  N   UNL     1      43.370 -17.526   4.011  1.00  0.00    -0.054 N 
HETATM    2  H   UNL     1      43.640 -18.205   4.732  1.00  0.00     0.278 HD
HETATM    3  H   UNL     1      44.208 -16.973   3.792  1.00  0.00     0.278 HD
ENDROOT
BRANCH   1   4
HETATM    4  C   UNL     1      42.995 -18.239   2.732  1.00  0.00     0.310 C 
BRANCH   4   5
HETATM    5  C   UNL     1      43.545 -19.650   2.747  1.00  0.00    -0.019 A 
HETATM    6  C   UNL     1      44.307 -20.098   3.839  1.00  0.00     0.010 A 
HETATM    7  C   UNL     1      44.826 -21.395   3.853  1.00  0.00     0.001 A 
HETATM    8  C   UNL     1      44.600 -22.252   2.779  1.00  0.00     0.000 A 
HETATM    9  C   UNL     1      43.856 -21.818   1.686  1.00  0.00     0.001 A 
HETATM   10  C   UNL     1      43.332 -20.524   1.665  1.00  0.00     0.010 A 
ENDBRANCH   4   5
BRANCH   4  11
HETATM   11  C   UNL     1      43.507 -17.444   1.507  1.00  0.00     0.251 C 
HETATM   12  N   UNL     1      42.582 -16.914   0.659  1.00  0.00    -0.368 N 
HETATM   13  H   UNL     1      41.631 -17.261   0.590  1.00  0.00     0.159 HD
HETATM   14  H   UNL     1      42.936 -16.451  -0.174  1.00  0.00     0.159 HD
HETATM   15  O   UNL     1      44.712 -17.264   1.337  1.00  0.00    -0.271 OA
ENDBRANCH   4  11
ENDBRANCH   1   4
BRANCH   1  16
HETATM   16  C   UNL     1      42.340 -16.592   4.543  1.00  0.00     0.272 C 
BRANCH  16  17
HETATM   17  C   UNL     1      42.923 -15.585   5.496  1.00  0.00    -0.033 A 
HETATM   18  C   UNL     1      43.894 -15.953   6.436  1.00  0.00     0.010 A 
HETATM   19  C   UNL     1      44.454 -15.000   7.295  1.00  0.00     0.013 A 
HETATM   20  C   UNL     1      44.085 -13.646   7.229  1.00  0.00    -0.025 A 
HETATM   21  C   UNL     1      43.117 -13.288   6.277  1.00  0.00     0.013 A 
HETATM   22  C   UNL     1      42.542 -14.239   5.425  1.00  0.00     0.010 A 
BRANCH  20  23
HETATM   23  C   UNL     1      44.709 -12.637   8.106  1.00  0.00    -0.008 A 
HETATM   24  C   UNL     1      46.023 -12.202   7.915  1.00  0.00     0.128 A 
HETATM   25  N   UNL     1      46.659 -11.281   8.679  1.00  0.00    -0.272 NA
HETATM   26  C   UNL     1      45.953 -10.744   9.694  1.00  0.00     0.116 A 
HETATM   27  C   UNL     1      44.644 -11.089   9.978  1.00  0.00     0.020 A 
HETATM   28  C   UNL     1      44.021 -12.046   9.176  1.00  0.00     0.015 A 
ENDBRANCH  20  23
ENDBRANCH  16  17
ENDBRANCH   1  16
TORSDOF 6
ENDMDL
