MODEL 1
REMARK VINA RESULT:      -9.1      0.000      0.000
REMARK  6 active torsions:
REMARK  status: ('A' for Active; 'I' for Inactive)
REMARK    1  A    between atoms: O_2  and  C_3 
REMARK    2  A    between atoms: C_5  and  C_6 
REMARK       I    between atoms: C_6  and  N_7 
REMARK    3  A    between atoms: N_7  and  C_8 
REMARK    4  A    between atoms: C_10  and  C_11 
REMARK    5  A    between atoms: C_11  and  C_12 
REMARK    6  A    between atoms: C_12  and  C_13 
ROOT
HETATM    1  C   UNL     1      43.133 -13.857   5.786  1.00  0.00     0.725 A 
HETATM    2  N   UNL     1      42.453 -14.974   5.693  1.00  0.00    -0.046 NA
HETATM    3  C   UNL     1      42.662 -15.363   4.390  1.00  0.00     0.166 A 
HETATM    4  N   UNL     1      43.430 -14.532   3.672  1.00  0.00    -0.144 NA
HETATM    5  N   UNL     1      43.719 -13.583   4.581  1.00  0.00    -0.106 N 
HETATM    6  H   UNL     1      44.311 -12.790   4.349  1.00  0.00     0.208 HD
ENDROOT
BRANCH   1   7
HETATM    7  N   UNL     1      43.241 -13.089   6.915  1.00  0.00    -0.152 N 
HETATM    8  C   UNL     1      44.427 -12.986   7.609  1.00  0.00     0.270 C 
HETATM    9  O   UNL     1      45.461 -13.572   7.296  1.00  0.00    -0.267 OA
HETATM   10  H   UNL     1      42.382 -12.664   7.231  1.00  0.00     0.187 HD
BRANCH   8  11
HETATM   11  C   UNL     1      44.401 -12.121   8.822  1.00  0.00     0.035 A 
HETATM   12  C   UNL     1      43.229 -11.406   9.101  1.00  0.00     0.053 A 
HETATM   13  C   UNL     1      43.147 -10.577  10.223  1.00  0.00     0.069 A 
HETATM   14  C   UNL     1      44.248 -10.467  11.074  1.00  0.00     0.037 A 
HETATM   15  C   UNL     1      45.415 -11.191  10.811  1.00  0.00     0.004 A 
HETATM   16  C   UNL     1      45.493 -12.020   9.691  1.00  0.00     0.017 A 
BRANCH  13  17
HETATM   17  O   UNL     1      41.951  -9.932  10.371  1.00  0.00    -0.356 OA
HETATM   18  C   UNL     1      40.944 -10.601  11.120  1.00  0.00     0.210 C 
ENDBRANCH  13  17
ENDBRANCH   8  11
ENDBRANCH   1   7
BRANCH   3  19
HETATM   19  C   UNL     1      42.079 -16.603   3.811  1.00  0.00     0.087 C 
BRANCH  19  20
HETATM   20  C   UNL     1      43.058 -17.355   2.909  1.00  0.00     0.048 C 
BRANCH  20  21
HETATM   21  C   UNL     1      43.731 -18.491   3.616  1.00  0.00    -0.030 A 
HETATM   22  C   UNL     1      43.905 -19.823   3.122  1.00  0.00    -0.002 A 
HETATM   23  C   UNL     1      44.592 -20.545   4.099  1.00  0.00     0.042 A 
HETATM   24  C   UNL     1      43.542 -20.483   1.930  1.00  0.00     0.014 A 
HETATM   25  C   UNL     1      44.936 -21.894   3.943  1.00  0.00     0.030 A 
HETATM   26  N   UNL     1      44.822 -19.686   5.148  1.00  0.00    -0.365 N 
HETATM   27  C   UNL     1      44.565 -22.523   2.751  1.00  0.00     0.002 A 
HETATM   28  C   UNL     1      43.878 -21.832   1.758  1.00  0.00     0.001 A 
HETATM   29  H   UNL     1      45.304 -19.941   5.999  1.00  0.00     0.165 HD
HETATM   30  C   UNL     1      44.309 -18.449   4.870  1.00  0.00     0.096 A 
ENDBRANCH  20  21
ENDBRANCH  19  20
ENDBRANCH   3  19
TORSDOF 6
ENDMDL
MODEL 2
REMARK VINA RESULT:      -8.7      2.882     10.157
REMARK  6 active torsions:
REMARK  status: ('A' for Active; 'I' for Inactive)
REMARK    1  A    between atoms: O_2  and  C_3 
REMARK    2  A    between atoms: C_5  and  C_6 
REMARK       I    between atoms: C_6  and  N_7 
REMARK    3  A    between atoms: N_7  and  C_8 
REMARK    4  A    between atoms: C_10  and  C_11 
REMARK    5  A    between atoms: C_11  and  C_12 
REMARK    6  A    between atoms: C_12  and  C_13 
ROOT
HETATM    1  C   UNL     1      45.141 -13.669   7.663  1.00  0.00     0.725 A 
HETATM    2  N   UNL     1      44.769 -13.248   8.848  1.00  0.00    -0.046 NA
HETATM    3  C   UNL     1      45.631 -12.205   9.096  1.00  0.00     0.166 A 
HETATM    4  N   UNL     1      46.524 -11.970   8.124  1.00  0.00    -0.144 NA
HETATM    5  N   UNL     1      46.192 -12.913   7.223  1.00  0.00    -0.106 N 
HETATM    6  H   UNL     1      46.687 -12.999   6.341  1.00  0.00     0.208 HD
ENDROOT
BRANCH   1   7
HETATM    7  N   UNL     1      44.562 -14.703   6.975  1.00  0.00    -0.152 N 
HETATM    8  C   UNL     1      43.902 -14.499   5.783  1.00  0.00     0.270 C 
HETATM    9  O   UNL     1      43.761 -13.398   5.254  1.00  0.00    -0.267 OA
HETATM   10  H   UNL     1      44.601 -15.601   7.434  1.00  0.00     0.187 HD
BRANCH   8  11
HETATM   11  C   UNL     1      43.317 -15.712   5.145  1.00  0.00     0.035 A 
HETATM   12  C   UNL     1      42.589 -15.550   3.959  1.00  0.00     0.053 A 
HETATM   13  C   UNL     1      42.015 -16.651   3.318  1.00  0.00     0.069 A 
HETATM   14  C   UNL     1      42.177 -17.924   3.867  1.00  0.00     0.037 A 
HETATM   15  C   UNL     1      42.918 -18.094   5.040  1.00  0.00     0.004 A 
HETATM   16  C   UNL     1      43.491 -16.994   5.679  1.00  0.00     0.017 A 
BRANCH  13  17
HETATM   17  O   UNL     1      41.325 -16.352   2.176  1.00  0.00    -0.356 OA
HETATM   18  C   UNL     1      41.244 -17.367   1.184  1.00  0.00     0.210 C 
ENDBRANCH  13  17
ENDBRANCH   8  11
ENDBRANCH   1   7
BRANCH   3  19
HETATM   19  C   UNL     1      45.589 -11.398  10.345  1.00  0.00     0.087 C 
BRANCH  19  20
HETATM   20  C   UNL     1      44.583 -10.248  10.277  1.00  0.00     0.048 C 
BRANCH  20  21
HETATM   21  C   UNL     1      43.299 -10.568  10.979  1.00  0.00    -0.030 A 
HETATM   22  C   UNL     1      42.950 -10.221  12.324  1.00  0.00    -0.002 A 
HETATM   23  C   UNL     1      41.662 -10.705  12.560  1.00  0.00     0.042 A 
HETATM   24  C   UNL     1      43.612  -9.537  13.364  1.00  0.00     0.014 A 
HETATM   25  C   UNL     1      41.002 -10.536  13.782  1.00  0.00     0.030 A 
HETATM   26  N   UNL     1      41.247 -11.326  11.405  1.00  0.00    -0.365 N 
HETATM   27  C   UNL     1      41.680  -9.853  14.796  1.00  0.00     0.002 A 
HETATM   28  C   UNL     1      42.966  -9.359  14.594  1.00  0.00     0.001 A 
HETATM   29  H   UNL     1      40.347 -11.771  11.289  1.00  0.00     0.165 HD
HETATM   30  C   UNL     1      42.222 -11.251  10.449  1.00  0.00     0.096 A 
ENDBRANCH  20  21
ENDBRANCH  19  20
ENDBRANCH   3  19
TORSDOF 6
ENDMDL
MODEL 3
REMARK VINA RESULT:      -8.6      1.648      2.513
REMARK  6 active torsions:
REMARK  status: ('A' for Active; 'I' for Inactive)
REMARK    1  A    between atoms: O_2  and  C_3 
REMARK    2  A    between atoms: C_5  and  C_6 
REMARK       I    between atoms: C_6  and  N_7 
REMARK    3  A    between atoms: N_7  and  C_8 
REMARK    4  A    between atoms: C_10  and  C_11 
REMARK    5  A    between atoms: C_11  and  C_12 
REMARK    6  A    between atoms: C_12  and  C_13 
ROOT
HETATM    1  C   UNL     1      43.950 -12.730   7.791  1.00  0.00     0.725 A 
HETATM    2  N   UNL     1      43.187 -13.148   6.811  1.00  0.00    -0.046 NA
HETATM    3  C   UNL     1      43.967 -14.089   6.182  1.00  0.00     0.166 A 
HETATM    4  N   UNL     1      45.182 -14.263   6.722  1.00  0.00    -0.144 NA
HETATM    5  N   UNL     1      45.148 -13.389   7.744  1.00  0.00    -0.106 N 
HETATM    6  H   UNL     1      45.936 -13.282   8.376  1.00  0.00     0.208 HD
ENDROOT
BRANCH   1   7
HETATM    7  N   UNL     1      43.600 -11.783   8.717  1.00  0.00    -0.152 N 
HETATM    8  C   UNL     1      43.908 -11.928  10.052  1.00  0.00     0.270 C 
HETATM    9  O   UNL     1      44.493 -12.902  10.522  1.00  0.00    -0.267 OA
HETATM   10  H   UNL     1      43.051 -11.014   8.362  1.00  0.00     0.187 HD
BRANCH   8  11
HETATM   11  C   UNL     1      43.463 -10.824  10.949  1.00  0.00     0.035 A 
HETATM   12  C   UNL     1      42.562  -9.880  10.440  1.00  0.00     0.053 A 
HETATM   13  C   UNL     1      42.112  -8.821  11.234  1.00  0.00     0.069 A 
HETATM   14  C   UNL     1      42.565  -8.713  12.550  1.00  0.00     0.037 A 
HETATM   15  C   UNL     1      43.450  -9.661  13.069  1.00  0.00     0.004 A 
HETATM   16  C   UNL     1      43.897 -10.718  12.275  1.00  0.00     0.017 A 
BRANCH  13  17
HETATM   17  O   UNL     1      41.244  -7.969  10.611  1.00  0.00    -0.356 OA
HETATM   18  C   UNL     1      39.954  -8.476  10.294  1.00  0.00     0.210 C 
ENDBRANCH  13  17
ENDBRANCH   8  11
ENDBRANCH   1   7
BRANCH   3  19
HETATM   19  C   UNL     1      43.513 -14.855   4.991  1.00  0.00     0.087 C 
BRANCH  19  20
HETATM   20  C   UNL     1      42.719 -16.110   5.357  1.00  0.00     0.048 C 
BRANCH  20  21
HETATM   21  C   UNL     1      43.536 -17.359   5.233  1.00  0.00    -0.030 A 
HETATM   22  C   UNL     1      43.538 -18.274   4.131  1.00  0.00    -0.002 A 
HETATM   23  C   UNL     1      44.451 -19.286   4.430  1.00  0.00     0.042 A 
HETATM   24  C   UNL     1      42.847 -18.333   2.904  1.00  0.00     0.014 A 
HETATM   25  C   UNL     1      44.710 -20.354   3.562  1.00  0.00     0.030 A 
HETATM   26  N   UNL     1      44.979 -19.001   5.667  1.00  0.00    -0.365 N 
HETATM   27  C   UNL     1      44.012 -20.387   2.351  1.00  0.00     0.002 A 
HETATM   28  C   UNL     1      43.093 -19.394   2.024  1.00  0.00     0.001 A 
HETATM   29  H   UNL     1      45.671 -19.568   6.137  1.00  0.00     0.165 HD
HETATM   30  C   UNL     1      44.437 -17.846   6.160  1.00  0.00     0.096 A 
ENDBRANCH  20  21
ENDBRANCH  19  20
ENDBRANCH   3  19
TORSDOF 6
ENDMDL
MODEL 4
REMARK VINA RESULT:      -8.6      4.377      7.245
REMARK  6 active torsions:
REMARK  status: ('A' for Active; 'I' for Inactive)
REMARK    1  A    between atoms: O_2  and  C_3 
REMARK    2  A    between atoms: C_5  and  C_6 
REMARK       I    between atoms: C_6  and  N_7 
REMARK    3  A    between atoms: N_7  and  C_8 
REMARK    4  A    between atoms: C_10  and  C_11 
REMARK    5  A    between atoms: C_11  and  C_12 
REMARK    6  A    between atoms: C_12  and  C_13 
ROOT
HETATM    1  C   UNL     1      40.784 -15.594   4.869  1.00  0.00     0.725 A 
HETATM    2  N   UNL     1      42.021 -15.460   5.279  1.00  0.00    -0.046 NA
HETATM    3  C   UNL     1      42.064 -16.236   6.414  1.00  0.00     0.166 A 
HETATM    4  N   UNL     1      40.907 -16.833   6.730  1.00  0.00    -0.144 NA
HETATM    5  N   UNL     1      40.108 -16.412   5.733  1.00  0.00    -0.106 N 
HETATM    6  H   UNL     1      39.137 -16.703   5.673  1.00  0.00     0.208 HD
ENDROOT
BRANCH   1   7
HETATM    7  N   UNL     1      40.254 -15.009   3.750  1.00  0.00    -0.152 N 
HETATM    8  C   UNL     1      40.046 -15.722   2.590  1.00  0.00     0.270 C 
HETATM    9  O   UNL     1      40.327 -16.911   2.453  1.00  0.00    -0.267 OA
HETATM   10  H   UNL     1      40.091 -14.015   3.819  1.00  0.00     0.187 HD
BRANCH   8  11
HETATM   11  C   UNL     1      39.468 -14.959   1.448  1.00  0.00     0.035 A 
HETATM   12  C   UNL     1      40.295 -14.678   0.353  1.00  0.00     0.053 A 
HETATM   13  C   UNL     1      39.807 -13.963  -0.745  1.00  0.00     0.069 A 
HETATM   14  C   UNL     1      38.480 -13.532  -0.746  1.00  0.00     0.037 A 
HETATM   15  C   UNL     1      37.645 -13.824   0.336  1.00  0.00     0.004 A 
HETATM   16  C   UNL     1      38.133 -14.539   1.431  1.00  0.00     0.017 A 
BRANCH  13  17
HETATM   17  O   UNL     1      40.721 -13.751  -1.740  1.00  0.00    -0.356 OA
HETATM   18  C   UNL     1      41.963 -13.169  -1.365  1.00  0.00     0.210 C 
ENDBRANCH  13  17
ENDBRANCH   8  11
ENDBRANCH   1   7
BRANCH   3  19
HETATM   19  C   UNL     1      43.291 -16.400   7.238  1.00  0.00     0.087 C 
BRANCH  19  20
HETATM   20  C   UNL     1      44.527 -16.741   6.405  1.00  0.00     0.048 C 
BRANCH  20  21
HETATM   21  C   UNL     1      44.411 -18.071   5.726  1.00  0.00    -0.030 A 
HETATM   22  C   UNL     1      44.142 -18.303   4.339  1.00  0.00    -0.002 A 
HETATM   23  C   UNL     1      44.131 -19.684   4.140  1.00  0.00     0.042 A 
HETATM   24  C   UNL     1      43.907 -17.463   3.231  1.00  0.00     0.014 A 
HETATM   25  C   UNL     1      43.902 -20.268   2.888  1.00  0.00     0.030 A 
HETATM   26  N   UNL     1      44.379 -20.270   5.360  1.00  0.00    -0.365 N 
HETATM   27  C   UNL     1      43.673 -19.412   1.807  1.00  0.00     0.002 A 
HETATM   28  C   UNL     1      43.674 -18.030   1.972  1.00  0.00     0.001 A 
HETATM   29  H   UNL     1      44.430 -21.267   5.514  1.00  0.00     0.165 HD
HETATM   30  C   UNL     1      44.548 -19.311   6.320  1.00  0.00     0.096 A 
ENDBRANCH  20  21
ENDBRANCH  19  20
ENDBRANCH   3  19
TORSDOF 6
ENDMDL
MODEL 5
REMARK VINA RESULT:      -8.6      4.977      7.760
REMARK  6 active torsions:
REMARK  status: ('A' for Active; 'I' for Inactive)
REMARK    1  A    between atoms: O_2  and  C_3 
REMARK    2  A    between atoms: C_5  and  C_6 
REMARK       I    between atoms: C_6  and  N_7 
REMARK    3  A    between atoms: N_7  and  C_8 
REMARK    4  A    between atoms: C_10  and  C_11 
REMARK    5  A    between atoms: C_11  and  C_12 
REMARK    6  A    between atoms: C_12  and  C_13 
ROOT
HETATM    1  C   UNL     1      41.198 -15.018   2.267  1.00  0.00     0.725 A 
HETATM    2  N   UNL     1      41.808 -16.072   2.751  1.00  0.00    -0.046 NA
HETATM    3  C   UNL     1      41.392 -16.103   4.061  1.00  0.00     0.166 A 
HETATM    4  N   UNL     1      40.563 -15.110   4.411  1.00  0.00    -0.144 NA
HETATM    5  N   UNL     1      40.453 -14.433   3.253  1.00  0.00    -0.106 N 
HETATM    6  H   UNL     1      39.868 -13.606   3.177  1.00  0.00     0.208 HD
ENDROOT
BRANCH   1   7
HETATM    7  N   UNL     1      41.291 -14.575   0.973  1.00  0.00    -0.152 N 
HETATM    8  C   UNL     1      41.956 -13.412   0.653  1.00  0.00     0.270 C 
HETATM    9  O   UNL     1      42.494 -12.677   1.478  1.00  0.00    -0.267 OA
HETATM   10  H   UNL     1      40.789 -15.125   0.292  1.00  0.00     0.187 HD
BRANCH   8  11
HETATM   11  C   UNL     1      41.976 -13.048  -0.792  1.00  0.00     0.035 A 
HETATM   12  C   UNL     1      41.464 -13.970  -1.715  1.00  0.00     0.053 A 
HETATM   13  C   UNL     1      41.459 -13.684  -3.083  1.00  0.00     0.069 A 
HETATM   14  C   UNL     1      41.967 -12.462  -3.528  1.00  0.00     0.037 A 
HETATM   15  C   UNL     1      42.464 -11.531  -2.611  1.00  0.00     0.004 A 
HETATM   16  C   UNL     1      42.467 -11.818  -1.246  1.00  0.00     0.017 A 
BRANCH  13  17
HETATM   17  O   UNL     1      40.939 -14.672  -3.871  1.00  0.00    -0.356 OA
HETATM   18  C   UNL     1      40.353 -15.786  -3.210  1.00  0.00     0.210 C 
ENDBRANCH  13  17
ENDBRANCH   8  11
ENDBRANCH   1   7
BRANCH   3  19
HETATM   19  C   UNL     1      41.829 -17.148   5.026  1.00  0.00     0.087 C 
BRANCH  19  20
HETATM   20  C   UNL     1      43.350 -17.248   5.147  1.00  0.00     0.048 C 
BRANCH  20  21
HETATM   21  C   UNL     1      43.839 -18.661   5.062  1.00  0.00    -0.030 A 
HETATM   22  C   UNL     1      43.858 -19.490   3.895  1.00  0.00    -0.002 A 
HETATM   23  C   UNL     1      44.403 -20.721   4.265  1.00  0.00     0.042 A 
HETATM   24  C   UNL     1      43.463 -19.307   2.554  1.00  0.00     0.014 A 
HETATM   25  C   UNL     1      44.575 -21.776   3.361  1.00  0.00     0.030 A 
HETATM   26  N   UNL     1      44.699 -20.644   5.606  1.00  0.00    -0.365 N 
HETATM   27  C   UNL     1      44.176 -21.567   2.038  1.00  0.00     0.002 A 
HETATM   28  C   UNL     1      43.627 -20.352   1.637  1.00  0.00     0.001 A 
HETATM   29  H   UNL     1      45.107 -21.395   6.144  1.00  0.00     0.165 HD
HETATM   30  C   UNL     1      44.364 -19.411   6.096  1.00  0.00     0.096 A 
ENDBRANCH  20  21
ENDBRANCH  19  20
ENDBRANCH   3  19
TORSDOF 6
ENDMDL
MODEL 6
REMARK VINA RESULT:      -8.5      5.929      8.988
REMARK  6 active torsions:
REMARK  status: ('A' for Active; 'I' for Inactive)
REMARK    1  A    between atoms: O_2  and  C_3 
REMARK    2  A    between atoms: C_5  and  C_6 
REMARK       I    between atoms: C_6  and  N_7 
REMARK    3  A    between atoms: N_7  and  C_8 
REMARK    4  A    between atoms: C_10  and  C_11 
REMARK    5  A    between atoms: C_11  and  C_12 
REMARK    6  A    between atoms: C_12  and  C_13 
ROOT
HETATM    1  C   UNL     1      39.944 -14.930   1.436  1.00  0.00     0.725 A 
HETATM    2  N   UNL     1      40.595 -16.040   1.688  1.00  0.00    -0.046 NA
HETATM    3  C   UNL     1      40.838 -15.964   3.039  1.00  0.00     0.166 A 
HETATM    4  N   UNL     1      40.376 -14.853   3.631  1.00  0.00    -0.144 NA
HETATM    5  N   UNL     1      39.811 -14.212   2.593  1.00  0.00    -0.106 N 
HETATM    6  H   UNL     1      39.349 -13.315   2.712  1.00  0.00     0.208 HD
ENDROOT
BRANCH   1   7
HETATM    7  N   UNL     1      39.470 -14.554   0.208  1.00  0.00    -0.152 N 
HETATM    8  C   UNL     1      38.265 -13.900   0.066  1.00  0.00     0.270 C 
HETATM    9  O   UNL     1      37.519 -13.621   1.003  1.00  0.00    -0.267 OA
HETATM   10  H   UNL     1      40.032 -14.844  -0.579  1.00  0.00     0.187 HD
BRANCH   8  11
HETATM   11  C   UNL     1      37.870 -13.554  -1.328  1.00  0.00     0.035 A 
HETATM   12  C   UNL     1      37.936 -14.557  -2.304  1.00  0.00     0.053 A 
HETATM   13  C   UNL     1      37.580 -14.289  -3.629  1.00  0.00     0.069 A 
HETATM   14  C   UNL     1      37.150 -13.007  -3.976  1.00  0.00     0.037 A 
HETATM   15  C   UNL     1      37.065 -12.007  -3.003  1.00  0.00     0.004 A 
HETATM   16  C   UNL     1      37.419 -12.277  -1.681  1.00  0.00     0.017 A 
BRANCH  13  17
HETATM   17  O   UNL     1      37.699 -15.353  -4.479  1.00  0.00    -0.356 OA
HETATM   18  C   UNL     1      38.855 -16.169  -4.336  1.00  0.00     0.210 C 
ENDBRANCH  13  17
ENDBRANCH   8  11
ENDBRANCH   1   7
BRANCH   3  19
HETATM   19  C   UNL     1      41.561 -17.022   3.794  1.00  0.00     0.087 C 
BRANCH  19  20
HETATM   20  C   UNL     1      43.064 -17.035   3.509  1.00  0.00     0.048 C 
BRANCH  20  21
HETATM   21  C   UNL     1      43.730 -18.279   4.011  1.00  0.00    -0.030 A 
HETATM   22  C   UNL     1      43.832 -19.532   3.326  1.00  0.00    -0.002 A 
HETATM   23  C   UNL     1      44.540 -20.405   4.153  1.00  0.00     0.042 A 
HETATM   24  C   UNL     1      43.387 -20.005   2.075  1.00  0.00     0.014 A 
HETATM   25  C   UNL     1      44.829 -21.726   3.791  1.00  0.00     0.030 A 
HETATM   26  N   UNL     1      44.853 -19.711   5.299  1.00  0.00    -0.365 N 
HETATM   27  C   UNL     1      44.377 -22.169   2.544  1.00  0.00     0.002 A 
HETATM   28  C   UNL     1      43.666 -21.324   1.696  1.00  0.00     0.001 A 
HETATM   29  H   UNL     1      45.367 -20.097   6.078  1.00  0.00     0.165 HD
HETATM   30  C   UNL     1      44.371 -18.432   5.226  1.00  0.00     0.096 A 
ENDBRANCH  20  21
ENDBRANCH  19  20
ENDBRANCH   3  19
TORSDOF 6
ENDMDL
MODEL 7
REMARK VINA RESULT:      -8.5      5.249      8.108
REMARK  6 active torsions:
REMARK  status: ('A' for Active; 'I' for Inactive)
REMARK    1  A    between atoms: O_2  and  C_3 
REMARK    2  A    between atoms: C_5  and  C_6 
REMARK       I    between atoms: C_6  and  N_7 
REMARK    3  A    between atoms: N_7  and  C_8 
REMARK    4  A    between atoms: C_10  and  C_11 
REMARK    5  A    between atoms: C_11  and  C_12 
REMARK    6  A    between atoms: C_12  and  C_13 
ROOT
HETATM    1  C   UNL     1      40.516 -15.975   2.504  1.00  0.00     0.725 A 
HETATM    2  N   UNL     1      41.256 -16.933   3.006  1.00  0.00    -0.046 NA
HETATM    3  C   UNL     1      41.272 -16.648   4.351  1.00  0.00     0.166 A 
HETATM    4  N   UNL     1      40.585 -15.552   4.701  1.00  0.00    -0.144 NA
HETATM    5  N   UNL     1      40.111 -15.142   3.510  1.00  0.00    -0.106 N 
HETATM    6  H   UNL     1      39.525 -14.317   3.429  1.00  0.00     0.208 HD
ENDROOT
BRANCH   1   7
HETATM    7  N   UNL     1      40.196 -15.836   1.179  1.00  0.00    -0.152 N 
HETATM    8  C   UNL     1      40.675 -14.787   0.425  1.00  0.00     0.270 C 
HETATM    9  O   UNL     1      41.398 -13.895   0.867  1.00  0.00    -0.267 OA
HETATM   10  H   UNL     1      39.541 -16.514   0.820  1.00  0.00     0.187 HD
BRANCH   8  11
HETATM   11  C   UNL     1      40.244 -14.756  -1.000  1.00  0.00     0.035 A 
HETATM   12  C   UNL     1      39.130 -13.977  -1.339  1.00  0.00     0.053 A 
HETATM   13  C   UNL     1      38.678 -13.913  -2.660  1.00  0.00     0.069 A 
HETATM   14  C   UNL     1      39.352 -14.631  -3.649  1.00  0.00     0.037 A 
HETATM   15  C   UNL     1      40.474 -15.397  -3.321  1.00  0.00     0.004 A 
HETATM   16  C   UNL     1      40.925 -15.458  -2.002  1.00  0.00     0.017 A 
BRANCH  13  17
HETATM   17  O   UNL     1      37.578 -13.124  -2.850  1.00  0.00    -0.356 OA
HETATM   18  C   UNL     1      37.558 -11.869  -2.182  1.00  0.00     0.210 C 
ENDBRANCH  13  17
ENDBRANCH   8  11
ENDBRANCH   1   7
BRANCH   3  19
HETATM   19  C   UNL     1      41.998 -17.479   5.348  1.00  0.00     0.087 C 
BRANCH  19  20
HETATM   20  C   UNL     1      43.490 -17.613   5.038  1.00  0.00     0.048 C 
BRANCH  20  21
HETATM   21  C   UNL     1      43.935 -19.042   4.974  1.00  0.00    -0.030 A 
HETATM   22  C   UNL     1      43.972 -19.875   3.810  1.00  0.00    -0.002 A 
HETATM   23  C   UNL     1      44.461 -21.121   4.204  1.00  0.00     0.042 A 
HETATM   24  C   UNL     1      43.635 -19.683   2.455  1.00  0.00     0.014 A 
HETATM   25  C   UNL     1      44.634 -22.185   3.309  1.00  0.00     0.030 A 
HETATM   26  N   UNL     1      44.708 -21.050   5.555  1.00  0.00    -0.365 N 
HETATM   27  C   UNL     1      44.293 -21.967   1.971  1.00  0.00     0.002 A 
HETATM   28  C   UNL     1      43.800 -20.736   1.547  1.00  0.00     0.001 A 
HETATM   29  H   UNL     1      45.070 -21.813   6.110  1.00  0.00     0.165 HD
HETATM   30  C   UNL     1      44.395 -19.806   6.029  1.00  0.00     0.096 A 
ENDBRANCH  20  21
ENDBRANCH  19  20
ENDBRANCH   3  19
TORSDOF 6
ENDMDL
MODEL 8
REMARK VINA RESULT:      -8.5      5.781      7.939
REMARK  6 active torsions:
REMARK  status: ('A' for Active; 'I' for Inactive)
REMARK    1  A    between atoms: O_2  and  C_3 
REMARK    2  A    between atoms: C_5  and  C_6 
REMARK       I    between atoms: C_6  and  N_7 
REMARK    3  A    between atoms: N_7  and  C_8 
REMARK    4  A    between atoms: C_10  and  C_11 
REMARK    5  A    between atoms: C_11  and  C_12 
REMARK    6  A    between atoms: C_12  and  C_13 
ROOT
HETATM    1  C   UNL     1      41.269 -14.917   0.969  1.00  0.00     0.725 A 
HETATM    2  N   UNL     1      42.037 -15.295   1.962  1.00  0.00    -0.046 NA
HETATM    3  C   UNL     1      41.341 -16.342   2.518  1.00  0.00     0.166 A 
HETATM    4  N   UNL     1      40.174 -16.621   1.921  1.00  0.00    -0.144 NA
HETATM    5  N   UNL     1      40.150 -15.702   0.938  1.00  0.00    -0.106 N 
HETATM    6  H   UNL     1      39.379 -15.651   0.279  1.00  0.00     0.208 HD
ENDROOT
BRANCH   1   7
HETATM    7  N   UNL     1      41.549 -13.896   0.098  1.00  0.00    -0.152 N 
HETATM    8  C   UNL     1      41.486 -14.072  -1.267  1.00  0.00     0.270 C 
HETATM    9  O   UNL     1      41.199 -15.137  -1.811  1.00  0.00    -0.267 OA
HETATM   10  H   UNL     1      41.862 -13.038   0.527  1.00  0.00     0.187 HD
BRANCH   8  11
HETATM   11  C   UNL     1      41.819 -12.879  -2.095  1.00  0.00     0.035 A 
HETATM   12  C   UNL     1      42.638 -11.891  -1.534  1.00  0.00     0.053 A 
HETATM   13  C   UNL     1      42.981 -10.749  -2.263  1.00  0.00     0.069 A 
HETATM   14  C   UNL     1      42.504 -10.600  -3.566  1.00  0.00     0.037 A 
HETATM   15  C   UNL     1      41.700 -11.591  -4.138  1.00  0.00     0.004 A 
HETATM   16  C   UNL     1      41.360 -12.731  -3.409  1.00  0.00     0.017 A 
BRANCH  13  17
HETATM   17  O   UNL     1      43.777  -9.862  -1.594  1.00  0.00    -0.356 OA
HETATM   18  C   UNL     1      43.388  -8.495  -1.621  1.00  0.00     0.210 C 
ENDBRANCH  13  17
ENDBRANCH   8  11
ENDBRANCH   1   7
BRANCH   3  19
HETATM   19  C   UNL     1      41.831 -17.108   3.695  1.00  0.00     0.087 C 
BRANCH  19  20
HETATM   20  C   UNL     1      43.357 -17.128   3.799  1.00  0.00     0.048 C 
BRANCH  20  21
HETATM   21  C   UNL     1      43.881 -18.447   4.275  1.00  0.00    -0.030 A 
HETATM   22  C   UNL     1      43.981 -19.654   3.511  1.00  0.00    -0.002 A 
HETATM   23  C   UNL     1      44.533 -20.630   4.342  1.00  0.00     0.042 A 
HETATM   24  C   UNL     1      43.654 -20.006   2.186  1.00  0.00     0.014 A 
HETATM   25  C   UNL     1      44.778 -21.941   3.913  1.00  0.00     0.030 A 
HETATM   26  N   UNL     1      44.756 -20.041   5.565  1.00  0.00    -0.365 N 
HETATM   27  C   UNL     1      44.444 -22.263   2.594  1.00  0.00     0.002 A 
HETATM   28  C   UNL     1      43.890 -21.313   1.740  1.00  0.00     0.001 A 
HETATM   29  H   UNL     1      45.152 -20.516   6.363  1.00  0.00     0.165 HD
HETATM   30  C   UNL     1      44.367 -18.730   5.537  1.00  0.00     0.096 A 
ENDBRANCH  20  21
ENDBRANCH  19  20
ENDBRANCH   3  19
TORSDOF 6
ENDMDL
MODEL 9
REMARK VINA RESULT:      -8.4      5.455      8.859
REMARK  6 active torsions:
REMARK  status: ('A' for Active; 'I' for Inactive)
REMARK    1  A    between atoms: O_2  and  C_3 
REMARK    2  A    between atoms: C_5  and  C_6 
REMARK       I    between atoms: C_6  and  N_7 
REMARK    3  A    between atoms: N_7  and  C_8 
REMARK    4  A    between atoms: C_10  and  C_11 
REMARK    5  A    between atoms: C_11  and  C_12 
REMARK    6  A    between atoms: C_12  and  C_13 
ROOT
HETATM    1  C   UNL     1      40.618 -16.224   2.528  1.00  0.00     0.725 A 
HETATM    2  N   UNL     1      40.967 -14.963   2.457  1.00  0.00    -0.046 NA
HETATM    3  C   UNL     1      39.820 -14.342   2.022  1.00  0.00     0.166 A 
HETATM    4  N   UNL     1      38.782 -15.164   1.811  1.00  0.00    -0.144 NA
HETATM    5  N   UNL     1      39.313 -16.355   2.141  1.00  0.00    -0.106 N 
HETATM    6  H   UNL     1      38.765 -17.209   2.097  1.00  0.00     0.208 HD
ENDROOT
BRANCH   1   7
HETATM    7  N   UNL     1      41.434 -17.248   2.931  1.00  0.00    -0.152 N 
HETATM    8  C   UNL     1      42.369 -17.805   2.086  1.00  0.00     0.270 C 
HETATM    9  O   UNL     1      42.537 -17.454   0.919  1.00  0.00    -0.267 OA
HETATM   10  H   UNL     1      41.257 -17.601   3.860  1.00  0.00     0.187 HD
BRANCH   8  11
HETATM   11  C   UNL     1      43.186 -18.914   2.654  1.00  0.00     0.035 A 
HETATM   12  C   UNL     1      43.608 -18.810   3.985  1.00  0.00     0.053 A 
HETATM   13  C   UNL     1      44.379 -19.818   4.571  1.00  0.00     0.069 A 
HETATM   14  C   UNL     1      44.724 -20.941   3.816  1.00  0.00     0.037 A 
HETATM   15  C   UNL     1      44.290 -21.059   2.493  1.00  0.00     0.004 A 
HETATM   16  C   UNL     1      43.520 -20.052   1.911  1.00  0.00     0.017 A 
BRANCH  13  17
HETATM   17  O   UNL     1      44.730 -19.587   5.871  1.00  0.00    -0.356 OA
HETATM   18  C   UNL     1      45.099 -18.258   6.215  1.00  0.00     0.210 C 
ENDBRANCH  13  17
ENDBRANCH   8  11
ENDBRANCH   1   7
BRANCH   3  19
HETATM   19  C   UNL     1      39.728 -12.875   1.794  1.00  0.00     0.087 C 
BRANCH  19  20
HETATM   20  C   UNL     1      39.311 -12.520   0.366  1.00  0.00     0.048 C 
BRANCH  20  21
HETATM   21  C   UNL     1      40.023 -13.345  -0.660  1.00  0.00    -0.030 A 
HETATM   22  C   UNL     1      39.425 -14.074  -1.737  1.00  0.00    -0.002 A 
HETATM   23  C   UNL     1      40.456 -14.688  -2.451  1.00  0.00     0.042 A 
HETATM   24  C   UNL     1      38.099 -14.268  -2.174  1.00  0.00     0.014 A 
HETATM   25  C   UNL     1      40.227 -15.483  -3.580  1.00  0.00     0.030 A 
HETATM   26  N   UNL     1      41.635 -14.349  -1.828  1.00  0.00    -0.365 N 
HETATM   27  C   UNL     1      38.902 -15.658  -3.992  1.00  0.00     0.002 A 
HETATM   28  C   UNL     1      37.851 -15.061  -3.301  1.00  0.00     0.001 A 
HETATM   29  H   UNL     1      42.548 -14.655  -2.132  1.00  0.00     0.165 HD
HETATM   30  C   UNL     1      41.388 -13.543  -0.751  1.00  0.00     0.096 A 
ENDBRANCH  20  21
ENDBRANCH  19  20
ENDBRANCH   3  19
TORSDOF 6
ENDMDL
MODEL 10
REMARK VINA RESULT:      -8.1      4.711      7.741
REMARK  6 active torsions:
REMARK  status: ('A' for Active; 'I' for Inactive)
REMARK    1  A    between atoms: O_2  and  C_3 
REMARK    2  A    between atoms: C_5  and  C_6 
REMARK       I    between atoms: C_6  and  N_7 
REMARK    3  A    between atoms: N_7  and  C_8 
REMARK    4  A    between atoms: C_10  and  C_11 
REMARK    5  A    between atoms: C_11  and  C_12 
REMARK    6  A    between atoms: C_12  and  C_13 
ROOT
HETATM    1  C   UNL     1      41.251 -15.546   2.724  1.00  0.00     0.725 A 
HETATM    2  N   UNL     1      42.076 -15.197   3.681  1.00  0.00    -0.046 NA
HETATM    3  C   UNL     1      41.720 -16.021   4.722  1.00  0.00     0.166 A 
HETATM    4  N   UNL     1      40.705 -16.856   4.456  1.00  0.00    -0.144 NA
HETATM    5  N   UNL     1      40.425 -16.537   3.179  1.00  0.00    -0.106 N 
HETATM    6  H   UNL     1      39.688 -17.010   2.665  1.00  0.00     0.208 HD
ENDROOT
BRANCH   1   7
HETATM    7  N   UNL     1      41.225 -15.005   1.466  1.00  0.00    -0.152 N 
HETATM    8  C   UNL     1      41.348 -15.788   0.339  1.00  0.00     0.270 C 
HETATM    9  O   UNL     1      41.506 -17.007   0.361  1.00  0.00    -0.267 OA
HETATM   10  H   UNL     1      41.175 -13.997   1.431  1.00  0.00     0.187 HD
BRANCH   8  11
HETATM   11  C   UNL     1      41.307 -15.067  -0.964  1.00  0.00     0.035 A 
HETATM   12  C   UNL     1      41.731 -13.732  -0.997  1.00  0.00     0.053 A 
HETATM   13  C   UNL     1      41.712 -13.005  -2.190  1.00  0.00     0.069 A 
HETATM   14  C   UNL     1      41.270 -13.624  -3.361  1.00  0.00     0.037 A 
HETATM   15  C   UNL     1      40.862 -14.960  -3.339  1.00  0.00     0.004 A 
HETATM   16  C   UNL     1      40.883 -15.685  -2.146  1.00  0.00     0.017 A 
BRANCH  13  17
HETATM   17  O   UNL     1      42.144 -11.713  -2.079  1.00  0.00    -0.356 OA
HETATM   18  C   UNL     1      42.612 -11.294  -0.804  1.00  0.00     0.210 C 
ENDBRANCH  13  17
ENDBRANCH   8  11
ENDBRANCH   1   7
BRANCH   3  19
HETATM   19  C   UNL     1      42.395 -15.993   6.047  1.00  0.00     0.087 C 
BRANCH  19  20
HETATM   20  C   UNL     1      43.878 -16.361   5.968  1.00  0.00     0.048 C 
BRANCH  20  21
HETATM   21  C   UNL     1      44.093 -17.829   5.769  1.00  0.00    -0.030 A 
HETATM   22  C   UNL     1      44.132 -18.527   4.519  1.00  0.00    -0.002 A 
HETATM   23  C   UNL     1      44.367 -19.874   4.799  1.00  0.00     0.042 A 
HETATM   24  C   UNL     1      43.990 -18.136   3.172  1.00  0.00     0.014 A 
HETATM   25  C   UNL     1      44.470 -20.849   3.800  1.00  0.00     0.030 A 
HETATM   26  N   UNL     1      44.462 -19.992   6.166  1.00  0.00    -0.365 N 
HETATM   27  C   UNL     1      44.327 -20.434   2.473  1.00  0.00     0.002 A 
HETATM   28  C   UNL     1      44.090 -19.098   2.160  1.00  0.00     0.001 A 
HETATM   29  H   UNL     1      44.630 -20.860   6.654  1.00  0.00     0.165 HD
HETATM   30  C   UNL     1      44.299 -18.770   6.760  1.00  0.00     0.096 A 
ENDBRANCH  20  21
ENDBRANCH  19  20
ENDBRANCH   3  19
TORSDOF 6
ENDMDL
