MODEL 1
REMARK VINA RESULT:      -8.6      0.000      0.000
REMARK  8 active torsions:
REMARK  status: ('A' for Active; 'I' for Inactive)
REMARK    1  A    between atoms: C_2  and  C_3 
REMARK    2  A    between atoms: C_6  and  C_7 
REMARK    3  A    between atoms: C_8  and  C_9 
REMARK       I    between atoms: C_9  and  N_10 
REMARK    4  A    between atoms: N_10  and  C_11 
REMARK    5  A    between atoms: C_11  and  N_12 
REMARK    6  A    between atoms: N_12  and  C_13 
REMARK    7  A    between atoms: C_16  and  N_17 
REMARK       I    between atoms: N_20  and  C_21 
REMARK    8  A    between atoms: C_21  and  C_22 
ROOT
HETATM    1  C   UNL     1      38.681 -13.243   1.276  1.00  0.00     0.034 A 
HETATM    2  C   UNL     1      38.888 -12.224   2.197  1.00  0.00     0.032 A 
HETATM    3  C   UNL     1      39.398 -12.518   3.471  1.00  0.00     0.031 A 
HETATM    4  C   UNL     1      39.722 -13.825   3.872  1.00  0.00     0.030 A 
HETATM    5  C   UNL     1      39.414 -14.838   2.952  1.00  0.00     0.031 A 
HETATM    6  C   UNL     1      38.900 -14.558   1.678  1.00  0.00     0.032 A 
ENDROOT
BRANCH   1   7
HETATM    7  N   UNL     1      38.210 -13.040  -0.037  1.00  0.00    -0.333 N 
HETATM    8  H   UNL     1      37.378 -12.460  -0.096  1.00  0.00     0.168 HD
BRANCH   7   9
HETATM    9  C   UNL     1      38.842 -13.189  -1.223  1.00  0.00     0.179 C 
HETATM   10  S   UNL     1      38.069 -14.042  -2.437  1.00  0.00    -0.040 SA
BRANCH   9  11
HETATM   11  N   UNL     1      40.106 -12.720  -1.463  1.00  0.00    -0.300 N 
HETATM   12  C   UNL     1      41.407 -13.123  -1.215  1.00  0.00     0.247 C 
HETATM   13  O   UNL     1      42.325 -12.314  -1.334  1.00  0.00    -0.268 OA
HETATM   14  H   UNL     1      40.105 -11.846  -1.973  1.00  0.00     0.171 HD
BRANCH  12  15
HETATM   15  C   UNL     1      41.654 -14.539  -0.851  1.00  0.00     0.075 C 
HETATM   16  C   UNL     1      42.131 -14.816   0.374  1.00  0.00     0.017 C 
BRANCH  16  17
HETATM   17  C   UNL     1      42.407 -16.156   0.913  1.00  0.00    -0.036 A 
HETATM   18  C   UNL     1      43.692 -16.425   1.399  1.00  0.00     0.012 A 
HETATM   19  C   UNL     1      44.001 -17.660   1.979  1.00  0.00     0.008 A 
HETATM   20  C   UNL     1      43.034 -18.665   2.083  1.00  0.00    -0.055 A 
HETATM   21  C   UNL     1      41.741 -18.390   1.612  1.00  0.00     0.008 A 
HETATM   22  C   UNL     1      41.431 -17.150   1.037  1.00  0.00     0.012 A 
BRANCH  20  23
HETATM   23  C   UNL     1      43.328 -20.008   2.729  1.00  0.00     0.010 C 
HETATM   24  C   UNL     1      44.416 -19.861   3.794  1.00  0.00     0.015 C 
HETATM   25  C   UNL     1      43.706 -21.100   1.723  1.00  0.00     0.015 C 
ENDBRANCH  20  23
ENDBRANCH  16  17
ENDBRANCH  12  15
ENDBRANCH   9  11
ENDBRANCH   7   9
ENDBRANCH   1   7
BRANCH   4  26
HETATM   26  N   UNL     1      40.259 -14.074   5.139  1.00  0.00    -0.378 N 
HETATM   27  C   UNL     1      40.564 -15.467   5.563  1.00  0.00     0.143 C 
HETATM   28  C   UNL     1      41.972 -15.879   5.092  1.00  0.00     0.146 C 
HETATM   29  N   UNL     1      42.971 -14.933   5.611  1.00  0.00    -0.343 N 
HETATM   30  C   UNL     1      44.025 -15.211   6.480  1.00  0.00     0.277 C 
HETATM   31  C   UNL     1      42.710 -13.544   5.212  1.00  0.00     0.146 C 
HETATM   32  O   UNL     1      44.867 -14.345   6.727  1.00  0.00    -0.265 OA
HETATM   33  C   UNL     1      41.288 -13.114   5.642  1.00  0.00     0.143 C 
BRANCH  30  34
HETATM   34  C   UNL     1      44.140 -16.531   7.079  1.00  0.00     0.142 A 
HETATM   35  O   UNL     1      43.522 -16.830   8.267  1.00  0.00    -0.317 OA
HETATM   36  C   UNL     1      43.853 -18.107   8.587  1.00  0.00     0.143 A 
HETATM   37  C   UNL     1      44.702 -18.636   7.646  1.00  0.00     0.027 A 
HETATM   38  C   UNL     1      44.905 -17.616   6.687  1.00  0.00     0.045 A 
ENDBRANCH  30  34
ENDBRANCH   4  26
TORSDOF 8
ENDMDL
MODEL 2
REMARK VINA RESULT:      -8.2      2.708      7.896
REMARK  8 active torsions:
REMARK  status: ('A' for Active; 'I' for Inactive)
REMARK    1  A    between atoms: C_2  and  C_3 
REMARK    2  A    between atoms: C_6  and  C_7 
REMARK    3  A    between atoms: C_8  and  C_9 
REMARK       I    between atoms: C_9  and  N_10 
REMARK    4  A    between atoms: N_10  and  C_11 
REMARK    5  A    between atoms: C_11  and  N_12 
REMARK    6  A    between atoms: N_12  and  C_13 
REMARK    7  A    between atoms: C_16  and  N_17 
REMARK       I    between atoms: N_20  and  C_21 
REMARK    8  A    between atoms: C_21  and  C_22 
ROOT
HETATM    1  C   UNL     1      41.770 -13.565   4.832  1.00  0.00     0.034 A 
HETATM    2  C   UNL     1      42.845 -13.204   4.029  1.00  0.00     0.032 A 
HETATM    3  C   UNL     1      42.801 -13.437   2.646  1.00  0.00     0.031 A 
HETATM    4  C   UNL     1      41.695 -14.032   2.014  1.00  0.00     0.030 A 
HETATM    5  C   UNL     1      40.670 -14.468   2.866  1.00  0.00     0.031 A 
HETATM    6  C   UNL     1      40.703 -14.244   4.250  1.00  0.00     0.032 A 
ENDROOT
BRANCH   1   7
HETATM    7  N   UNL     1      41.707 -13.335   6.221  1.00  0.00    -0.333 N 
HETATM    8  H   UNL     1      41.470 -14.157   6.769  1.00  0.00     0.168 HD
BRANCH   7   9
HETATM    9  C   UNL     1      42.223 -12.329   6.962  1.00  0.00     0.179 C 
HETATM   10  S   UNL     1      41.474 -10.833   6.909  1.00  0.00    -0.040 SA
BRANCH   9  11
HETATM   11  N   UNL     1      43.359 -12.459   7.715  1.00  0.00    -0.300 N 
HETATM   12  C   UNL     1      44.377 -13.385   7.873  1.00  0.00     0.247 C 
HETATM   13  O   UNL     1      45.117 -13.310   8.852  1.00  0.00    -0.268 OA
HETATM   14  H   UNL     1      43.520 -11.661   8.317  1.00  0.00     0.171 HD
BRANCH  12  15
HETATM   15  C   UNL     1      44.565 -14.418   6.826  1.00  0.00     0.075 C 
HETATM   16  C   UNL     1      44.080 -15.651   7.043  1.00  0.00     0.017 C 
BRANCH  16  17
HETATM   17  C   UNL     1      44.150 -16.785   6.109  1.00  0.00    -0.036 A 
HETATM   18  C   UNL     1      43.484 -16.676   4.882  1.00  0.00     0.012 A 
HETATM   19  C   UNL     1      43.561 -17.695   3.925  1.00  0.00     0.008 A 
HETATM   20  C   UNL     1      44.302 -18.855   4.173  1.00  0.00    -0.055 A 
HETATM   21  C   UNL     1      44.983 -18.956   5.395  1.00  0.00     0.008 A 
HETATM   22  C   UNL     1      44.910 -17.933   6.349  1.00  0.00     0.012 A 
BRANCH  20  23
HETATM   23  C   UNL     1      44.428 -19.969   3.147  1.00  0.00     0.010 C 
HETATM   24  C   UNL     1      43.237 -19.947   2.187  1.00  0.00     0.015 C 
HETATM   25  C   UNL     1      44.588 -21.359   3.773  1.00  0.00     0.015 C 
ENDBRANCH  20  23
ENDBRANCH  16  17
ENDBRANCH  12  15
ENDBRANCH   9  11
ENDBRANCH   7   9
ENDBRANCH   1   7
BRANCH   4  26
HETATM   26  N   UNL     1      41.677 -14.219   0.628  1.00  0.00    -0.378 N 
HETATM   27  C   UNL     1      40.565 -14.974  -0.010  1.00  0.00     0.143 C 
HETATM   28  C   UNL     1      39.378 -14.039  -0.309  1.00  0.00     0.146 C 
HETATM   29  N   UNL     1      39.820 -12.923  -1.157  1.00  0.00    -0.343 N 
HETATM   30  C   UNL     1      39.383 -12.617  -2.445  1.00  0.00     0.277 C 
HETATM   31  C   UNL     1      40.915 -12.146  -0.562  1.00  0.00     0.146 C 
HETATM   32  O   UNL     1      39.745 -11.571  -2.989  1.00  0.00    -0.265 OA
HETATM   33  C   UNL     1      42.110 -13.067  -0.219  1.00  0.00     0.143 C 
BRANCH  30  34
HETATM   34  C   UNL     1      38.486 -13.526  -3.140  1.00  0.00     0.142 A 
HETATM   35  O   UNL     1      38.917 -14.749  -3.587  1.00  0.00    -0.317 OA
HETATM   36  C   UNL     1      37.876 -15.337  -4.230  1.00  0.00     0.143 A 
HETATM   37  C   UNL     1      36.782 -14.506  -4.238  1.00  0.00     0.027 A 
HETATM   38  C   UNL     1      37.180 -13.331  -3.557  1.00  0.00     0.045 A 
ENDBRANCH  30  34
ENDBRANCH   4  26
TORSDOF 8
ENDMDL
MODEL 3
REMARK VINA RESULT:      -8.1      1.674      2.156
REMARK  8 active torsions:
REMARK  status: ('A' for Active; 'I' for Inactive)
REMARK    1  A    between atoms: C_2  and  C_3 
REMARK    2  A    between atoms: C_6  and  C_7 
REMARK    3  A    between atoms: C_8  and  C_9 
REMARK       I    between atoms: C_9  and  N_10 
REMARK    4  A    between atoms: N_10  and  C_11 
REMARK    5  A    between atoms: C_11  and  N_12 
REMARK    6  A    between atoms: N_12  and  C_13 
REMARK    7  A    between atoms: C_16  and  N_17 
REMARK       I    between atoms: N_20  and  C_21 
REMARK    8  A    between atoms: C_21  and  C_22 
ROOT
HETATM    1  C   UNL     1      40.921 -12.275   0.592  1.00  0.00     0.034 A 
HETATM    2  C   UNL     1      42.112 -12.489   1.275  1.00  0.00     0.032 A 
HETATM    3  C   UNL     1      42.094 -13.038   2.567  1.00  0.00     0.031 A 
HETATM    4  C   UNL     1      40.902 -13.393   3.221  1.00  0.00     0.030 A 
HETATM    5  C   UNL     1      39.717 -13.078   2.540  1.00  0.00     0.031 A 
HETATM    6  C   UNL     1      39.721 -12.526   1.251  1.00  0.00     0.032 A 
ENDROOT
BRANCH   1   7
HETATM    7  N   UNL     1      40.843 -11.767  -0.721  1.00  0.00    -0.333 N 
HETATM    8  H   UNL     1      40.933 -10.757  -0.782  1.00  0.00     0.168 HD
BRANCH   7   9
HETATM    9  C   UNL     1      41.006 -12.391  -1.909  1.00  0.00     0.179 C 
HETATM   10  S   UNL     1      42.325 -11.979  -2.852  1.00  0.00    -0.040 SA
BRANCH   9  11
HETATM   11  N   UNL     1      40.117 -13.308  -2.401  1.00  0.00    -0.300 N 
HETATM   12  C   UNL     1      40.049 -14.683  -2.552  1.00  0.00     0.247 C 
HETATM   13  O   UNL     1      39.198 -15.170  -3.294  1.00  0.00    -0.268 OA
HETATM   14  H   UNL     1      39.263 -12.880  -2.737  1.00  0.00     0.171 HD
BRANCH  12  15
HETATM   15  C   UNL     1      40.987 -15.529  -1.774  1.00  0.00     0.075 C 
HETATM   16  C   UNL     1      40.813 -15.631  -0.447  1.00  0.00     0.017 C 
BRANCH  16  17
HETATM   17  C   UNL     1      41.625 -16.442   0.473  1.00  0.00    -0.036 A 
HETATM   18  C   UNL     1      41.047 -17.588   1.033  1.00  0.00     0.012 A 
HETATM   19  C   UNL     1      41.786 -18.435   1.868  1.00  0.00     0.008 A 
HETATM   20  C   UNL     1      43.122 -18.154   2.171  1.00  0.00    -0.055 A 
HETATM   21  C   UNL     1      43.706 -17.016   1.595  1.00  0.00     0.008 A 
HETATM   22  C   UNL     1      42.967 -16.172   0.755  1.00  0.00     0.012 A 
BRANCH  20  23
HETATM   23  C   UNL     1      43.961 -19.064   3.053  1.00  0.00     0.010 C 
HETATM   24  C   UNL     1      44.189 -20.411   2.364  1.00  0.00     0.015 C 
HETATM   25  C   UNL     1      43.372 -19.270   4.453  1.00  0.00     0.015 C 
ENDBRANCH  20  23
ENDBRANCH  16  17
ENDBRANCH  12  15
ENDBRANCH   9  11
ENDBRANCH   7   9
ENDBRANCH   1   7
BRANCH   4  26
HETATM   26  N   UNL     1      40.927 -13.967   4.496  1.00  0.00    -0.378 N 
HETATM   27  C   UNL     1      41.353 -15.381   4.672  1.00  0.00     0.143 C 
HETATM   28  C   UNL     1      42.885 -15.472   4.805  1.00  0.00     0.146 C 
HETATM   29  N   UNL     1      43.341 -14.635   5.924  1.00  0.00    -0.343 N 
HETATM   30  C   UNL     1      43.992 -15.057   7.083  1.00  0.00     0.277 C 
HETATM   31  C   UNL     1      42.946 -13.228   5.788  1.00  0.00     0.146 C 
HETATM   32  O   UNL     1      44.437 -14.226   7.879  1.00  0.00    -0.265 OA
HETATM   33  C   UNL     1      41.414 -13.108   5.618  1.00  0.00     0.143 C 
BRANCH  30  34
HETATM   34  C   UNL     1      44.161 -16.477   7.342  1.00  0.00     0.142 A 
HETATM   35  O   UNL     1      45.142 -17.203   6.716  1.00  0.00    -0.317 OA
HETATM   36  C   UNL     1      45.016 -18.493   7.122  1.00  0.00     0.143 A 
HETATM   37  C   UNL     1      43.950 -18.627   7.978  1.00  0.00     0.027 A 
HETATM   38  C   UNL     1      43.385 -17.335   8.103  1.00  0.00     0.045 A 
ENDBRANCH  30  34
ENDBRANCH   4  26
TORSDOF 8
ENDMDL
MODEL 4
REMARK VINA RESULT:      -7.7      2.696      7.535
REMARK  8 active torsions:
REMARK  status: ('A' for Active; 'I' for Inactive)
REMARK    1  A    between atoms: C_2  and  C_3 
REMARK    2  A    between atoms: C_6  and  C_7 
REMARK    3  A    between atoms: C_8  and  C_9 
REMARK       I    between atoms: C_9  and  N_10 
REMARK    4  A    between atoms: N_10  and  C_11 
REMARK    5  A    between atoms: C_11  and  N_12 
REMARK    6  A    between atoms: N_12  and  C_13 
REMARK    7  A    between atoms: C_16  and  N_17 
REMARK       I    between atoms: N_20  and  C_21 
REMARK    8  A    between atoms: C_21  and  C_22 
ROOT
HETATM    1  C   UNL     1      40.513 -13.098   5.852  1.00  0.00     0.034 A 
HETATM    2  C   UNL     1      40.378 -14.480   5.825  1.00  0.00     0.032 A 
HETATM    3  C   UNL     1      40.089 -15.137   4.620  1.00  0.00     0.031 A 
HETATM    4  C   UNL     1      39.928 -14.450   3.404  1.00  0.00     0.030 A 
HETATM    5  C   UNL     1      39.980 -13.050   3.485  1.00  0.00     0.031 A 
HETATM    6  C   UNL     1      40.263 -12.382   4.685  1.00  0.00     0.032 A 
ENDROOT
BRANCH   1   7
HETATM    7  N   UNL     1      40.841 -12.357   7.006  1.00  0.00    -0.333 N 
HETATM    8  H   UNL     1      40.443 -12.727   7.864  1.00  0.00     0.168 HD
BRANCH   7   9
HETATM    9  C   UNL     1      41.835 -11.466   7.217  1.00  0.00     0.179 C 
HETATM   10  S   UNL     1      41.639  -9.902   6.656  1.00  0.00    -0.040 SA
BRANCH   9  11
HETATM   11  N   UNL     1      43.018 -11.795   7.824  1.00  0.00    -0.300 N 
HETATM   12  C   UNL     1      43.928 -12.837   7.786  1.00  0.00     0.247 C 
HETATM   13  O   UNL     1      44.768 -12.941   8.679  1.00  0.00    -0.268 OA
HETATM   14  H   UNL     1      43.333 -11.082   8.470  1.00  0.00     0.171 HD
BRANCH  12  15
HETATM   15  C   UNL     1      43.885 -13.776   6.639  1.00  0.00     0.075 C 
HETATM   16  C   UNL     1      43.888 -15.096   6.886  1.00  0.00     0.017 C 
BRANCH  16  17
HETATM   17  C   UNL     1      43.821 -16.165   5.879  1.00  0.00    -0.036 A 
HETATM   18  C   UNL     1      43.990 -17.489   6.303  1.00  0.00     0.012 A 
HETATM   19  C   UNL     1      43.877 -18.555   5.404  1.00  0.00     0.008 A 
HETATM   20  C   UNL     1      43.599 -18.326   4.052  1.00  0.00    -0.055 A 
HETATM   21  C   UNL     1      43.412 -17.002   3.631  1.00  0.00     0.008 A 
HETATM   22  C   UNL     1      43.519 -15.935   4.533  1.00  0.00     0.012 A 
BRANCH  20  23
HETATM   23  C   UNL     1      43.445 -19.462   3.054  1.00  0.00     0.010 C 
HETATM   24  C   UNL     1      44.756 -20.240   2.926  1.00  0.00     0.015 C 
HETATM   25  C   UNL     1      42.957 -19.002   1.676  1.00  0.00     0.015 C 
ENDBRANCH  20  23
ENDBRANCH  16  17
ENDBRANCH  12  15
ENDBRANCH   9  11
ENDBRANCH   7   9
ENDBRANCH   1   7
BRANCH   4  26
HETATM   26  N   UNL     1      39.672 -15.143   2.217  1.00  0.00    -0.378 N 
HETATM   27  C   UNL     1      38.522 -14.756   1.357  1.00  0.00     0.143 C 
HETATM   28  C   UNL     1      38.925 -13.626   0.390  1.00  0.00     0.146 C 
HETATM   29  N   UNL     1      40.078 -14.047  -0.419  1.00  0.00    -0.343 N 
HETATM   30  C   UNL     1      40.126 -14.197  -1.804  1.00  0.00     0.277 C 
HETATM   31  C   UNL     1      41.240 -14.434   0.391  1.00  0.00     0.146 C 
HETATM   32  O   UNL     1      41.201 -14.429  -2.364  1.00  0.00    -0.265 OA
HETATM   33  C   UNL     1      40.854 -15.545   1.396  1.00  0.00     0.143 C 
BRANCH  30  34
HETATM   34  C   UNL     1      38.910 -14.061  -2.590  1.00  0.00     0.142 A 
HETATM   35  O   UNL     1      38.252 -15.160  -3.079  1.00  0.00    -0.317 OA
HETATM   36  C   UNL     1      37.194 -14.711  -3.804  1.00  0.00     0.143 A 
HETATM   37  C   UNL     1      37.170 -13.338  -3.823  1.00  0.00     0.027 A 
HETATM   38  C   UNL     1      38.287 -12.918  -3.062  1.00  0.00     0.045 A 
ENDBRANCH  30  34
ENDBRANCH   4  26
TORSDOF 8
ENDMDL
MODEL 5
REMARK VINA RESULT:      -7.7      3.864      7.058
REMARK  8 active torsions:
REMARK  status: ('A' for Active; 'I' for Inactive)
REMARK    1  A    between atoms: C_2  and  C_3 
REMARK    2  A    between atoms: C_6  and  C_7 
REMARK    3  A    between atoms: C_8  and  C_9 
REMARK       I    between atoms: C_9  and  N_10 
REMARK    4  A    between atoms: N_10  and  C_11 
REMARK    5  A    between atoms: C_11  and  N_12 
REMARK    6  A    between atoms: N_12  and  C_13 
REMARK    7  A    between atoms: C_16  and  N_17 
REMARK       I    between atoms: N_20  and  C_21 
REMARK    8  A    between atoms: C_21  and  C_22 
ROOT
HETATM    1  C   UNL     1      42.164 -17.199   5.713  1.00  0.00     0.034 A 
HETATM    2  C   UNL     1      40.898 -16.987   6.245  1.00  0.00     0.032 A 
HETATM    3  C   UNL     1      40.251 -15.756   6.055  1.00  0.00     0.031 A 
HETATM    4  C   UNL     1      40.833 -14.700   5.332  1.00  0.00     0.030 A 
HETATM    5  C   UNL     1      42.147 -14.917   4.890  1.00  0.00     0.031 A 
HETATM    6  C   UNL     1      42.805 -16.140   5.077  1.00  0.00     0.032 A 
ENDROOT
BRANCH   1   7
HETATM    7  N   UNL     1      42.873 -18.414   5.819  1.00  0.00    -0.333 N 
HETATM    8  H   UNL     1      42.281 -19.236   5.884  1.00  0.00     0.168 HD
BRANCH   7   9
HETATM    9  C   UNL     1      44.158 -18.701   5.517  1.00  0.00     0.179 C 
HETATM   10  S   UNL     1      45.366 -18.076   6.492  1.00  0.00    -0.040 SA
BRANCH   9  11
HETATM   11  N   UNL     1      44.524 -19.439   4.423  1.00  0.00    -0.300 N 
HETATM   12  C   UNL     1      44.237 -19.463   3.068  1.00  0.00     0.247 C 
HETATM   13  O   UNL     1      44.543 -20.450   2.402  1.00  0.00    -0.268 OA
HETATM   14  H   UNL     1      45.199 -20.158   4.648  1.00  0.00     0.171 HD
BRANCH  12  15
HETATM   15  C   UNL     1      43.604 -18.270   2.456  1.00  0.00     0.075 C 
HETATM   16  C   UNL     1      42.284 -18.296   2.211  1.00  0.00     0.017 C 
BRANCH  16  17
HETATM   17  C   UNL     1      41.488 -17.200   1.638  1.00  0.00    -0.036 A 
HETATM   18  C   UNL     1      40.356 -16.765   2.337  1.00  0.00     0.012 A 
HETATM   19  C   UNL     1      39.591 -15.688   1.876  1.00  0.00     0.008 A 
HETATM   20  C   UNL     1      39.935 -15.019   0.696  1.00  0.00    -0.055 A 
HETATM   21  C   UNL     1      41.079 -15.443   0.005  1.00  0.00     0.008 A 
HETATM   22  C   UNL     1      41.847 -16.519   0.471  1.00  0.00     0.012 A 
BRANCH  20  23
HETATM   23  C   UNL     1      39.142 -13.830   0.180  1.00  0.00     0.010 C 
HETATM   24  C   UNL     1      37.668 -13.964   0.565  1.00  0.00     0.015 C 
HETATM   25  C   UNL     1      39.285 -13.611  -1.330  1.00  0.00     0.015 C 
ENDBRANCH  20  23
ENDBRANCH  16  17
ENDBRANCH  12  15
ENDBRANCH   9  11
ENDBRANCH   7   9
ENDBRANCH   1   7
BRANCH   4  26
HETATM   26  N   UNL     1      40.143 -13.499   5.137  1.00  0.00    -0.378 N 
HETATM   27  C   UNL     1      39.673 -12.708   6.305  1.00  0.00     0.143 C 
HETATM   28  C   UNL     1      40.788 -11.769   6.806  1.00  0.00     0.146 C 
HETATM   29  N   UNL     1      41.233 -10.893   5.714  1.00  0.00    -0.343 N 
HETATM   30  C   UNL     1      41.153  -9.502   5.661  1.00  0.00     0.277 C 
HETATM   31  C   UNL     1      41.711 -11.634   4.540  1.00  0.00     0.146 C 
HETATM   32  O   UNL     1      41.689  -8.886   4.737  1.00  0.00    -0.265 OA
HETATM   33  C   UNL     1      40.623 -12.611   4.035  1.00  0.00     0.143 C 
BRANCH  30  34
HETATM   34  C   UNL     1      40.451  -8.777   6.709  1.00  0.00     0.142 A 
HETATM   35  O   UNL     1      39.083  -8.800   6.796  1.00  0.00    -0.317 OA
HETATM   36  C   UNL     1      38.728  -7.999   7.833  1.00  0.00     0.143 A 
HETATM   37  C   UNL     1      39.839  -7.429   8.405  1.00  0.00     0.027 A 
HETATM   38  C   UNL     1      40.947  -7.911   7.668  1.00  0.00     0.045 A 
ENDBRANCH  30  34
ENDBRANCH   4  26
TORSDOF 8
ENDMDL
MODEL 6
REMARK VINA RESULT:      -7.7      3.166      7.484
REMARK  8 active torsions:
REMARK  status: ('A' for Active; 'I' for Inactive)
REMARK    1  A    between atoms: C_2  and  C_3 
REMARK    2  A    between atoms: C_6  and  C_7 
REMARK    3  A    between atoms: C_8  and  C_9 
REMARK       I    between atoms: C_9  and  N_10 
REMARK    4  A    between atoms: N_10  and  C_11 
REMARK    5  A    between atoms: C_11  and  N_12 
REMARK    6  A    between atoms: N_12  and  C_13 
REMARK    7  A    between atoms: C_16  and  N_17 
REMARK       I    between atoms: N_20  and  C_21 
REMARK    8  A    between atoms: C_21  and  C_22 
ROOT
HETATM    1  C   UNL     1      41.382 -11.267   6.318  1.00  0.00     0.034 A 
HETATM    2  C   UNL     1      40.666 -12.440   6.519  1.00  0.00     0.032 A 
HETATM    3  C   UNL     1      40.051 -13.086   5.436  1.00  0.00     0.031 A 
HETATM    4  C   UNL     1      40.128 -12.594   4.121  1.00  0.00     0.030 A 
HETATM    5  C   UNL     1      40.779 -11.361   3.969  1.00  0.00     0.031 A 
HETATM    6  C   UNL     1      41.393 -10.704   5.044  1.00  0.00     0.032 A 
ENDROOT
BRANCH   1   7
HETATM    7  N   UNL     1      42.065 -10.571   7.337  1.00  0.00    -0.333 N 
HETATM    8  H   UNL     1      42.094  -9.564   7.205  1.00  0.00     0.168 HD
BRANCH   7   9
HETATM    9  C   UNL     1      42.382 -10.956   8.593  1.00  0.00     0.179 C 
HETATM   10  S   UNL     1      41.215 -10.830   9.785  1.00  0.00    -0.040 SA
BRANCH   9  11
HETATM   11  N   UNL     1      43.629 -11.397   8.948  1.00  0.00    -0.300 N 
HETATM   12  C   UNL     1      44.447 -12.478   8.664  1.00  0.00     0.247 C 
HETATM   13  O   UNL     1      45.421 -12.705   9.379  1.00  0.00    -0.268 OA
HETATM   14  H   UNL     1      44.100 -10.763   9.580  1.00  0.00     0.171 HD
BRANCH  12  15
HETATM   15  C   UNL     1      44.139 -13.307   7.474  1.00  0.00     0.075 C 
HETATM   16  C   UNL     1      44.347 -14.632   7.541  1.00  0.00     0.017 C 
BRANCH  16  17
HETATM   17  C   UNL     1      44.073 -15.606   6.473  1.00  0.00    -0.036 A 
HETATM   18  C   UNL     1      43.442 -15.154   5.308  1.00  0.00     0.012 A 
HETATM   19  C   UNL     1      43.207 -16.017   4.232  1.00  0.00     0.008 A 
HETATM   20  C   UNL     1      43.593 -17.360   4.294  1.00  0.00    -0.055 A 
HETATM   21  C   UNL     1      44.240 -17.809   5.454  1.00  0.00     0.008 A 
HETATM   22  C   UNL     1      44.480 -16.943   6.529  1.00  0.00     0.012 A 
BRANCH  20  23
HETATM   23  C   UNL     1      43.376 -18.319   3.135  1.00  0.00     0.010 C 
HETATM   24  C   UNL     1      44.066 -19.656   3.413  1.00  0.00     0.015 C 
HETATM   25  C   UNL     1      43.825 -17.754   1.783  1.00  0.00     0.015 C 
ENDBRANCH  20  23
ENDBRANCH  16  17
ENDBRANCH  12  15
ENDBRANCH   9  11
ENDBRANCH   7   9
ENDBRANCH   1   7
BRANCH   4  26
HETATM   26  N   UNL     1      39.528 -13.284   3.062  1.00  0.00    -0.378 N 
HETATM   27  C   UNL     1      39.430 -12.653   1.718  1.00  0.00     0.143 C 
HETATM   28  C   UNL     1      40.717 -12.906   0.908  1.00  0.00     0.146 C 
HETATM   29  N   UNL     1      40.966 -14.351   0.802  1.00  0.00    -0.343 N 
HETATM   30  C   UNL     1      41.007 -15.117  -0.362  1.00  0.00     0.277 C 
HETATM   31  C   UNL     1      41.074 -15.014   2.108  1.00  0.00     0.146 C 
HETATM   32  O   UNL     1      41.360 -16.298  -0.312  1.00  0.00    -0.265 OA
HETATM   33  C   UNL     1      39.810 -14.747   2.958  1.00  0.00     0.143 C 
BRANCH  30  34
HETATM   34  C   UNL     1      40.651 -14.516  -1.637  1.00  0.00     0.142 A 
HETATM   35  O   UNL     1      39.341 -14.386  -2.021  1.00  0.00    -0.317 OA
HETATM   36  C   UNL     1      39.334 -13.841  -3.265  1.00  0.00     0.143 A 
HETATM   37  C   UNL     1      40.617 -13.643  -3.712  1.00  0.00     0.027 A 
HETATM   38  C   UNL     1      41.466 -14.098  -2.675  1.00  0.00     0.045 A 
ENDBRANCH  30  34
ENDBRANCH   4  26
TORSDOF 8
ENDMDL
MODEL 7
REMARK VINA RESULT:      -7.6      2.981      8.330
REMARK  8 active torsions:
REMARK  status: ('A' for Active; 'I' for Inactive)
REMARK    1  A    between atoms: C_2  and  C_3 
REMARK    2  A    between atoms: C_6  and  C_7 
REMARK    3  A    between atoms: C_8  and  C_9 
REMARK       I    between atoms: C_9  and  N_10 
REMARK    4  A    between atoms: N_10  and  C_11 
REMARK    5  A    between atoms: C_11  and  N_12 
REMARK    6  A    between atoms: N_12  and  C_13 
REMARK    7  A    between atoms: C_16  and  N_17 
REMARK       I    between atoms: N_20  and  C_21 
REMARK    8  A    between atoms: C_21  and  C_22 
ROOT
HETATM    1  C   UNL     1      43.454 -17.982   1.953  1.00  0.00     0.034 A 
HETATM    2  C   UNL     1      42.079 -18.075   1.778  1.00  0.00     0.032 A 
HETATM    3  C   UNL     1      41.300 -16.912   1.681  1.00  0.00     0.031 A 
HETATM    4  C   UNL     1      41.855 -15.622   1.752  1.00  0.00     0.030 A 
HETATM    5  C   UNL     1      43.231 -15.566   2.022  1.00  0.00     0.031 A 
HETATM    6  C   UNL     1      44.019 -16.721   2.125  1.00  0.00     0.032 A 
ENDROOT
BRANCH   1   7
HETATM    7  N   UNL     1      44.321 -19.092   2.021  1.00  0.00    -0.333 N 
HETATM    8  H   UNL     1      45.290 -18.876   1.808  1.00  0.00     0.168 HD
BRANCH   7   9
HETATM    9  C   UNL     1      44.160 -20.287   2.631  1.00  0.00     0.179 C 
HETATM   10  S   UNL     1      43.618 -21.582   1.719  1.00  0.00    -0.040 SA
BRANCH   9  11
HETATM   11  N   UNL     1      44.371 -20.479   3.970  1.00  0.00    -0.300 N 
HETATM   12  C   UNL     1      44.107 -19.805   5.150  1.00  0.00     0.247 C 
HETATM   13  O   UNL     1      44.685 -20.142   6.183  1.00  0.00    -0.268 OA
HETATM   14  H   UNL     1      44.833 -21.358   4.168  1.00  0.00     0.171 HD
BRANCH  12  15
HETATM   15  C   UNL     1      43.099 -18.718   5.136  1.00  0.00     0.075 C 
HETATM   16  C   UNL     1      43.468 -17.492   5.541  1.00  0.00     0.017 C 
BRANCH  16  17
HETATM   17  C   UNL     1      42.613 -16.295   5.567  1.00  0.00    -0.036 A 
HETATM   18  C   UNL     1      43.226 -15.045   5.713  1.00  0.00     0.012 A 
HETATM   19  C   UNL     1      42.475 -13.865   5.685  1.00  0.00     0.008 A 
HETATM   20  C   UNL     1      41.086 -13.903   5.517  1.00  0.00    -0.055 A 
HETATM   21  C   UNL     1      40.474 -15.154   5.354  1.00  0.00     0.008 A 
HETATM   22  C   UNL     1      41.229 -16.335   5.376  1.00  0.00     0.012 A 
BRANCH  20  23
HETATM   23  C   UNL     1      40.243 -12.641   5.457  1.00  0.00     0.010 C 
HETATM   24  C   UNL     1      39.354 -12.533   6.697  1.00  0.00     0.015 C 
HETATM   25  C   UNL     1      39.400 -12.529   4.182  1.00  0.00     0.015 C 
ENDBRANCH  20  23
ENDBRANCH  16  17
ENDBRANCH  12  15
ENDBRANCH   9  11
ENDBRANCH   7   9
ENDBRANCH   1   7
BRANCH   4  26
HETATM   26  N   UNL     1      41.050 -14.487   1.620  1.00  0.00    -0.378 N 
HETATM   27  C   UNL     1      41.669 -13.148   1.425  1.00  0.00     0.143 C 
HETATM   28  C   UNL     1      41.948 -12.894  -0.069  1.00  0.00     0.146 C 
HETATM   29  N   UNL     1      40.703 -13.023  -0.840  1.00  0.00    -0.343 N 
HETATM   30  C   UNL     1      40.067 -12.033  -1.587  1.00  0.00     0.277 C 
HETATM   31  C   UNL     1      40.060 -14.333  -0.680  1.00  0.00     0.146 C 
HETATM   32  O   UNL     1      39.097 -12.319  -2.293  1.00  0.00    -0.265 OA
HETATM   33  C   UNL     1      39.799 -14.631   0.816  1.00  0.00     0.143 C 
BRANCH  30  34
HETATM   34  C   UNL     1      40.560 -10.666  -1.545  1.00  0.00     0.142 A 
HETATM   35  O   UNL     1      41.530 -10.232  -2.412  1.00  0.00    -0.317 OA
HETATM   36  C   UNL     1      41.810  -8.941  -2.097  1.00  0.00     0.143 A 
HETATM   37  C   UNL     1      41.063  -8.535  -1.018  1.00  0.00     0.027 A 
HETATM   38  C   UNL     1      40.275  -9.650  -0.648  1.00  0.00     0.045 A 
ENDBRANCH  30  34
ENDBRANCH   4  26
TORSDOF 8
ENDMDL
MODEL 8
REMARK VINA RESULT:      -7.6      4.080      7.264
REMARK  8 active torsions:
REMARK  status: ('A' for Active; 'I' for Inactive)
REMARK    1  A    between atoms: C_2  and  C_3 
REMARK    2  A    between atoms: C_6  and  C_7 
REMARK    3  A    between atoms: C_8  and  C_9 
REMARK       I    between atoms: C_9  and  N_10 
REMARK    4  A    between atoms: N_10  and  C_11 
REMARK    5  A    between atoms: C_11  and  N_12 
REMARK    6  A    between atoms: N_12  and  C_13 
REMARK    7  A    between atoms: C_16  and  N_17 
REMARK       I    between atoms: N_20  and  C_21 
REMARK    8  A    between atoms: C_21  and  C_22 
ROOT
HETATM    1  C   UNL     1      39.634 -12.760   3.975  1.00  0.00     0.034 A 
HETATM    2  C   UNL     1      39.774 -12.895   5.350  1.00  0.00     0.032 A 
HETATM    3  C   UNL     1      40.238 -14.101   5.896  1.00  0.00     0.031 A 
HETATM    4  C   UNL     1      40.580 -15.209   5.102  1.00  0.00     0.030 A 
HETATM    5  C   UNL     1      40.338 -15.069   3.727  1.00  0.00     0.031 A 
HETATM    6  C   UNL     1      39.871 -13.870   3.170  1.00  0.00     0.032 A 
ENDROOT
BRANCH   1   7
HETATM    7  N   UNL     1      39.214 -11.576   3.334  1.00  0.00    -0.333 N 
HETATM    8  H   UNL     1      38.396 -11.690   2.744  1.00  0.00     0.168 HD
BRANCH   7   9
HETATM    9  C   UNL     1      39.489 -10.284   3.622  1.00  0.00     0.179 C 
HETATM   10  S   UNL     1      41.005  -9.687   3.239  1.00  0.00    -0.040 SA
BRANCH   9  11
HETATM   11  N   UNL     1      38.606  -9.454   4.258  1.00  0.00    -0.300 N 
HETATM   12  C   UNL     1      38.401  -8.973   5.541  1.00  0.00     0.247 C 
HETATM   13  O   UNL     1      37.328  -8.442   5.824  1.00  0.00    -0.268 OA
HETATM   14  H   UNL     1      37.915  -9.065   3.628  1.00  0.00     0.171 HD
BRANCH  12  15
HETATM   15  C   UNL     1      39.507  -9.078   6.523  1.00  0.00     0.075 C 
HETATM   16  C   UNL     1      39.443 -10.035   7.464  1.00  0.00     0.017 C 
BRANCH  16  17
HETATM   17  C   UNL     1      40.456 -10.303   8.495  1.00  0.00    -0.036 A 
HETATM   18  C   UNL     1      40.021 -10.669   9.775  1.00  0.00     0.012 A 
HETATM   19  C   UNL     1      40.935 -10.995  10.783  1.00  0.00     0.008 A 
HETATM   20  C   UNL     1      42.312 -10.958  10.541  1.00  0.00    -0.055 A 
HETATM   21  C   UNL     1      42.748 -10.608   9.255  1.00  0.00     0.008 A 
HETATM   22  C   UNL     1      41.832 -10.287   8.244  1.00  0.00     0.012 A 
BRANCH  20  23
HETATM   23  C   UNL     1      43.331 -11.330  11.605  1.00  0.00     0.010 C 
HETATM   24  C   UNL     1      43.724 -10.097  12.421  1.00  0.00     0.015 C 
HETATM   25  C   UNL     1      44.578 -12.020  11.041  1.00  0.00     0.015 C 
ENDBRANCH  20  23
ENDBRANCH  16  17
ENDBRANCH  12  15
ENDBRANCH   9  11
ENDBRANCH   7   9
ENDBRANCH   1   7
BRANCH   4  26
HETATM   26  N   UNL     1      41.069 -16.384   5.681  1.00  0.00    -0.378 N 
HETATM   27  C   UNL     1      41.210 -17.619   4.865  1.00  0.00     0.143 C 
HETATM   28  C   UNL     1      42.569 -17.634   4.138  1.00  0.00     0.146 C 
HETATM   29  N   UNL     1      43.660 -17.514   5.115  1.00  0.00    -0.343 N 
HETATM   30  C   UNL     1      44.665 -18.444   5.377  1.00  0.00     0.277 C 
HETATM   31  C   UNL     1      43.562 -16.304   5.941  1.00  0.00     0.146 C 
HETATM   32  O   UNL     1      45.596 -18.152   6.131  1.00  0.00    -0.265 OA
HETATM   33  C   UNL     1      42.192 -16.244   6.656  1.00  0.00     0.143 C 
BRANCH  30  34
HETATM   34  C   UNL     1      44.623 -19.752   4.744  1.00  0.00     0.142 A 
HETATM   35  O   UNL     1      44.706 -20.904   5.483  1.00  0.00    -0.317 OA
HETATM   36  C   UNL     1      44.689 -21.947   4.615  1.00  0.00     0.143 A 
HETATM   37  C   UNL     1      44.628 -21.495   3.319  1.00  0.00     0.027 A 
HETATM   38  C   UNL     1      44.609 -20.083   3.399  1.00  0.00     0.045 A 
ENDBRANCH  30  34
ENDBRANCH   4  26
TORSDOF 8
ENDMDL
MODEL 9
REMARK VINA RESULT:      -7.5      4.070      7.773
REMARK  8 active torsions:
REMARK  status: ('A' for Active; 'I' for Inactive)
REMARK    1  A    between atoms: C_2  and  C_3 
REMARK    2  A    between atoms: C_6  and  C_7 
REMARK    3  A    between atoms: C_8  and  C_9 
REMARK       I    between atoms: C_9  and  N_10 
REMARK    4  A    between atoms: N_10  and  C_11 
REMARK    5  A    between atoms: C_11  and  N_12 
REMARK    6  A    between atoms: N_12  and  C_13 
REMARK    7  A    between atoms: C_16  and  N_17 
REMARK       I    between atoms: N_20  and  C_21 
REMARK    8  A    between atoms: C_21  and  C_22 
ROOT
HETATM    1  C   UNL     1      41.376 -10.514   9.065  1.00  0.00     0.034 A 
HETATM    2  C   UNL     1      40.096 -11.053   9.081  1.00  0.00     0.032 A 
HETATM    3  C   UNL     1      39.472 -11.423   7.880  1.00  0.00     0.031 A 
HETATM    4  C   UNL     1      40.094 -11.275   6.628  1.00  0.00     0.030 A 
HETATM    5  C   UNL     1      41.346 -10.644   6.641  1.00  0.00     0.031 A 
HETATM    6  C   UNL     1      41.979 -10.266   7.834  1.00  0.00     0.032 A 
ENDROOT
BRANCH   1   7
HETATM    7  N   UNL     1      42.097 -10.151  10.221  1.00  0.00    -0.333 N 
HETATM    8  H   UNL     1      41.553  -9.631  10.903  1.00  0.00     0.168 HD
BRANCH   7   9
HETATM    9  C   UNL     1      43.249 -10.648  10.722  1.00  0.00     0.179 C 
HETATM   10  S   UNL     1      43.222 -11.347  12.243  1.00  0.00    -0.040 SA
BRANCH   9  11
HETATM   11  N   UNL     1      44.449 -10.563  10.068  1.00  0.00    -0.300 N 
HETATM   12  C   UNL     1      45.246 -11.386   9.290  1.00  0.00     0.247 C 
HETATM   13  O   UNL     1      46.416 -11.072   9.079  1.00  0.00    -0.268 OA
HETATM   14  H   UNL     1      44.875  -9.649  10.156  1.00  0.00     0.171 HD
BRANCH  12  15
HETATM   15  C   UNL     1      44.644 -12.606   8.701  1.00  0.00     0.075 C 
HETATM   16  C   UNL     1      44.913 -12.902   7.419  1.00  0.00     0.017 C 
BRANCH  16  17
HETATM   17  C   UNL     1      44.429 -14.080   6.683  1.00  0.00    -0.036 A 
HETATM   18  C   UNL     1      44.347 -15.301   7.363  1.00  0.00     0.012 A 
HETATM   19  C   UNL     1      43.838 -16.444   6.737  1.00  0.00     0.008 A 
HETATM   20  C   UNL     1      43.402 -16.399   5.408  1.00  0.00    -0.055 A 
HETATM   21  C   UNL     1      43.468 -15.172   4.732  1.00  0.00     0.008 A 
HETATM   22  C   UNL     1      43.972 -14.027   5.362  1.00  0.00     0.012 A 
BRANCH  20  23
HETATM   23  C   UNL     1      42.821 -17.615   4.705  1.00  0.00     0.010 C 
HETATM   24  C   UNL     1      43.012 -17.497   3.192  1.00  0.00     0.015 C 
HETATM   25  C   UNL     1      41.348 -17.869   5.043  1.00  0.00     0.015 C 
ENDBRANCH  20  23
ENDBRANCH  16  17
ENDBRANCH  12  15
ENDBRANCH   9  11
ENDBRANCH   7   9
ENDBRANCH   1   7
BRANCH   4  26
HETATM   26  N   UNL     1      39.451 -11.685   5.455  1.00  0.00    -0.378 N 
HETATM   27  C   UNL     1      40.012 -11.319   4.127  1.00  0.00     0.143 C 
HETATM   28  C   UNL     1      41.070 -12.347   3.684  1.00  0.00     0.146 C 
HETATM   29  N   UNL     1      40.481 -13.694   3.661  1.00  0.00    -0.343 N 
HETATM   30  C   UNL     1      40.330 -14.530   2.555  1.00  0.00     0.277 C 
HETATM   31  C   UNL     1      39.919 -14.099   4.955  1.00  0.00     0.146 C 
HETATM   32  O   UNL     1      39.939 -15.690   2.706  1.00  0.00    -0.265 OA
HETATM   33  C   UNL     1      38.877 -13.065   5.442  1.00  0.00     0.143 C 
BRANCH  30  34
HETATM   34  C   UNL     1      40.652 -14.037   1.226  1.00  0.00     0.142 A 
HETATM   35  O   UNL     1      39.792 -13.217   0.542  1.00  0.00    -0.317 OA
HETATM   36  C   UNL     1      40.344 -12.970  -0.674  1.00  0.00     0.143 A 
HETATM   37  C   UNL     1      41.535 -13.641  -0.807  1.00  0.00     0.027 A 
HETATM   38  C   UNL     1      41.724 -14.346   0.405  1.00  0.00     0.045 A 
ENDBRANCH  30  34
ENDBRANCH   4  26
TORSDOF 8
ENDMDL
MODEL 10
REMARK VINA RESULT:      -7.5      2.936      4.288
REMARK  8 active torsions:
REMARK  status: ('A' for Active; 'I' for Inactive)
REMARK    1  A    between atoms: C_2  and  C_3 
REMARK    2  A    between atoms: C_6  and  C_7 
REMARK    3  A    between atoms: C_8  and  C_9 
REMARK       I    between atoms: C_9  and  N_10 
REMARK    4  A    between atoms: N_10  and  C_11 
REMARK    5  A    between atoms: C_11  and  N_12 
REMARK    6  A    between atoms: N_12  and  C_13 
REMARK    7  A    between atoms: C_16  and  N_17 
REMARK       I    between atoms: N_20  and  C_21 
REMARK    8  A    between atoms: C_21  and  C_22 
ROOT
HETATM    1  C   UNL     1      40.642 -12.976   0.860  1.00  0.00     0.034 A 
HETATM    2  C   UNL     1      39.591 -13.328   1.698  1.00  0.00     0.032 A 
HETATM    3  C   UNL     1      39.805 -13.468   3.077  1.00  0.00     0.031 A 
HETATM    4  C   UNL     1      41.062 -13.262   3.672  1.00  0.00     0.030 A 
HETATM    5  C   UNL     1      42.118 -12.999   2.787  1.00  0.00     0.031 A 
HETATM    6  C   UNL     1      41.918 -12.861   1.406  1.00  0.00     0.032 A 
ENDROOT
BRANCH   1   7
HETATM    7  N   UNL     1      40.514 -12.774  -0.529  1.00  0.00    -0.333 N 
HETATM    8  H   UNL     1      41.367 -12.463  -0.984  1.00  0.00     0.168 HD
BRANCH   7   9
HETATM    9  C   UNL     1      39.582 -13.232  -1.394  1.00  0.00     0.179 C 
HETATM   10  S   UNL     1      38.089 -12.477  -1.430  1.00  0.00    -0.040 SA
BRANCH   9  11
HETATM   11  N   UNL     1      39.782 -14.315  -2.207  1.00  0.00    -0.300 N 
HETATM   12  C   UNL     1      40.696 -15.349  -2.321  1.00  0.00     0.247 C 
HETATM   13  O   UNL     1      40.731 -16.015  -3.354  1.00  0.00    -0.268 OA
HETATM   14  H   UNL     1      39.064 -14.407  -2.915  1.00  0.00     0.171 HD
BRANCH  12  15
HETATM   15  C   UNL     1      41.580 -15.645  -1.168  1.00  0.00     0.075 C 
HETATM   16  C   UNL     1      41.120 -16.447  -0.194  1.00  0.00     0.017 C 
BRANCH  16  17
HETATM   17  C   UNL     1      41.864 -16.869   1.003  1.00  0.00    -0.036 A 
HETATM   18  C   UNL     1      41.206 -16.841   2.238  1.00  0.00     0.012 A 
HETATM   19  C   UNL     1      41.838 -17.286   3.404  1.00  0.00     0.008 A 
HETATM   20  C   UNL     1      43.152 -17.766   3.368  1.00  0.00    -0.055 A 
HETATM   21  C   UNL     1      43.806 -17.809   2.128  1.00  0.00     0.008 A 
HETATM   22  C   UNL     1      43.169 -17.369   0.960  1.00  0.00     0.012 A 
BRANCH  20  23
HETATM   23  C   UNL     1      43.861 -18.280   4.610  1.00  0.00     0.010 C 
HETATM   24  C   UNL     1      44.505 -19.639   4.332  1.00  0.00     0.015 C 
HETATM   25  C   UNL     1      42.953 -18.358   5.842  1.00  0.00     0.015 C 
ENDBRANCH  20  23
ENDBRANCH  16  17
ENDBRANCH  12  15
ENDBRANCH   9  11
ENDBRANCH   7   9
ENDBRANCH   1   7
BRANCH   4  26
HETATM   26  N   UNL     1      41.229 -13.380   5.056  1.00  0.00    -0.378 N 
HETATM   27  C   UNL     1      42.058 -12.393   5.797  1.00  0.00     0.143 C 
HETATM   28  C   UNL     1      41.213 -11.166   6.192  1.00  0.00     0.146 C 
HETATM   29  N   UNL     1      40.053 -11.592   6.988  1.00  0.00    -0.343 N 
HETATM   30  C   UNL     1      39.762 -11.247   8.307  1.00  0.00     0.277 C 
HETATM   31  C   UNL     1      39.203 -12.565   6.291  1.00  0.00     0.146 C 
HETATM   32  O   UNL     1      38.682 -11.571   8.807  1.00  0.00    -0.265 OA
HETATM   33  C   UNL     1      40.033 -13.794   5.851  1.00  0.00     0.143 C 
BRANCH  30  34
HETATM   34  C   UNL     1      40.728 -10.489   9.087  1.00  0.00     0.142 A 
HETATM   35  O   UNL     1      41.887 -11.065   9.539  1.00  0.00    -0.317 OA
HETATM   36  C   UNL     1      42.549 -10.129  10.268  1.00  0.00     0.143 A 
HETATM   37  C   UNL     1      41.826  -8.963  10.325  1.00  0.00     0.027 A 
HETATM   38  C   UNL     1      40.643  -9.200   9.585  1.00  0.00     0.045 A 
ENDBRANCH  30  34
ENDBRANCH   4  26
TORSDOF 8
ENDMDL
