MODEL 1
REMARK VINA RESULT:      -8.8      0.000      0.000
REMARK  5 active torsions:
REMARK  status: ('A' for Active; 'I' for Inactive)
REMARK    1  A    between atoms: O_2  and  C_3 
REMARK    2  A    between atoms: C_6  and  C_7 
REMARK    3  A    between atoms: C_12  and  C_13 
REMARK    4  A    between atoms: N_14  and  N_15 
REMARK       I    between atoms: N_15  and  C_16 
REMARK    5  A    between atoms: C_16  and  C_17 
ROOT
HETATM    1  C   UNL     1      42.752 -16.771   5.656  1.00  0.00     0.154 C 
HETATM    2  N   UNL     1      41.528 -16.969   5.281  1.00  0.00    -0.183 NA
ENDROOT
BRANCH   1   3
HETATM    3  C   UNL     1      43.249 -17.496   6.806  1.00  0.00     0.031 A 
HETATM    4  C   UNL     1      43.802 -18.815   6.878  1.00  0.00     0.100 A 
HETATM    5  N   UNL     1      44.098 -19.139   8.149  1.00  0.00    -0.174 NA
HETATM    6  N   UNL     1      43.777 -18.053   8.861  1.00  0.00    -0.288 N 
HETATM    7  H   UNL     1      43.929 -18.073   9.863  1.00  0.00     0.188 HD
HETATM    8  C   UNL     1      43.267 -17.042   8.110  1.00  0.00     0.124 A 
BRANCH   4   9
HETATM    9  C   UNL     1      44.051 -19.774   5.799  1.00  0.00    -0.005 A 
HETATM   10  C   UNL     1      44.282 -21.122   6.103  1.00  0.00     0.016 A 
HETATM   11  C   UNL     1      44.518 -22.058   5.087  1.00  0.00     0.037 A 
HETATM   12  C   UNL     1      44.531 -21.655   3.754  1.00  0.00     0.068 A 
HETATM   13  C   UNL     1      44.316 -20.310   3.447  1.00  0.00     0.037 A 
HETATM   14  C   UNL     1      44.086 -19.372   4.460  1.00  0.00     0.016 A 
BRANCH  12  15
HETATM   15  O   UNL     1      44.744 -22.461   2.670  1.00  0.00    -0.356 OA
HETATM   16  C   UNL     1      44.220 -22.014   1.426  1.00  0.00     0.210 C 
ENDBRANCH  12  15
ENDBRANCH   4   9
ENDBRANCH   1   3
BRANCH   2  17
HETATM   17  N   UNL     1      41.043 -16.300   4.184  1.00  0.00    -0.243 N 
HETATM   18  C   UNL     1      41.174 -16.689   2.856  1.00  0.00     0.271 C 
HETATM   19  O   UNL     1      41.758 -17.691   2.456  1.00  0.00    -0.266 OA
HETATM   20  H   UNL     1      40.323 -15.626   4.423  1.00  0.00     0.192 HD
BRANCH  18  21
HETATM   21  C   UNL     1      40.498 -15.807   1.859  1.00  0.00     0.036 A 
HETATM   22  C   UNL     1      41.084 -15.500   0.622  1.00  0.00     0.057 A 
HETATM   23  C   UNL     1      40.373 -14.685  -0.236  1.00  0.00     0.106 A 
HETATM   24  C   UNL     1      39.129 -14.192   0.085  1.00  0.00     0.105 A 
HETATM   25  O   UNL     1      40.786 -14.285  -1.468  1.00  0.00    -0.323 OA
HETATM   26  O   UNL     1      38.607 -13.418  -0.904  1.00  0.00    -0.323 OA
HETATM   27  C   UNL     1      38.520 -14.487   1.283  1.00  0.00     0.041 A 
HETATM   28  C   UNL     1      39.660 -13.482  -1.887  1.00  0.00     0.352 A 
HETATM   29  C   UNL     1      39.214 -15.308   2.177  1.00  0.00     0.020 A 
ENDBRANCH  18  21
ENDBRANCH   2  17
TORSDOF 5
ENDMDL
MODEL 2
REMARK VINA RESULT:      -8.6      2.861      8.494
REMARK  5 active torsions:
REMARK  status: ('A' for Active; 'I' for Inactive)
REMARK    1  A    between atoms: O_2  and  C_3 
REMARK    2  A    between atoms: C_6  and  C_7 
REMARK    3  A    between atoms: C_12  and  C_13 
REMARK    4  A    between atoms: N_14  and  N_15 
REMARK       I    between atoms: N_15  and  C_16 
REMARK    5  A    between atoms: C_16  and  C_17 
ROOT
HETATM    1  C   UNL     1      42.090 -15.086   2.719  1.00  0.00     0.154 C 
HETATM    2  N   UNL     1      43.305 -15.533   2.779  1.00  0.00    -0.183 NA
ENDROOT
BRANCH   1   3
HETATM    3  C   UNL     1      41.884 -13.666   2.530  1.00  0.00     0.031 A 
HETATM    4  C   UNL     1      41.587 -12.944   1.330  1.00  0.00     0.100 A 
HETATM    5  N   UNL     1      41.522 -11.622   1.572  1.00  0.00    -0.174 NA
HETATM    6  N   UNL     1      41.737 -11.507   2.888  1.00  0.00    -0.288 N 
HETATM    7  H   UNL     1      41.724 -10.579   3.297  1.00  0.00     0.188 HD
HETATM    8  C   UNL     1      41.958 -12.695   3.509  1.00  0.00     0.124 A 
BRANCH   4   9
HETATM    9  C   UNL     1      41.372 -13.453  -0.027  1.00  0.00    -0.005 A 
HETATM   10  C   UNL     1      42.129 -12.945  -1.091  1.00  0.00     0.016 A 
HETATM   11  C   UNL     1      41.944 -13.418  -2.396  1.00  0.00     0.037 A 
HETATM   12  C   UNL     1      40.995 -14.405  -2.654  1.00  0.00     0.068 A 
HETATM   13  C   UNL     1      40.228 -14.904  -1.599  1.00  0.00     0.037 A 
HETATM   14  C   UNL     1      40.406 -14.427  -0.296  1.00  0.00     0.016 A 
BRANCH  12  15
HETATM   15  O   UNL     1      40.716 -14.957  -3.874  1.00  0.00    -0.356 OA
HETATM   16  C   UNL     1      39.504 -15.693  -3.983  1.00  0.00     0.210 C 
ENDBRANCH  12  15
ENDBRANCH   4   9
ENDBRANCH   1   3
BRANCH   2  17
HETATM   17  N   UNL     1      43.519 -16.879   2.945  1.00  0.00    -0.243 N 
HETATM   18  C   UNL     1      43.670 -17.821   1.934  1.00  0.00     0.271 C 
HETATM   19  O   UNL     1      43.620 -17.595   0.729  1.00  0.00    -0.266 OA
HETATM   20  H   UNL     1      43.847 -17.112   3.876  1.00  0.00     0.192 HD
BRANCH  18  21
HETATM   21  C   UNL     1      43.954 -19.213   2.390  1.00  0.00     0.036 A 
HETATM   22  C   UNL     1      44.412 -19.490   3.688  1.00  0.00     0.057 A 
HETATM   23  C   UNL     1      44.634 -20.812   4.017  1.00  0.00     0.106 A 
HETATM   24  C   UNL     1      44.410 -21.837   3.125  1.00  0.00     0.105 A 
HETATM   25  O   UNL     1      45.078 -21.262   5.222  1.00  0.00    -0.323 OA
HETATM   26  O   UNL     1      44.687 -23.057   3.658  1.00  0.00    -0.323 OA
HETATM   27  C   UNL     1      43.946 -21.601   1.852  1.00  0.00     0.041 A 
HETATM   28  C   UNL     1      45.108 -22.687   4.987  1.00  0.00     0.352 A 
HETATM   29  C   UNL     1      43.713 -20.272   1.484  1.00  0.00     0.020 A 
ENDBRANCH  18  21
ENDBRANCH   2  17
TORSDOF 5
ENDMDL
MODEL 3
REMARK VINA RESULT:      -8.4      5.343      8.181
REMARK  5 active torsions:
REMARK  status: ('A' for Active; 'I' for Inactive)
REMARK    1  A    between atoms: O_2  and  C_3 
REMARK    2  A    between atoms: C_6  and  C_7 
REMARK    3  A    between atoms: C_12  and  C_13 
REMARK    4  A    between atoms: N_14  and  N_15 
REMARK       I    between atoms: N_15  and  C_16 
REMARK    5  A    between atoms: C_16  and  C_17 
ROOT
HETATM    1  C   UNL     1      43.843 -16.212   7.067  1.00  0.00     0.154 C 
HETATM    2  N   UNL     1      44.531 -15.117   6.997  1.00  0.00    -0.183 NA
ENDROOT
BRANCH   1   3
HETATM    3  C   UNL     1      44.193 -17.306   6.186  1.00  0.00     0.031 A 
HETATM    4  C   UNL     1      43.754 -17.570   4.848  1.00  0.00     0.100 A 
HETATM    5  N   UNL     1      44.274 -18.724   4.395  1.00  0.00    -0.174 NA
HETATM    6  N   UNL     1      45.046 -19.165   5.394  1.00  0.00    -0.288 N 
HETATM    7  H   UNL     1      45.551 -20.035   5.263  1.00  0.00     0.188 HD
HETATM    8  C   UNL     1      45.035 -18.358   6.487  1.00  0.00     0.124 A 
BRANCH   4   9
HETATM    9  C   UNL     1      42.861 -16.781   3.996  1.00  0.00    -0.005 A 
HETATM   10  C   UNL     1      43.288 -15.544   3.494  1.00  0.00     0.016 A 
HETATM   11  C   UNL     1      42.453 -14.773   2.674  1.00  0.00     0.037 A 
HETATM   12  C   UNL     1      41.178 -15.231   2.348  1.00  0.00     0.068 A 
HETATM   13  C   UNL     1      40.743 -16.456   2.857  1.00  0.00     0.037 A 
HETATM   14  C   UNL     1      41.573 -17.224   3.681  1.00  0.00     0.016 A 
BRANCH  12  15
HETATM   15  O   UNL     1      40.267 -14.585   1.558  1.00  0.00    -0.356 OA
HETATM   16  C   UNL     1      38.895 -14.864   1.802  1.00  0.00     0.210 C 
ENDBRANCH  12  15
ENDBRANCH   4   9
ENDBRANCH   1   3
BRANCH   2  17
HETATM   17  N   UNL     1      44.222 -14.073   7.834  1.00  0.00    -0.243 N 
HETATM   18  C   UNL     1      45.046 -12.999   8.151  1.00  0.00     0.271 C 
HETATM   19  O   UNL     1      46.188 -12.825   7.740  1.00  0.00    -0.266 OA
HETATM   20  H   UNL     1      43.225 -13.984   7.997  1.00  0.00     0.192 HD
BRANCH  18  21
HETATM   21  C   UNL     1      44.439 -11.967   9.043  1.00  0.00     0.036 A 
HETATM   22  C   UNL     1      43.238 -11.317   8.717  1.00  0.00     0.057 A 
HETATM   23  C   UNL     1      42.753 -10.387   9.614  1.00  0.00     0.106 A 
HETATM   24  C   UNL     1      43.400 -10.100  10.794  1.00  0.00     0.105 A 
HETATM   25  O   UNL     1      41.611  -9.664   9.461  1.00  0.00    -0.323 OA
HETATM   26  O   UNL     1      42.747  -9.160  11.529  1.00  0.00    -0.323 OA
HETATM   27  C   UNL     1      44.570 -10.730  11.151  1.00  0.00     0.041 A 
HETATM   28  C   UNL     1      41.612  -8.889  10.680  1.00  0.00     0.352 A 
HETATM   29  C   UNL     1      45.091 -11.677  10.264  1.00  0.00     0.020 A 
ENDBRANCH  18  21
ENDBRANCH   2  17
TORSDOF 5
ENDMDL
MODEL 4
REMARK VINA RESULT:      -8.4      2.880      4.399
REMARK  5 active torsions:
REMARK  status: ('A' for Active; 'I' for Inactive)
REMARK    1  A    between atoms: O_2  and  C_3 
REMARK    2  A    between atoms: C_6  and  C_7 
REMARK    3  A    between atoms: C_12  and  C_13 
REMARK    4  A    between atoms: N_14  and  N_15 
REMARK       I    between atoms: N_15  and  C_16 
REMARK    5  A    between atoms: C_16  and  C_17 
ROOT
HETATM    1  C   UNL     1      42.949 -19.209   1.583  1.00  0.00     0.154 C 
HETATM    2  N   UNL     1      43.595 -18.119   1.312  1.00  0.00    -0.183 NA
ENDROOT
BRANCH   1   3
HETATM    3  C   UNL     1      43.628 -20.248   2.328  1.00  0.00     0.031 A 
HETATM    4  C   UNL     1      44.128 -20.223   3.670  1.00  0.00     0.100 A 
HETATM    5  N   UNL     1      44.744 -21.380   3.970  1.00  0.00    -0.174 NA
HETATM    6  N   UNL     1      44.613 -22.131   2.870  1.00  0.00    -0.288 N 
HETATM    7  H   UNL     1      45.005 -23.066   2.878  1.00  0.00     0.188 HD
HETATM    8  C   UNL     1      43.954 -21.505   1.860  1.00  0.00     0.124 A 
BRANCH   4   9
HETATM    9  C   UNL     1      44.051 -19.152   4.666  1.00  0.00    -0.005 A 
HETATM   10  C   UNL     1      45.144 -18.902   5.507  1.00  0.00     0.016 A 
HETATM   11  C   UNL     1      45.096 -17.881   6.465  1.00  0.00     0.037 A 
HETATM   12  C   UNL     1      43.951 -17.098   6.595  1.00  0.00     0.068 A 
HETATM   13  C   UNL     1      42.854 -17.352   5.769  1.00  0.00     0.037 A 
HETATM   14  C   UNL     1      42.898 -18.376   4.816  1.00  0.00     0.016 A 
BRANCH  12  15
HETATM   15  O   UNL     1      43.772 -16.071   7.481  1.00  0.00    -0.356 OA
HETATM   16  C   UNL     1      44.292 -14.802   7.105  1.00  0.00     0.210 C 
ENDBRANCH  12  15
ENDBRANCH   4   9
ENDBRANCH   1   3
BRANCH   2  17
HETATM   17  N   UNL     1      42.962 -17.117   0.617  1.00  0.00    -0.243 N 
HETATM   18  C   UNL     1      42.263 -16.048   1.164  1.00  0.00     0.271 C 
HETATM   19  O   UNL     1      42.091 -15.841   2.361  1.00  0.00    -0.266 OA
HETATM   20  H   UNL     1      43.278 -17.048  -0.345  1.00  0.00     0.192 HD
BRANCH  18  21
HETATM   21  C   UNL     1      41.721 -15.064   0.181  1.00  0.00     0.036 A 
HETATM   22  C   UNL     1      41.209 -15.463  -1.063  1.00  0.00     0.057 A 
HETATM   23  C   UNL     1      40.720 -14.478  -1.897  1.00  0.00     0.106 A 
HETATM   24  C   UNL     1      40.714 -13.150  -1.537  1.00  0.00     0.105 A 
HETATM   25  O   UNL     1      40.190 -14.682  -3.133  1.00  0.00    -0.323 OA
HETATM   26  O   UNL     1      40.183 -12.353  -2.502  1.00  0.00    -0.323 OA
HETATM   27  C   UNL     1      41.194 -12.728  -0.318  1.00  0.00     0.041 A 
HETATM   28  C   UNL     1      39.850 -13.329  -3.511  1.00  0.00     0.352 A 
HETATM   29  C   UNL     1      41.699 -13.700   0.550  1.00  0.00     0.020 A 
ENDBRANCH  18  21
ENDBRANCH   2  17
TORSDOF 5
ENDMDL
MODEL 5
REMARK VINA RESULT:      -8.3      4.519      7.408
REMARK  5 active torsions:
REMARK  status: ('A' for Active; 'I' for Inactive)
REMARK    1  A    between atoms: O_2  and  C_3 
REMARK    2  A    between atoms: C_6  and  C_7 
REMARK    3  A    between atoms: C_12  and  C_13 
REMARK    4  A    between atoms: N_14  and  N_15 
REMARK       I    between atoms: N_15  and  C_16 
REMARK    5  A    between atoms: C_16  and  C_17 
ROOT
HETATM    1  C   UNL     1      43.300 -14.856   3.115  1.00  0.00     0.154 C 
HETATM    2  N   UNL     1      42.737 -14.806   4.280  1.00  0.00    -0.183 NA
ENDROOT
BRANCH   1   3
HETATM    3  C   UNL     1      42.664 -15.635   2.073  1.00  0.00     0.031 A 
HETATM    4  C   UNL     1      42.659 -17.053   1.875  1.00  0.00     0.100 A 
HETATM    5  N   UNL     1      41.993 -17.375   0.752  1.00  0.00    -0.174 NA
HETATM    6  N   UNL     1      41.558 -16.206   0.267  1.00  0.00    -0.288 N 
HETATM    7  H   UNL     1      41.013 -16.215  -0.588  1.00  0.00     0.188 HD
HETATM    8  C   UNL     1      41.929 -15.135   1.016  1.00  0.00     0.124 A 
BRANCH   4   9
HETATM    9  C   UNL     1      43.264 -18.104   2.698  1.00  0.00    -0.005 A 
HETATM   10  C   UNL     1      43.958 -19.156   2.086  1.00  0.00     0.016 A 
HETATM   11  C   UNL     1      44.548 -20.170   2.852  1.00  0.00     0.037 A 
HETATM   12  C   UNL     1      44.446 -20.146   4.241  1.00  0.00     0.068 A 
HETATM   13  C   UNL     1      43.742 -19.107   4.854  1.00  0.00     0.037 A 
HETATM   14  C   UNL     1      43.147 -18.097   4.091  1.00  0.00     0.016 A 
BRANCH  12  15
HETATM   15  O   UNL     1      44.975 -21.066   5.105  1.00  0.00    -0.356 OA
HETATM   16  C   UNL     1      44.860 -22.433   4.734  1.00  0.00     0.210 C 
ENDBRANCH  12  15
ENDBRANCH   4   9
ENDBRANCH   1   3
BRANCH   2  17
HETATM   17  N   UNL     1      43.318 -14.062   5.277  1.00  0.00    -0.243 N 
HETATM   18  C   UNL     1      44.115 -14.545   6.309  1.00  0.00     0.271 C 
HETATM   19  O   UNL     1      44.413 -15.720   6.495  1.00  0.00    -0.266 OA
HETATM   20  H   UNL     1      43.362 -13.073   5.054  1.00  0.00     0.192 HD
BRANCH  18  21
HETATM   21  C   UNL     1      44.673 -13.510   7.228  1.00  0.00     0.036 A 
HETATM   22  C   UNL     1      43.879 -12.863   8.187  1.00  0.00     0.057 A 
HETATM   23  C   UNL     1      44.492 -11.929   8.998  1.00  0.00     0.106 A 
HETATM   24  C   UNL     1      45.833 -11.636   8.894  1.00  0.00     0.105 A 
HETATM   25  O   UNL     1      43.878 -11.208   9.975  1.00  0.00    -0.323 OA
HETATM   26  O   UNL     1      46.229 -10.694   9.791  1.00  0.00    -0.323 OA
HETATM   27  C   UNL     1      46.642 -12.264   7.976  1.00  0.00     0.041 A 
HETATM   28  C   UNL     1      44.987 -10.428  10.475  1.00  0.00     0.352 A 
HETATM   29  C   UNL     1      46.053 -13.215   7.136  1.00  0.00     0.020 A 
ENDBRANCH  18  21
ENDBRANCH   2  17
TORSDOF 5
ENDMDL
MODEL 6
REMARK VINA RESULT:      -8.1      2.142      2.875
REMARK  5 active torsions:
REMARK  status: ('A' for Active; 'I' for Inactive)
REMARK    1  A    between atoms: O_2  and  C_3 
REMARK    2  A    between atoms: C_6  and  C_7 
REMARK    3  A    between atoms: C_12  and  C_13 
REMARK    4  A    between atoms: N_14  and  N_15 
REMARK       I    between atoms: N_15  and  C_16 
REMARK    5  A    between atoms: C_16  and  C_17 
ROOT
HETATM    1  C   UNL     1      43.139 -15.161   3.566  1.00  0.00     0.154 C 
HETATM    2  N   UNL     1      41.984 -15.123   2.980  1.00  0.00    -0.183 NA
ENDROOT
BRANCH   1   3
HETATM    3  C   UNL     1      43.209 -15.656   4.924  1.00  0.00     0.031 A 
HETATM    4  C   UNL     1      43.518 -16.973   5.395  1.00  0.00     0.100 A 
HETATM    5  N   UNL     1      43.426 -17.033   6.736  1.00  0.00    -0.174 NA
HETATM    6  N   UNL     1      43.103 -15.790   7.111  1.00  0.00    -0.288 N 
HETATM    7  H   UNL     1      42.989 -15.602   8.101  1.00  0.00     0.188 HD
HETATM    8  C   UNL     1      42.963 -14.927   6.071  1.00  0.00     0.124 A 
BRANCH   4   9
HETATM    9  C   UNL     1      43.884 -18.167   4.630  1.00  0.00    -0.005 A 
HETATM   10  C   UNL     1      44.714 -19.138   5.206  1.00  0.00     0.016 A 
HETATM   11  C   UNL     1      45.075 -20.290   4.496  1.00  0.00     0.037 A 
HETATM   12  C   UNL     1      44.613 -20.483   3.195  1.00  0.00     0.068 A 
HETATM   13  C   UNL     1      43.798 -19.510   2.611  1.00  0.00     0.037 A 
HETATM   14  C   UNL     1      43.441 -18.356   3.317  1.00  0.00     0.016 A 
BRANCH  12  15
HETATM   15  O   UNL     1      44.884 -21.557   2.394  1.00  0.00    -0.356 OA
HETATM   16  C   UNL     1      43.866 -21.950   1.482  1.00  0.00     0.210 C 
ENDBRANCH  12  15
ENDBRANCH   4   9
ENDBRANCH   1   3
BRANCH   2  17
HETATM   17  N   UNL     1      41.900 -14.668   1.687  1.00  0.00    -0.243 N 
HETATM   18  C   UNL     1      41.574 -15.423   0.567  1.00  0.00     0.271 C 
HETATM   19  O   UNL     1      41.322 -16.623   0.559  1.00  0.00    -0.266 OA
HETATM   20  H   UNL     1      41.818 -13.658   1.631  1.00  0.00     0.192 HD
BRANCH  18  21
HETATM   21  C   UNL     1      41.495 -14.665  -0.717  1.00  0.00     0.036 A 
HETATM   22  C   UNL     1      41.940 -13.339  -0.826  1.00  0.00     0.057 A 
HETATM   23  C   UNL     1      41.834 -12.730  -2.060  1.00  0.00     0.106 A 
HETATM   24  C   UNL     1      41.326 -13.384  -3.159  1.00  0.00     0.105 A 
HETATM   25  O   UNL     1      42.213 -11.455  -2.346  1.00  0.00    -0.323 OA
HETATM   26  O   UNL     1      41.319 -12.602  -4.271  1.00  0.00    -0.323 OA
HETATM   27  C   UNL     1      40.896 -14.689  -3.090  1.00  0.00     0.041 A 
HETATM   28  C   UNL     1      41.884 -11.381  -3.751  1.00  0.00     0.352 A 
HETATM   29  C   UNL     1      40.986 -15.336  -1.853  1.00  0.00     0.020 A 
ENDBRANCH  18  21
ENDBRANCH   2  17
TORSDOF 5
ENDMDL
MODEL 7
REMARK VINA RESULT:      -8.1      1.922      2.911
REMARK  5 active torsions:
REMARK  status: ('A' for Active; 'I' for Inactive)
REMARK    1  A    between atoms: O_2  and  C_3 
REMARK    2  A    between atoms: C_6  and  C_7 
REMARK    3  A    between atoms: C_12  and  C_13 
REMARK    4  A    between atoms: N_14  and  N_15 
REMARK       I    between atoms: N_15  and  C_16 
REMARK    5  A    between atoms: C_16  and  C_17 
ROOT
HETATM    1  C   UNL     1      42.011 -15.353   3.661  1.00  0.00     0.154 C 
HETATM    2  N   UNL     1      42.548 -14.745   2.652  1.00  0.00    -0.183 NA
ENDROOT
BRANCH   1   3
HETATM    3  C   UNL     1      42.770 -15.460   4.889  1.00  0.00     0.031 A 
HETATM    4  C   UNL     1      43.562 -16.550   5.374  1.00  0.00     0.100 A 
HETATM    5  N   UNL     1      44.065 -16.269   6.590  1.00  0.00    -0.174 NA
HETATM    6  N   UNL     1      43.639 -15.029   6.856  1.00  0.00    -0.288 N 
HETATM    7  H   UNL     1      43.914 -14.606   7.736  1.00  0.00     0.188 HD
HETATM    8  C   UNL     1      42.863 -14.498   5.875  1.00  0.00     0.124 A 
BRANCH   4   9
HETATM    9  C   UNL     1      43.849 -17.839   4.740  1.00  0.00    -0.005 A 
HETATM   10  C   UNL     1      43.479 -18.059   3.407  1.00  0.00     0.016 A 
HETATM   11  C   UNL     1      43.746 -19.282   2.778  1.00  0.00     0.037 A 
HETATM   12  C   UNL     1      44.384 -20.303   3.478  1.00  0.00     0.068 A 
HETATM   13  C   UNL     1      44.741 -20.094   4.812  1.00  0.00     0.037 A 
HETATM   14  C   UNL     1      44.469 -18.876   5.444  1.00  0.00     0.016 A 
BRANCH  12  15
HETATM   15  O   UNL     1      44.707 -21.538   2.988  1.00  0.00    -0.356 OA
HETATM   16  C   UNL     1      44.135 -21.901   1.738  1.00  0.00     0.210 C 
ENDBRANCH  12  15
ENDBRANCH   4   9
ENDBRANCH   1   3
BRANCH   2  17
HETATM   17  N   UNL     1      41.838 -14.623   1.483  1.00  0.00    -0.243 N 
HETATM   18  C   UNL     1      41.762 -15.564   0.462  1.00  0.00     0.271 C 
HETATM   19  O   UNL     1      42.332 -16.650   0.443  1.00  0.00    -0.266 OA
HETATM   20  H   UNL     1      41.127 -13.900   1.529  1.00  0.00     0.192 HD
BRANCH  18  21
HETATM   21  C   UNL     1      40.866 -15.204  -0.677  1.00  0.00     0.036 A 
HETATM   22  C   UNL     1      39.807 -14.296  -0.531  1.00  0.00     0.057 A 
HETATM   23  C   UNL     1      39.044 -14.020  -1.648  1.00  0.00     0.106 A 
HETATM   24  C   UNL     1      39.303 -14.595  -2.871  1.00  0.00     0.105 A 
HETATM   25  O   UNL     1      37.983 -13.170  -1.689  1.00  0.00    -0.323 OA
HETATM   26  O   UNL     1      38.435 -14.180  -3.833  1.00  0.00    -0.323 OA
HETATM   27  C   UNL     1      40.343 -15.477  -3.052  1.00  0.00     0.041 A 
HETATM   28  C   UNL     1      37.602 -13.275  -3.079  1.00  0.00     0.352 A 
HETATM   29  C   UNL     1      41.135 -15.781  -1.940  1.00  0.00     0.020 A 
ENDBRANCH  18  21
ENDBRANCH   2  17
TORSDOF 5
ENDMDL
MODEL 8
REMARK VINA RESULT:      -7.9      5.520      7.748
REMARK  5 active torsions:
REMARK  status: ('A' for Active; 'I' for Inactive)
REMARK    1  A    between atoms: O_2  and  C_3 
REMARK    2  A    between atoms: C_6  and  C_7 
REMARK    3  A    between atoms: C_12  and  C_13 
REMARK    4  A    between atoms: N_14  and  N_15 
REMARK       I    between atoms: N_15  and  C_16 
REMARK    5  A    between atoms: C_16  and  C_17 
ROOT
HETATM    1  C   UNL     1      40.734 -14.211   4.369  1.00  0.00     0.154 C 
HETATM    2  N   UNL     1      39.915 -14.014   5.353  1.00  0.00    -0.183 NA
ENDROOT
BRANCH   1   3
HETATM    3  C   UNL     1      40.320 -15.079   3.288  1.00  0.00     0.031 A 
HETATM    4  C   UNL     1      40.782 -16.391   2.949  1.00  0.00     0.100 A 
HETATM    5  N   UNL     1      40.176 -16.837   1.834  1.00  0.00    -0.174 NA
HETATM    6  N   UNL     1      39.331 -15.859   1.492  1.00  0.00    -0.288 N 
HETATM    7  H   UNL     1      38.753 -15.990   0.669  1.00  0.00     0.188 HD
HETATM    8  C   UNL     1      39.374 -14.786   2.325  1.00  0.00     0.124 A 
BRANCH   4   9
HETATM    9  C   UNL     1      41.774 -17.227   3.631  1.00  0.00    -0.005 A 
HETATM   10  C   UNL     1      42.931 -17.631   2.951  1.00  0.00     0.016 A 
HETATM   11  C   UNL     1      43.896 -18.427   3.583  1.00  0.00     0.037 A 
HETATM   12  C   UNL     1      43.712 -18.832   4.903  1.00  0.00     0.068 A 
HETATM   13  C   UNL     1      42.553 -18.444   5.580  1.00  0.00     0.037 A 
HETATM   14  C   UNL     1      41.586 -17.655   4.948  1.00  0.00     0.016 A 
BRANCH  12  15
HETATM   15  O   UNL     1      44.570 -19.603   5.637  1.00  0.00    -0.356 OA
HETATM   16  C   UNL     1      44.724 -20.957   5.231  1.00  0.00     0.210 C 
ENDBRANCH  12  15
ENDBRANCH   4   9
ENDBRANCH   1   3
BRANCH   2  17
HETATM   17  N   UNL     1      40.286 -13.183   6.382  1.00  0.00    -0.243 N 
HETATM   18  C   UNL     1      39.758 -11.928   6.661  1.00  0.00     0.271 C 
HETATM   19  O   UNL     1      38.882 -11.359   6.018  1.00  0.00    -0.266 OA
HETATM   20  H   UNL     1      40.792 -13.669   7.115  1.00  0.00     0.192 HD
BRANCH  18  21
HETATM   21  C   UNL     1      40.301 -11.259   7.880  1.00  0.00     0.036 A 
HETATM   22  C   UNL     1      39.544 -11.127   9.054  1.00  0.00     0.057 A 
HETATM   23  C   UNL     1      40.141 -10.503  10.131  1.00  0.00     0.106 A 
HETATM   24  C   UNL     1      41.432 -10.031  10.081  1.00  0.00     0.105 A 
HETATM   25  O   UNL     1      39.557 -10.287  11.341  1.00  0.00    -0.323 OA
HETATM   26  O   UNL     1      41.821  -9.459  11.252  1.00  0.00    -0.323 OA
HETATM   27  C   UNL     1      42.207 -10.160   8.951  1.00  0.00     0.041 A 
HETATM   28  C   UNL     1      40.630  -9.626  12.047  1.00  0.00     0.352 A 
HETATM   29  C   UNL     1      41.633 -10.785   7.840  1.00  0.00     0.020 A 
ENDBRANCH  18  21
ENDBRANCH   2  17
TORSDOF 5
ENDMDL
MODEL 9
REMARK VINA RESULT:      -7.9      2.827      8.536
REMARK  5 active torsions:
REMARK  status: ('A' for Active; 'I' for Inactive)
REMARK    1  A    between atoms: O_2  and  C_3 
REMARK    2  A    between atoms: C_6  and  C_7 
REMARK    3  A    between atoms: C_12  and  C_13 
REMARK    4  A    between atoms: N_14  and  N_15 
REMARK       I    between atoms: N_15  and  C_16 
REMARK    5  A    between atoms: C_16  and  C_17 
ROOT
HETATM    1  C   UNL     1      41.643 -14.163   2.474  1.00  0.00     0.154 C 
HETATM    2  N   UNL     1      42.875 -14.562   2.440  1.00  0.00    -0.183 NA
ENDROOT
BRANCH   1   3
HETATM    3  C   UNL     1      41.342 -12.810   2.057  1.00  0.00     0.031 A 
HETATM    4  C   UNL     1      40.994 -12.317   0.758  1.00  0.00     0.100 A 
HETATM    5  N   UNL     1      40.842 -10.981   0.781  1.00  0.00    -0.174 NA
HETATM    6  N   UNL     1      41.051 -10.636   2.057  1.00  0.00    -0.288 N 
HETATM    7  H   UNL     1      40.976  -9.656   2.308  1.00  0.00     0.188 HD
HETATM    8  C   UNL     1      41.351 -11.688   2.862  1.00  0.00     0.124 A 
BRANCH   4   9
HETATM    9  C   UNL     1      40.812 -13.056  -0.493  1.00  0.00    -0.005 A 
HETATM   10  C   UNL     1      41.912 -13.296  -1.328  1.00  0.00     0.016 A 
HETATM   11  C   UNL     1      41.763 -14.004  -2.528  1.00  0.00     0.037 A 
HETATM   12  C   UNL     1      40.509 -14.477  -2.910  1.00  0.00     0.068 A 
HETATM   13  C   UNL     1      39.408 -14.227  -2.088  1.00  0.00     0.037 A 
HETATM   14  C   UNL     1      39.553 -13.515  -0.893  1.00  0.00     0.016 A 
BRANCH  12  15
HETATM   15  O   UNL     1      40.225 -15.181  -4.047  1.00  0.00    -0.356 OA
HETATM   16  C   UNL     1      39.180 -16.141  -3.963  1.00  0.00     0.210 C 
ENDBRANCH  12  15
ENDBRANCH   4   9
ENDBRANCH   1   3
BRANCH   2  17
HETATM   17  N   UNL     1      43.177 -15.847   2.820  1.00  0.00    -0.243 N 
HETATM   18  C   UNL     1      43.228 -16.961   1.991  1.00  0.00     0.271 C 
HETATM   19  O   UNL     1      42.995 -16.971   0.787  1.00  0.00    -0.266 OA
HETATM   20  H   UNL     1      43.646 -15.889   3.719  1.00  0.00     0.192 HD
BRANCH  18  21
HETATM   21  C   UNL     1      43.644 -18.234   2.652  1.00  0.00     0.036 A 
HETATM   22  C   UNL     1      43.678 -19.454   1.959  1.00  0.00     0.057 A 
HETATM   23  C   UNL     1      44.088 -20.572   2.656  1.00  0.00     0.106 A 
HETATM   24  C   UNL     1      44.464 -20.514   3.978  1.00  0.00     0.105 A 
HETATM   25  O   UNL     1      44.180 -21.830   2.146  1.00  0.00    -0.323 OA
HETATM   26  O   UNL     1      44.838 -21.727   4.465  1.00  0.00    -0.323 OA
HETATM   27  C   UNL     1      44.458 -19.331   4.682  1.00  0.00     0.041 A 
HETATM   28  C   UNL     1      44.658 -22.558   3.299  1.00  0.00     0.352 A 
HETATM   29  C   UNL     1      44.045 -18.178   4.006  1.00  0.00     0.020 A 
ENDBRANCH  18  21
ENDBRANCH   2  17
TORSDOF 5
ENDMDL
MODEL 10
REMARK VINA RESULT:      -7.8      1.701      2.091
REMARK  5 active torsions:
REMARK  status: ('A' for Active; 'I' for Inactive)
REMARK    1  A    between atoms: O_2  and  C_3 
REMARK    2  A    between atoms: C_6  and  C_7 
REMARK    3  A    between atoms: C_12  and  C_13 
REMARK    4  A    between atoms: N_14  and  N_15 
REMARK       I    between atoms: N_15  and  C_16 
REMARK    5  A    between atoms: C_16  and  C_17 
ROOT
HETATM    1  C   UNL     1      42.647 -15.463   4.048  1.00  0.00     0.154 C 
HETATM    2  N   UNL     1      41.387 -15.685   3.849  1.00  0.00    -0.183 NA
ENDROOT
BRANCH   1   3
HETATM    3  C   UNL     1      43.208 -15.773   5.347  1.00  0.00     0.031 A 
HETATM    4  C   UNL     1      43.806 -16.989   5.810  1.00  0.00     0.100 A 
HETATM    5  N   UNL     1      44.156 -16.885   7.104  1.00  0.00    -0.174 NA
HETATM    6  N   UNL     1      43.825 -15.634   7.446  1.00  0.00    -0.288 N 
HETATM    7  H   UNL     1      44.013 -15.331   8.396  1.00  0.00     0.188 HD
HETATM    8  C   UNL     1      43.257 -14.926   6.436  1.00  0.00     0.124 A 
BRANCH   4   9
HETATM    9  C   UNL     1      44.047 -18.237   5.082  1.00  0.00    -0.005 A 
HETATM   10  C   UNL     1      44.527 -19.362   5.766  1.00  0.00     0.016 A 
HETATM   11  C   UNL     1      44.762 -20.568   5.092  1.00  0.00     0.037 A 
HETATM   12  C   UNL     1      44.522 -20.661   3.722  1.00  0.00     0.068 A 
HETATM   13  C   UNL     1      44.058 -19.538   3.034  1.00  0.00     0.037 A 
HETATM   14  C   UNL     1      43.829 -18.332   3.704  1.00  0.00     0.016 A 
BRANCH  12  15
HETATM   15  O   UNL     1      44.704 -21.772   2.946  1.00  0.00    -0.356 OA
HETATM   16  C   UNL     1      44.018 -21.804   1.701  1.00  0.00     0.210 C 
ENDBRANCH  12  15
ENDBRANCH   4   9
ENDBRANCH   1   3
BRANCH   2  17
HETATM   17  N   UNL     1      40.841 -15.409   2.620  1.00  0.00    -0.243 N 
HETATM   18  C   UNL     1      40.208 -14.230   2.245  1.00  0.00     0.271 C 
HETATM   19  O   UNL     1      40.027 -13.253   2.964  1.00  0.00    -0.266 OA
HETATM   20  H   UNL     1      41.179 -16.030   1.892  1.00  0.00     0.192 HD
BRANCH  18  21
HETATM   21  C   UNL     1      39.756 -14.168   0.823  1.00  0.00     0.036 A 
HETATM   22  C   UNL     1      40.617 -14.467  -0.243  1.00  0.00     0.057 A 
HETATM   23  C   UNL     1      40.100 -14.392  -1.521  1.00  0.00     0.106 A 
HETATM   24  C   UNL     1      38.789 -14.050  -1.762  1.00  0.00     0.105 A 
HETATM   25  O   UNL     1      40.788 -14.645  -2.667  1.00  0.00    -0.323 OA
HETATM   26  O   UNL     1      38.490 -14.043  -3.089  1.00  0.00    -0.323 OA
HETATM   27  C   UNL     1      37.915 -13.766  -0.738  1.00  0.00     0.041 A 
HETATM   28  C   UNL     1      39.760 -14.423  -3.658  1.00  0.00     0.352 A 
HETATM   29  C   UNL     1      38.406 -13.830   0.570  1.00  0.00     0.020 A 
ENDBRANCH  18  21
ENDBRANCH   2  17
TORSDOF 5
ENDMDL
