MODEL 1
REMARK VINA RESULT:      -8.4      0.000      0.000
REMARK  8 active torsions:
REMARK  status: ('A' for Active; 'I' for Inactive)
REMARK    1  A    between atoms: O_2  and  C_3 
REMARK    2  A    between atoms: C_6  and  C_7 
REMARK    3  A    between atoms: C_7  and  N_8 
REMARK    4  A    between atoms: C_7  and  C_27 
REMARK    5  A    between atoms: N_8  and  C_11 
REMARK    6  A    between atoms: C_11  and  C_12 
REMARK       I    between atoms: C_12  and  N_13 
REMARK    7  A    between atoms: N_13  and  C_14 
REMARK    8  A    between atoms: C_17  and  N_18 
ROOT
HETATM    1  N   UNL     1      43.966 -18.388   5.911  1.00  0.00    -0.055 N 
HETATM    2  H   UNL     1      42.935 -18.327   5.938  1.00  0.00     0.278 HD
HETATM    3  H   UNL     1      44.236 -19.194   6.476  1.00  0.00     0.278 HD
ENDROOT
BRANCH   1   4
HETATM    4  C   UNL     1      44.322 -18.613   4.465  1.00  0.00     0.252 C 
BRANCH   4   5
HETATM    5  C   UNL     1      43.407 -17.854   3.517  1.00  0.00    -0.023 A 
HETATM    6  C   UNL     1      43.959 -17.234   2.379  1.00  0.00     0.012 A 
HETATM    7  C   UNL     1      43.147 -16.580   1.445  1.00  0.00     0.037 A 
HETATM    8  C   UNL     1      41.768 -16.538   1.625  1.00  0.00     0.068 A 
HETATM    9  C   UNL     1      41.213 -17.122   2.763  1.00  0.00     0.037 A 
HETATM   10  C   UNL     1      42.017 -17.781   3.698  1.00  0.00     0.012 A 
BRANCH   8  11
HETATM   11  O   UNL     1      40.869 -15.956   0.779  1.00  0.00    -0.356 OA
HETATM   12  C   UNL     1      41.350 -14.871  -0.009  1.00  0.00     0.210 C 
ENDBRANCH   8  11
ENDBRANCH   4   5
BRANCH   4  13
HETATM   13  C   UNL     1      44.448 -20.086   4.114  1.00  0.00    -0.023 A 
HETATM   14  C   UNL     1      44.715 -21.021   5.132  1.00  0.00     0.009 A 
HETATM   15  C   UNL     1      44.823 -22.381   4.839  1.00  0.00     0.001 A 
HETATM   16  C   UNL     1      44.669 -22.829   3.530  1.00  0.00     0.000 A 
HETATM   17  C   UNL     1      44.411 -21.918   2.510  1.00  0.00     0.001 A 
HETATM   18  C   UNL     1      44.303 -20.555   2.796  1.00  0.00     0.009 A 
ENDBRANCH   4  13
ENDBRANCH   1   4
BRANCH   1  19
HETATM   19  C   UNL     1      44.490 -17.105   6.520  1.00  0.00     0.336 C 
BRANCH  19  20
HETATM   20  C   UNL     1      43.446 -15.996   6.401  1.00  0.00     0.248 C 
HETATM   21  N   UNL     1      43.829 -14.924   5.621  1.00  0.00    -0.326 N 
HETATM   22  H   UNL     1      44.760 -14.917   5.217  1.00  0.00     0.169 HD
HETATM   23  O   UNL     1      42.338 -16.210   6.890  1.00  0.00    -0.271 OA
BRANCH  21  24
HETATM   24  C   UNL     1      43.001 -13.857   5.206  1.00  0.00     0.034 A 
HETATM   25  C   UNL     1      42.404 -12.950   6.076  1.00  0.00     0.032 A 
HETATM   26  C   UNL     1      41.536 -11.958   5.591  1.00  0.00     0.032 A 
HETATM   27  C   UNL     1      41.229 -11.850   4.232  1.00  0.00     0.037 A 
HETATM   28  C   UNL     1      41.872 -12.741   3.361  1.00  0.00     0.032 A 
HETATM   29  C   UNL     1      42.751 -13.726   3.839  1.00  0.00     0.032 A 
BRANCH  27  30
HETATM   30  N   UNL     1      40.294 -10.895   3.745  1.00  0.00    -0.318 N 
HETATM   31  C   UNL     1      38.933 -10.815   4.090  1.00  0.00     0.224 C 
HETATM   32  O   UNL     1      38.303 -11.473   4.903  1.00  0.00    -0.273 OA
HETATM   33  C   UNL     1      38.285  -9.786   3.195  1.00  0.00     0.105 C 
HETATM   34  C   UNL     1      39.461  -8.986   2.672  1.00  0.00     0.029 C 
HETATM   35  C   UNL     1      40.594  -9.989   2.659  1.00  0.00     0.133 C 
ENDBRANCH  27  30
ENDBRANCH  21  24
ENDBRANCH  19  20
ENDBRANCH   1  19
TORSDOF 8
ENDMDL
MODEL 2
REMARK VINA RESULT:      -8.2      4.791     10.249
REMARK  8 active torsions:
REMARK  status: ('A' for Active; 'I' for Inactive)
REMARK    1  A    between atoms: O_2  and  C_3 
REMARK    2  A    between atoms: C_6  and  C_7 
REMARK    3  A    between atoms: C_7  and  N_8 
REMARK    4  A    between atoms: C_7  and  C_27 
REMARK    5  A    between atoms: N_8  and  C_11 
REMARK    6  A    between atoms: C_11  and  C_12 
REMARK       I    between atoms: C_12  and  N_13 
REMARK    7  A    between atoms: N_13  and  C_14 
REMARK    8  A    between atoms: C_17  and  N_18 
ROOT
HETATM    1  N   UNL     1      43.741 -12.087   9.365  1.00  0.00    -0.055 N 
HETATM    2  H   UNL     1      43.801 -12.603  10.257  1.00  0.00     0.278 HD
HETATM    3  H   UNL     1      43.083 -12.589   8.768  1.00  0.00     0.278 HD
ENDROOT
BRANCH   1   4
HETATM    4  C   UNL     1      43.200 -10.725   9.717  1.00  0.00     0.252 C 
BRANCH   4   5
HETATM    5  C   UNL     1      42.803 -10.621  11.181  1.00  0.00    -0.023 A 
HETATM    6  C   UNL     1      43.614  -9.881  12.062  1.00  0.00     0.012 A 
HETATM    7  C   UNL     1      43.254  -9.702  13.403  1.00  0.00     0.037 A 
HETATM    8  C   UNL     1      42.073 -10.254  13.889  1.00  0.00     0.068 A 
HETATM    9  C   UNL     1      41.276 -11.015  13.034  1.00  0.00     0.037 A 
HETATM   10  C   UNL     1      41.627 -11.193  11.692  1.00  0.00     0.012 A 
BRANCH   8  11
HETATM   11  O   UNL     1      41.599 -10.135  15.163  1.00  0.00    -0.356 OA
HETATM   12  C   UNL     1      42.180  -9.108  15.962  1.00  0.00     0.210 C 
ENDBRANCH   8  11
ENDBRANCH   4   5
BRANCH   4  13
HETATM   13  C   UNL     1      42.104 -10.265   8.771  1.00  0.00    -0.023 A 
HETATM   14  C   UNL     1      41.401  -9.079   9.049  1.00  0.00     0.009 A 
HETATM   15  C   UNL     1      40.398  -8.626   8.191  1.00  0.00     0.001 A 
HETATM   16  C   UNL     1      40.081  -9.350   7.045  1.00  0.00     0.000 A 
HETATM   17  C   UNL     1      40.762 -10.530   6.757  1.00  0.00     0.001 A 
HETATM   18  C   UNL     1      41.766 -10.988   7.612  1.00  0.00     0.009 A 
ENDBRANCH   4  13
ENDBRANCH   1   4
BRANCH   1  19
HETATM   19  C   UNL     1      45.130 -12.101   8.763  1.00  0.00     0.336 C 
BRANCH  19  20
HETATM   20  C   UNL     1      45.271 -13.264   7.782  1.00  0.00     0.248 C 
HETATM   21  N   UNL     1      44.218 -14.154   7.788  1.00  0.00    -0.326 N 
HETATM   22  H   UNL     1      43.456 -14.012   8.442  1.00  0.00     0.169 HD
HETATM   23  O   UNL     1      46.224 -13.232   7.005  1.00  0.00    -0.271 OA
BRANCH  21  24
HETATM   24  C   UNL     1      44.013 -15.208   6.868  1.00  0.00     0.034 A 
HETATM   25  C   UNL     1      44.417 -16.521   7.085  1.00  0.00     0.032 A 
HETATM   26  C   UNL     1      44.239 -17.498   6.092  1.00  0.00     0.032 A 
HETATM   27  C   UNL     1      43.668 -17.192   4.854  1.00  0.00     0.037 A 
HETATM   28  C   UNL     1      43.224 -15.876   4.664  1.00  0.00     0.032 A 
HETATM   29  C   UNL     1      43.386 -14.899   5.658  1.00  0.00     0.032 A 
BRANCH  27  30
HETATM   30  N   UNL     1      43.553 -18.161   3.818  1.00  0.00    -0.318 N 
HETATM   31  C   UNL     1      44.133 -19.443   3.812  1.00  0.00     0.224 C 
HETATM   32  O   UNL     1      44.771 -20.006   4.688  1.00  0.00    -0.273 OA
HETATM   33  C   UNL     1      43.918 -20.044   2.444  1.00  0.00     0.105 C 
HETATM   34  C   UNL     1      42.791 -19.212   1.868  1.00  0.00     0.029 C 
HETATM   35  C   UNL     1      42.974 -17.862   2.528  1.00  0.00     0.133 C 
ENDBRANCH  27  30
ENDBRANCH  21  24
ENDBRANCH  19  20
ENDBRANCH   1  19
TORSDOF 8
ENDMDL
MODEL 3
REMARK VINA RESULT:      -7.9      4.400      9.901
REMARK  8 active torsions:
REMARK  status: ('A' for Active; 'I' for Inactive)
REMARK    1  A    between atoms: O_2  and  C_3 
REMARK    2  A    between atoms: C_6  and  C_7 
REMARK    3  A    between atoms: C_7  and  N_8 
REMARK    4  A    between atoms: C_7  and  C_27 
REMARK    5  A    between atoms: N_8  and  C_11 
REMARK    6  A    between atoms: C_11  and  C_12 
REMARK       I    between atoms: C_12  and  N_13 
REMARK    7  A    between atoms: N_13  and  C_14 
REMARK    8  A    between atoms: C_17  and  N_18 
ROOT
HETATM    1  N   UNL     1      39.562 -14.292  -0.893  1.00  0.00    -0.055 N 
HETATM    2  H   UNL     1      38.761 -14.515  -0.281  1.00  0.00     0.278 HD
HETATM    3  H   UNL     1      39.698 -15.089  -1.516  1.00  0.00     0.278 HD
ENDROOT
BRANCH   1   4
HETATM    4  C   UNL     1      39.148 -13.074  -1.677  1.00  0.00     0.252 C 
BRANCH   4   5
HETATM    5  C   UNL     1      38.122 -13.397  -2.751  1.00  0.00    -0.023 A 
HETATM    6  C   UNL     1      37.958 -14.733  -3.164  1.00  0.00     0.012 A 
HETATM    7  C   UNL     1      36.981 -15.086  -4.102  1.00  0.00     0.037 A 
HETATM    8  C   UNL     1      36.144 -14.114  -4.641  1.00  0.00     0.068 A 
HETATM    9  C   UNL     1      36.317 -12.783  -4.263  1.00  0.00     0.037 A 
HETATM   10  C   UNL     1      37.288 -12.423  -3.322  1.00  0.00     0.012 A 
BRANCH   8  11
HETATM   11  O   UNL     1      35.142 -14.331  -5.542  1.00  0.00    -0.356 OA
HETATM   12  C   UNL     1      35.340 -13.802  -6.850  1.00  0.00     0.210 C 
ENDBRANCH   8  11
ENDBRANCH   4   5
BRANCH   4  13
HETATM   13  C   UNL     1      40.334 -12.286  -2.208  1.00  0.00    -0.023 A 
HETATM   14  C   UNL     1      40.638 -11.030  -1.649  1.00  0.00     0.009 A 
HETATM   15  C   UNL     1      41.729 -10.291  -2.109  1.00  0.00     0.001 A 
HETATM   16  C   UNL     1      42.531 -10.791  -3.131  1.00  0.00     0.000 A 
HETATM   17  C   UNL     1      42.241 -12.029  -3.699  1.00  0.00     0.001 A 
HETATM   18  C   UNL     1      41.151 -12.773  -3.244  1.00  0.00     0.009 A 
ENDBRANCH   4  13
ENDBRANCH   1   4
BRANCH   1  19
HETATM   19  C   UNL     1      40.760 -14.108   0.014  1.00  0.00     0.336 C 
BRANCH  19  20
HETATM   20  C   UNL     1      41.475 -15.441   0.226  1.00  0.00     0.248 C 
HETATM   21  N   UNL     1      42.186 -15.534   1.405  1.00  0.00    -0.326 N 
HETATM   22  H   UNL     1      42.222 -14.730   2.023  1.00  0.00     0.169 HD
HETATM   23  O   UNL     1      41.252 -16.335  -0.589  1.00  0.00    -0.271 OA
BRANCH  21  24
HETATM   24  C   UNL     1      42.787 -16.703   1.925  1.00  0.00     0.034 A 
HETATM   25  C   UNL     1      43.867 -17.352   1.337  1.00  0.00     0.032 A 
HETATM   26  C   UNL     1      44.364 -18.548   1.877  1.00  0.00     0.032 A 
HETATM   27  C   UNL     1      43.792 -19.138   3.008  1.00  0.00     0.037 A 
HETATM   28  C   UNL     1      42.733 -18.451   3.618  1.00  0.00     0.032 A 
HETATM   29  C   UNL     1      42.241 -17.247   3.090  1.00  0.00     0.032 A 
BRANCH  27  30
HETATM   30  N   UNL     1      44.244 -20.388   3.516  1.00  0.00    -0.318 N 
HETATM   31  C   UNL     1      44.355 -21.587   2.789  1.00  0.00     0.224 C 
HETATM   32  O   UNL     1      44.166 -21.790   1.600  1.00  0.00    -0.273 OA
HETATM   33  C   UNL     1      44.682 -22.693   3.765  1.00  0.00     0.105 C 
HETATM   34  C   UNL     1      45.200 -21.949   4.978  1.00  0.00     0.029 C 
HETATM   35  C   UNL     1      44.464 -20.627   4.924  1.00  0.00     0.133 C 
ENDBRANCH  27  30
ENDBRANCH  21  24
ENDBRANCH  19  20
ENDBRANCH   1  19
TORSDOF 8
ENDMDL
MODEL 4
REMARK VINA RESULT:      -7.8      2.460      4.281
REMARK  8 active torsions:
REMARK  status: ('A' for Active; 'I' for Inactive)
REMARK    1  A    between atoms: O_2  and  C_3 
REMARK    2  A    between atoms: C_6  and  C_7 
REMARK    3  A    between atoms: C_7  and  N_8 
REMARK    4  A    between atoms: C_7  and  C_27 
REMARK    5  A    between atoms: N_8  and  C_11 
REMARK    6  A    between atoms: C_11  and  C_12 
REMARK       I    between atoms: C_12  and  N_13 
REMARK    7  A    between atoms: N_13  and  C_14 
REMARK    8  A    between atoms: C_17  and  N_18 
ROOT
HETATM    1  N   UNL     1      41.880 -17.001   2.285  1.00  0.00    -0.055 N 
HETATM    2  H   UNL     1      42.359 -16.099   2.433  1.00  0.00     0.278 HD
HETATM    3  H   UNL     1      42.295 -17.432   1.458  1.00  0.00     0.278 HD
ENDROOT
BRANCH   1   4
HETATM    4  C   UNL     1      42.175 -17.824   3.513  1.00  0.00     0.252 C 
BRANCH   4   5
HETATM    5  C   UNL     1      42.666 -16.975   4.675  1.00  0.00    -0.023 A 
HETATM    6  C   UNL     1      42.438 -17.417   5.992  1.00  0.00     0.012 A 
HETATM    7  C   UNL     1      42.928 -16.703   7.092  1.00  0.00     0.037 A 
HETATM    8  C   UNL     1      43.660 -15.537   6.897  1.00  0.00     0.068 A 
HETATM    9  C   UNL     1      43.867 -15.072   5.599  1.00  0.00     0.037 A 
HETATM   10  C   UNL     1      43.385 -15.783   4.495  1.00  0.00     0.012 A 
BRANCH   8  11
HETATM   11  O   UNL     1      44.211 -14.765   7.879  1.00  0.00    -0.356 OA
HETATM   12  C   UNL     1      44.967 -13.637   7.450  1.00  0.00     0.210 C 
ENDBRANCH   8  11
ENDBRANCH   4   5
BRANCH   4  13
HETATM   13  C   UNL     1      43.080 -19.010   3.221  1.00  0.00    -0.023 A 
HETATM   14  C   UNL     1      42.869 -19.772   2.058  1.00  0.00     0.009 A 
HETATM   15  C   UNL     1      43.693 -20.859   1.759  1.00  0.00     0.001 A 
HETATM   16  C   UNL     1      44.735 -21.201   2.615  1.00  0.00     0.000 A 
HETATM   17  C   UNL     1      44.954 -20.461   3.774  1.00  0.00     0.001 A 
HETATM   18  C   UNL     1      44.134 -19.374   4.079  1.00  0.00     0.009 A 
ENDBRANCH   4  13
ENDBRANCH   1   4
BRANCH   1  19
HETATM   19  C   UNL     1      40.420 -16.682   2.049  1.00  0.00     0.336 C 
BRANCH  19  20
HETATM   20  C   UNL     1      40.120 -15.240   2.456  1.00  0.00     0.248 C 
HETATM   21  N   UNL     1      39.938 -15.049   3.810  1.00  0.00    -0.326 N 
HETATM   22  H   UNL     1      39.978 -15.851   4.431  1.00  0.00     0.169 HD
HETATM   23  O   UNL     1      40.193 -14.381   1.579  1.00  0.00    -0.271 OA
BRANCH  21  24
HETATM   24  C   UNL     1      39.824 -13.803   4.468  1.00  0.00     0.034 A 
HETATM   25  C   UNL     1      39.386 -12.635   3.852  1.00  0.00     0.032 A 
HETATM   26  C   UNL     1      39.367 -11.419   4.555  1.00  0.00     0.032 A 
HETATM   27  C   UNL     1      39.794 -11.331   5.883  1.00  0.00     0.037 A 
HETATM   28  C   UNL     1      40.191 -12.523   6.505  1.00  0.00     0.032 A 
HETATM   29  C   UNL     1      40.199 -13.743   5.812  1.00  0.00     0.032 A 
BRANCH  27  30
HETATM   30  N   UNL     1      39.846 -10.089   6.576  1.00  0.00    -0.318 N 
HETATM   31  C   UNL     1      39.261  -9.811   7.825  1.00  0.00     0.224 C 
HETATM   32  O   UNL     1      38.672 -10.562   8.586  1.00  0.00    -0.273 OA
HETATM   33  C   UNL     1      39.397  -8.329   8.081  1.00  0.00     0.105 C 
HETATM   34  C   UNL     1      40.493  -7.906   7.125  1.00  0.00     0.029 C 
HETATM   35  C   UNL     1      40.353  -8.878   5.973  1.00  0.00     0.133 C 
ENDBRANCH  27  30
ENDBRANCH  21  24
ENDBRANCH  19  20
ENDBRANCH   1  19
TORSDOF 8
ENDMDL
MODEL 5
REMARK VINA RESULT:      -7.8      2.084      9.084
REMARK  8 active torsions:
REMARK  status: ('A' for Active; 'I' for Inactive)
REMARK    1  A    between atoms: O_2  and  C_3 
REMARK    2  A    between atoms: C_6  and  C_7 
REMARK    3  A    between atoms: C_7  and  N_8 
REMARK    4  A    between atoms: C_7  and  C_27 
REMARK    5  A    between atoms: N_8  and  C_11 
REMARK    6  A    between atoms: C_11  and  C_12 
REMARK       I    between atoms: C_12  and  N_13 
REMARK    7  A    between atoms: N_13  and  C_14 
REMARK    8  A    between atoms: C_17  and  N_18 
ROOT
HETATM    1  N   UNL     1      39.806 -13.565   2.129  1.00  0.00    -0.055 N 
HETATM    2  H   UNL     1      39.405 -14.304   2.730  1.00  0.00     0.278 HD
HETATM    3  H   UNL     1      39.032 -12.978   1.815  1.00  0.00     0.278 HD
ENDROOT
BRANCH   1   4
HETATM    4  C   UNL     1      40.738 -12.781   3.016  1.00  0.00     0.252 C 
BRANCH   4   5
HETATM    5  C   UNL     1      41.422 -13.655   4.055  1.00  0.00    -0.023 A 
HETATM    6  C   UNL     1      42.825 -13.614   4.171  1.00  0.00     0.012 A 
HETATM    7  C   UNL     1      43.493 -14.350   5.156  1.00  0.00     0.037 A 
HETATM    8  C   UNL     1      42.773 -15.138   6.048  1.00  0.00     0.068 A 
HETATM    9  C   UNL     1      41.386 -15.211   5.925  1.00  0.00     0.037 A 
HETATM   10  C   UNL     1      40.712 -14.474   4.946  1.00  0.00     0.012 A 
BRANCH   8  11
HETATM   11  O   UNL     1      43.300 -15.882   7.064  1.00  0.00    -0.356 OA
HETATM   12  C   UNL     1      42.673 -17.135   7.323  1.00  0.00     0.210 C 
ENDBRANCH   8  11
ENDBRANCH   4   5
BRANCH   4  13
HETATM   13  C   UNL     1      40.080 -11.550   3.617  1.00  0.00    -0.023 A 
HETATM   14  C   UNL     1      40.876 -10.580   4.254  1.00  0.00     0.009 A 
HETATM   15  C   UNL     1      40.299  -9.434   4.803  1.00  0.00     0.001 A 
HETATM   16  C   UNL     1      38.923  -9.239   4.727  1.00  0.00     0.000 A 
HETATM   17  C   UNL     1      38.120 -10.191   4.105  1.00  0.00     0.001 A 
HETATM   18  C   UNL     1      38.690 -11.340   3.555  1.00  0.00     0.009 A 
ENDBRANCH   4  13
ENDBRANCH   1   4
BRANCH   1  19
HETATM   19  C   UNL     1      40.457 -14.268   0.957  1.00  0.00     0.336 C 
BRANCH  19  20
HETATM   20  C   UNL     1      40.845 -15.695   1.343  1.00  0.00     0.248 C 
HETATM   21  N   UNL     1      42.202 -15.913   1.460  1.00  0.00    -0.326 N 
HETATM   22  H   UNL     1      42.842 -15.152   1.256  1.00  0.00     0.169 HD
HETATM   23  O   UNL     1      39.933 -16.466   1.634  1.00  0.00    -0.271 OA
BRANCH  21  24
HETATM   24  C   UNL     1      42.818 -17.078   1.969  1.00  0.00     0.034 A 
HETATM   25  C   UNL     1      43.656 -17.904   1.227  1.00  0.00     0.032 A 
HETATM   26  C   UNL     1      44.174 -19.084   1.784  1.00  0.00     0.032 A 
HETATM   27  C   UNL     1      43.863 -19.480   3.089  1.00  0.00     0.037 A 
HETATM   28  C   UNL     1      43.054 -18.617   3.840  1.00  0.00     0.032 A 
HETATM   29  C   UNL     1      42.545 -17.429   3.293  1.00  0.00     0.032 A 
BRANCH  27  30
HETATM   30  N   UNL     1      44.326 -20.711   3.632  1.00  0.00    -0.318 N 
HETATM   31  C   UNL     1      44.397 -21.942   2.956  1.00  0.00     0.224 C 
HETATM   32  O   UNL     1      44.157 -22.196   1.785  1.00  0.00    -0.273 OA
HETATM   33  C   UNL     1      44.755 -23.007   3.965  1.00  0.00     0.105 C 
HETATM   34  C   UNL     1      45.328 -22.215   5.122  1.00  0.00     0.029 C 
HETATM   35  C   UNL     1      44.601 -20.890   5.040  1.00  0.00     0.133 C 
ENDBRANCH  27  30
ENDBRANCH  21  24
ENDBRANCH  19  20
ENDBRANCH   1  19
TORSDOF 8
ENDMDL
MODEL 6
REMARK VINA RESULT:      -7.6      2.265      4.358
REMARK  8 active torsions:
REMARK  status: ('A' for Active; 'I' for Inactive)
REMARK    1  A    between atoms: O_2  and  C_3 
REMARK    2  A    between atoms: C_6  and  C_7 
REMARK    3  A    between atoms: C_7  and  N_8 
REMARK    4  A    between atoms: C_7  and  C_27 
REMARK    5  A    between atoms: N_8  and  C_11 
REMARK    6  A    between atoms: C_11  and  C_12 
REMARK       I    between atoms: C_12  and  N_13 
REMARK    7  A    between atoms: N_13  and  C_14 
REMARK    8  A    between atoms: C_17  and  N_18 
ROOT
HETATM    1  N   UNL     1      42.826 -16.780   0.893  1.00  0.00    -0.055 N 
HETATM    2  H   UNL     1      43.233 -15.839   1.017  1.00  0.00     0.278 HD
HETATM    3  H   UNL     1      43.558 -17.376   0.502  1.00  0.00     0.278 HD
ENDROOT
BRANCH   1   4
HETATM    4  C   UNL     1      42.448 -17.247   2.274  1.00  0.00     0.252 C 
BRANCH   4   5
HETATM    5  C   UNL     1      42.493 -16.123   3.298  1.00  0.00    -0.023 A 
HETATM    6  C   UNL     1      43.381 -15.049   3.100  1.00  0.00     0.012 A 
HETATM    7  C   UNL     1      43.411 -13.961   3.980  1.00  0.00     0.037 A 
HETATM    8  C   UNL     1      42.550 -13.922   5.072  1.00  0.00     0.068 A 
HETATM    9  C   UNL     1      41.687 -14.994   5.296  1.00  0.00     0.037 A 
HETATM   10  C   UNL     1      41.649 -16.082   4.418  1.00  0.00     0.012 A 
BRANCH   8  11
HETATM   11  O   UNL     1      42.464 -12.912   5.987  1.00  0.00    -0.356 OA
HETATM   12  C   UNL     1      41.506 -11.893   5.719  1.00  0.00     0.210 C 
ENDBRANCH   8  11
ENDBRANCH   4   5
BRANCH   4  13
HETATM   13  C   UNL     1      43.224 -18.478   2.712  1.00  0.00    -0.023 A 
HETATM   14  C   UNL     1      43.256 -19.610   1.875  1.00  0.00     0.009 A 
HETATM   15  C   UNL     1      43.971 -20.750   2.246  1.00  0.00     0.001 A 
HETATM   16  C   UNL     1      44.662 -20.778   3.454  1.00  0.00     0.000 A 
HETATM   17  C   UNL     1      44.637 -19.670   4.296  1.00  0.00     0.001 A 
HETATM   18  C   UNL     1      43.922 -18.527   3.932  1.00  0.00     0.009 A 
ENDBRANCH   4  13
ENDBRANCH   1   4
BRANCH   1  19
HETATM   19  C   UNL     1      41.678 -16.629  -0.082  1.00  0.00     0.336 C 
BRANCH  19  20
HETATM   20  C   UNL     1      41.041 -15.248   0.058  1.00  0.00     0.248 C 
HETATM   21  N   UNL     1      39.923 -15.207   0.866  1.00  0.00    -0.326 N 
HETATM   22  H   UNL     1      39.580 -16.070   1.276  1.00  0.00     0.169 HD
HETATM   23  O   UNL     1      41.641 -14.298  -0.442  1.00  0.00    -0.271 OA
BRANCH  21  24
HETATM   24  C   UNL     1      39.253 -14.042   1.303  1.00  0.00     0.034 A 
HETATM   25  C   UNL     1      38.093 -13.545   0.718  1.00  0.00     0.032 A 
HETATM   26  C   UNL     1      37.525 -12.342   1.164  1.00  0.00     0.032 A 
HETATM   27  C   UNL     1      38.101 -11.594   2.195  1.00  0.00     0.037 A 
HETATM   28  C   UNL     1      39.245 -12.128   2.806  1.00  0.00     0.032 A 
HETATM   29  C   UNL     1      39.809 -13.338   2.373  1.00  0.00     0.032 A 
BRANCH  27  30
HETATM   30  N   UNL     1      37.571 -10.338   2.602  1.00  0.00    -0.318 N 
HETATM   31  C   UNL     1      37.627  -9.794   3.898  1.00  0.00     0.224 C 
HETATM   32  O   UNL     1      38.182 -10.229   4.895  1.00  0.00    -0.273 OA
HETATM   33  C   UNL     1      36.774  -8.548   3.916  1.00  0.00     0.105 C 
HETATM   34  C   UNL     1      36.636  -8.196   2.449  1.00  0.00     0.029 C 
HETATM   35  C   UNL     1      36.718  -9.537   1.753  1.00  0.00     0.133 C 
ENDBRANCH  27  30
ENDBRANCH  21  24
ENDBRANCH  19  20
ENDBRANCH   1  19
TORSDOF 8
ENDMDL
MODEL 7
REMARK VINA RESULT:      -7.6      3.718      5.898
REMARK  8 active torsions:
REMARK  status: ('A' for Active; 'I' for Inactive)
REMARK    1  A    between atoms: O_2  and  C_3 
REMARK    2  A    between atoms: C_6  and  C_7 
REMARK    3  A    between atoms: C_7  and  N_8 
REMARK    4  A    between atoms: C_7  and  C_27 
REMARK    5  A    between atoms: N_8  and  C_11 
REMARK    6  A    between atoms: C_11  and  C_12 
REMARK       I    between atoms: C_12  and  N_13 
REMARK    7  A    between atoms: N_13  and  C_14 
REMARK    8  A    between atoms: C_17  and  N_18 
ROOT
HETATM    1  N   UNL     1      41.604 -17.330   2.027  1.00  0.00    -0.055 N 
HETATM    2  H   UNL     1      42.268 -16.587   1.756  1.00  0.00     0.278 HD
HETATM    3  H   UNL     1      41.665 -18.063   1.319  1.00  0.00     0.278 HD
ENDROOT
BRANCH   1   4
HETATM    4  C   UNL     1      42.088 -17.841   3.359  1.00  0.00     0.252 C 
BRANCH   4   5
HETATM    5  C   UNL     1      42.594 -16.726   4.259  1.00  0.00    -0.023 A 
HETATM    6  C   UNL     1      43.211 -15.601   3.679  1.00  0.00     0.012 A 
HETATM    7  C   UNL     1      43.633 -14.520   4.462  1.00  0.00     0.037 A 
HETATM    8  C   UNL     1      43.442 -14.539   5.840  1.00  0.00     0.068 A 
HETATM    9  C   UNL     1      42.859 -15.660   6.430  1.00  0.00     0.037 A 
HETATM   10  C   UNL     1      42.430 -16.741   5.653  1.00  0.00     0.012 A 
BRANCH   8  11
HETATM   11  O   UNL     1      43.785 -13.544   6.709  1.00  0.00    -0.356 OA
HETATM   12  C   UNL     1      45.017 -13.708   7.405  1.00  0.00     0.210 C 
ENDBRANCH   8  11
ENDBRANCH   4   5
BRANCH   4  13
HETATM   13  C   UNL     1      43.077 -18.988   3.223  1.00  0.00    -0.023 A 
HETATM   14  C   UNL     1      43.969 -19.261   4.276  1.00  0.00     0.009 A 
HETATM   15  C   UNL     1      44.879 -20.316   4.184  1.00  0.00     0.001 A 
HETATM   16  C   UNL     1      44.912 -21.111   3.042  1.00  0.00     0.000 A 
HETATM   17  C   UNL     1      44.040 -20.852   1.988  1.00  0.00     0.001 A 
HETATM   18  C   UNL     1      43.129 -19.798   2.074  1.00  0.00     0.009 A 
ENDBRANCH   4  13
ENDBRANCH   1   4
BRANCH   1  19
HETATM   19  C   UNL     1      40.228 -16.699   2.031  1.00  0.00     0.336 C 
BRANCH  19  20
HETATM   20  C   UNL     1      40.220 -15.439   1.167  1.00  0.00     0.248 C 
HETATM   21  N   UNL     1      41.211 -15.391   0.208  1.00  0.00    -0.326 N 
HETATM   22  H   UNL     1      41.884 -16.148   0.158  1.00  0.00     0.169 HD
HETATM   23  O   UNL     1      39.277 -14.663   1.313  1.00  0.00    -0.271 OA
BRANCH  21  24
HETATM   24  C   UNL     1      41.323 -14.434  -0.826  1.00  0.00     0.034 A 
HETATM   25  C   UNL     1      41.876 -13.169  -0.661  1.00  0.00     0.032 A 
HETATM   26  C   UNL     1      41.887 -12.249  -1.721  1.00  0.00     0.032 A 
HETATM   27  C   UNL     1      41.339 -12.558  -2.970  1.00  0.00     0.037 A 
HETATM   28  C   UNL     1      40.825 -13.851  -3.137  1.00  0.00     0.032 A 
HETATM   29  C   UNL     1      40.823 -14.780  -2.084  1.00  0.00     0.032 A 
BRANCH  27  30
HETATM   30  N   UNL     1      41.282 -11.604  -4.024  1.00  0.00    -0.318 N 
HETATM   31  C   UNL     1      40.114 -11.047  -4.577  1.00  0.00     0.224 C 
HETATM   32  O   UNL     1      38.951 -11.197  -4.237  1.00  0.00    -0.273 OA
HETATM   33  C   UNL     1      40.513 -10.242  -5.790  1.00  0.00     0.105 C 
HETATM   34  C   UNL     1      41.997 -10.014  -5.588  1.00  0.00     0.029 C 
HETATM   35  C   UNL     1      42.439 -11.231  -4.805  1.00  0.00     0.133 C 
ENDBRANCH  27  30
ENDBRANCH  21  24
ENDBRANCH  19  20
ENDBRANCH   1  19
TORSDOF 8
ENDMDL
MODEL 8
REMARK VINA RESULT:      -7.5      3.581      9.408
REMARK  8 active torsions:
REMARK  status: ('A' for Active; 'I' for Inactive)
REMARK    1  A    between atoms: O_2  and  C_3 
REMARK    2  A    between atoms: C_6  and  C_7 
REMARK    3  A    between atoms: C_7  and  N_8 
REMARK    4  A    between atoms: C_7  and  C_27 
REMARK    5  A    between atoms: N_8  and  C_11 
REMARK    6  A    between atoms: C_11  and  C_12 
REMARK       I    between atoms: C_12  and  N_13 
REMARK    7  A    between atoms: N_13  and  C_14 
REMARK    8  A    between atoms: C_17  and  N_18 
ROOT
HETATM    1  N   UNL     1      41.769 -13.332   0.261  1.00  0.00    -0.055 N 
HETATM    2  H   UNL     1      41.259 -14.225   0.357  1.00  0.00     0.278 HD
HETATM    3  H   UNL     1      42.592 -13.514  -0.315  1.00  0.00     0.278 HD
ENDROOT
BRANCH   1   4
HETATM    4  C   UNL     1      40.823 -12.398  -0.448  1.00  0.00     0.252 C 
BRANCH   4   5
HETATM    5  C   UNL     1      39.971 -13.113  -1.485  1.00  0.00    -0.023 A 
HETATM    6  C   UNL     1      40.409 -14.347  -2.001  1.00  0.00     0.012 A 
HETATM    7  C   UNL     1      39.627 -15.073  -2.907  1.00  0.00     0.037 A 
HETATM    8  C   UNL     1      38.389 -14.582  -3.311  1.00  0.00     0.068 A 
HETATM    9  C   UNL     1      37.958 -13.346  -2.831  1.00  0.00     0.037 A 
HETATM   10  C   UNL     1      38.732 -12.618  -1.921  1.00  0.00     0.012 A 
BRANCH   8  11
HETATM   11  O   UNL     1      37.524 -15.200  -4.168  1.00  0.00    -0.356 OA
HETATM   12  C   UNL     1      36.383 -14.448  -4.568  1.00  0.00     0.210 C 
ENDBRANCH   8  11
ENDBRANCH   4   5
BRANCH   4  13
HETATM   13  C   UNL     1      41.520 -11.166  -1.001  1.00  0.00    -0.023 A 
HETATM   14  C   UNL     1      42.326 -11.282  -2.148  1.00  0.00     0.009 A 
HETATM   15  C   UNL     1      42.967 -10.164  -2.684  1.00  0.00     0.001 A 
HETATM   16  C   UNL     1      42.814  -8.917  -2.085  1.00  0.00     0.000 A 
HETATM   17  C   UNL     1      42.025  -8.785  -0.946  1.00  0.00     0.001 A 
HETATM   18  C   UNL     1      41.382  -9.899  -0.404  1.00  0.00     0.009 A 
ENDBRANCH   4  13
ENDBRANCH   1   4
BRANCH   1  19
HETATM   19  C   UNL     1      42.173 -12.914   1.659  1.00  0.00     0.336 C 
BRANCH  19  20
HETATM   20  C   UNL     1      42.827 -14.083   2.394  1.00  0.00     0.248 C 
HETATM   21  N   UNL     1      42.397 -15.331   1.991  1.00  0.00    -0.326 N 
HETATM   22  H   UNL     1      41.674 -15.398   1.283  1.00  0.00     0.169 HD
HETATM   23  O   UNL     1      43.747 -13.819   3.166  1.00  0.00    -0.271 OA
BRANCH  21  24
HETATM   24  C   UNL     1      42.958 -16.570   2.377  1.00  0.00     0.034 A 
HETATM   25  C   UNL     1      43.712 -17.380   1.534  1.00  0.00     0.032 A 
HETATM   26  C   UNL     1      44.176 -18.631   1.970  1.00  0.00     0.032 A 
HETATM   27  C   UNL     1      43.894 -19.114   3.251  1.00  0.00     0.037 A 
HETATM   28  C   UNL     1      43.173 -18.269   4.106  1.00  0.00     0.032 A 
HETATM   29  C   UNL     1      42.717 -17.012   3.679  1.00  0.00     0.032 A 
BRANCH  27  30
HETATM   30  N   UNL     1      44.299 -20.411   3.673  1.00  0.00    -0.318 N 
HETATM   31  C   UNL     1      44.323 -21.572   2.879  1.00  0.00     0.224 C 
HETATM   32  O   UNL     1      44.083 -21.699   1.688  1.00  0.00    -0.273 OA
HETATM   33  C   UNL     1      44.628 -22.745   3.780  1.00  0.00     0.105 C 
HETATM   34  C   UNL     1      45.225 -22.096   5.011  1.00  0.00     0.029 C 
HETATM   35  C   UNL     1      44.556 -20.739   5.057  1.00  0.00     0.133 C 
ENDBRANCH  27  30
ENDBRANCH  21  24
ENDBRANCH  19  20
ENDBRANCH   1  19
TORSDOF 8
ENDMDL
MODEL 9
REMARK VINA RESULT:      -7.5      4.041      9.394
REMARK  8 active torsions:
REMARK  status: ('A' for Active; 'I' for Inactive)
REMARK    1  A    between atoms: O_2  and  C_3 
REMARK    2  A    between atoms: C_6  and  C_7 
REMARK    3  A    between atoms: C_7  and  N_8 
REMARK    4  A    between atoms: C_7  and  C_27 
REMARK    5  A    between atoms: N_8  and  C_11 
REMARK    6  A    between atoms: C_11  and  C_12 
REMARK       I    between atoms: C_12  and  N_13 
REMARK    7  A    between atoms: N_13  and  C_14 
REMARK    8  A    between atoms: C_17  and  N_18 
ROOT
HETATM    1  N   UNL     1      39.286 -15.127  -2.464  1.00  0.00    -0.055 N 
HETATM    2  H   UNL     1      38.917 -15.494  -1.572  1.00  0.00     0.278 HD
HETATM    3  H   UNL     1      38.865 -15.677  -3.214  1.00  0.00     0.278 HD
ENDROOT
BRANCH   1   4
HETATM    4  C   UNL     1      38.825 -13.695  -2.536  1.00  0.00     0.252 C 
BRANCH   4   5
HETATM    5  C   UNL     1      38.637 -13.076  -1.161  1.00  0.00    -0.023 A 
HETATM    6  C   UNL     1      37.813 -13.725  -0.222  1.00  0.00     0.012 A 
HETATM    7  C   UNL     1      37.662 -13.228   1.078  1.00  0.00     0.037 A 
HETATM    8  C   UNL     1      38.337 -12.075   1.467  1.00  0.00     0.068 A 
HETATM    9  C   UNL     1      39.132 -11.406   0.538  1.00  0.00     0.037 A 
HETATM   10  C   UNL     1      39.291 -11.900  -0.761  1.00  0.00     0.012 A 
BRANCH   8  11
HETATM   11  O   UNL     1      38.293 -11.503   2.706  1.00  0.00    -0.356 OA
HETATM   12  C   UNL     1      37.703 -10.209   2.786  1.00  0.00     0.210 C 
ENDBRANCH   8  11
ENDBRANCH   4   5
BRANCH   4  13
HETATM   13  C   UNL     1      37.616 -13.512  -3.439  1.00  0.00    -0.023 A 
HETATM   14  C   UNL     1      37.210 -12.213  -3.798  1.00  0.00     0.009 A 
HETATM   15  C   UNL     1      36.111 -12.016  -4.636  1.00  0.00     0.001 A 
HETATM   16  C   UNL     1      35.402 -13.109  -5.126  1.00  0.00     0.000 A 
HETATM   17  C   UNL     1      35.786 -14.401  -4.777  1.00  0.00     0.001 A 
HETATM   18  C   UNL     1      36.884 -14.604  -3.938  1.00  0.00     0.009 A 
ENDBRANCH   4  13
ENDBRANCH   1   4
BRANCH   1  19
HETATM   19  C   UNL     1      40.786 -15.329  -2.426  1.00  0.00     0.336 C 
BRANCH  19  20
HETATM   20  C   UNL     1      41.277 -15.387  -0.981  1.00  0.00     0.248 C 
HETATM   21  N   UNL     1      41.226 -16.639  -0.403  1.00  0.00    -0.326 N 
HETATM   22  H   UNL     1      40.847 -17.413  -0.939  1.00  0.00     0.169 HD
HETATM   23  O   UNL     1      41.781 -14.366  -0.516  1.00  0.00    -0.271 OA
BRANCH  21  24
HETATM   24  C   UNL     1      41.776 -17.002   0.847  1.00  0.00     0.034 A 
HETATM   25  C   UNL     1      41.051 -17.050   2.033  1.00  0.00     0.032 A 
HETATM   26  C   UNL     1      41.685 -17.353   3.248  1.00  0.00     0.032 A 
HETATM   27  C   UNL     1      43.058 -17.605   3.318  1.00  0.00     0.037 A 
HETATM   28  C   UNL     1      43.769 -17.598   2.110  1.00  0.00     0.032 A 
HETATM   29  C   UNL     1      43.138 -17.309   0.891  1.00  0.00     0.032 A 
BRANCH  27  30
HETATM   30  N   UNL     1      43.718 -17.840   4.557  1.00  0.00    -0.318 N 
HETATM   31  C   UNL     1      44.323 -19.044   4.959  1.00  0.00     0.224 C 
HETATM   32  O   UNL     1      44.472 -20.081   4.332  1.00  0.00    -0.273 OA
HETATM   33  C   UNL     1      44.721 -18.902   6.409  1.00  0.00     0.105 C 
HETATM   34  C   UNL     1      44.721 -17.403   6.628  1.00  0.00     0.029 C 
HETATM   35  C   UNL     1      43.674 -16.903   5.657  1.00  0.00     0.133 C 
ENDBRANCH  27  30
ENDBRANCH  21  24
ENDBRANCH  19  20
ENDBRANCH   1  19
TORSDOF 8
ENDMDL
MODEL 10
REMARK VINA RESULT:      -7.4      3.391      9.098
REMARK  8 active torsions:
REMARK  status: ('A' for Active; 'I' for Inactive)
REMARK    1  A    between atoms: O_2  and  C_3 
REMARK    2  A    between atoms: C_6  and  C_7 
REMARK    3  A    between atoms: C_7  and  N_8 
REMARK    4  A    between atoms: C_7  and  C_27 
REMARK    5  A    between atoms: N_8  and  C_11 
REMARK    6  A    between atoms: C_11  and  C_12 
REMARK       I    between atoms: C_12  and  N_13 
REMARK    7  A    between atoms: N_13  and  C_14 
REMARK    8  A    between atoms: C_17  and  N_18 
ROOT
HETATM    1  N   UNL     1      40.050 -13.571   0.553  1.00  0.00    -0.055 N 
HETATM    2  H   UNL     1      39.319 -13.352   1.249  1.00  0.00     0.278 HD
HETATM    3  H   UNL     1      40.123 -14.588   0.501  1.00  0.00     0.278 HD
ENDROOT
BRANCH   1   4
HETATM    4  C   UNL     1      39.548 -13.010  -0.752  1.00  0.00     0.252 C 
BRANCH   4   5
HETATM    5  C   UNL     1      38.261 -12.218  -0.587  1.00  0.00    -0.023 A 
HETATM    6  C   UNL     1      37.970 -11.184  -1.497  1.00  0.00     0.012 A 
HETATM    7  C   UNL     1      36.767 -10.472  -1.424  1.00  0.00     0.037 A 
HETATM    8  C   UNL     1      35.829 -10.782  -0.445  1.00  0.00     0.068 A 
HETATM    9  C   UNL     1      36.119 -11.784   0.482  1.00  0.00     0.037 A 
HETATM   10  C   UNL     1      37.317 -12.503   0.411  1.00  0.00     0.012 A 
BRANCH   8  11
HETATM   11  O   UNL     1      34.614 -10.182  -0.281  1.00  0.00    -0.356 OA
HETATM   12  C   UNL     1      34.035 -10.266   1.018  1.00  0.00     0.210 C 
ENDBRANCH   8  11
ENDBRANCH   4   5
BRANCH   4  13
HETATM   13  C   UNL     1      39.462 -14.060  -1.848  1.00  0.00    -0.023 A 
HETATM   14  C   UNL     1      40.588 -14.853  -2.138  1.00  0.00     0.009 A 
HETATM   15  C   UNL     1      40.533 -15.833  -3.131  1.00  0.00     0.001 A 
HETATM   16  C   UNL     1      39.357 -16.035  -3.847  1.00  0.00     0.000 A 
HETATM   17  C   UNL     1      38.235 -15.256  -3.577  1.00  0.00     0.001 A 
HETATM   18  C   UNL     1      38.284 -14.274  -2.587  1.00  0.00     0.009 A 
ENDBRANCH   4  13
ENDBRANCH   1   4
BRANCH   1  19
HETATM   19  C   UNL     1      41.336 -12.966   1.072  1.00  0.00     0.336 C 
BRANCH  19  20
HETATM   20  C   UNL     1      42.142 -14.012   1.840  1.00  0.00     0.248 C 
HETATM   21  N   UNL     1      41.735 -15.315   1.641  1.00  0.00    -0.326 N 
HETATM   22  H   UNL     1      40.932 -15.495   1.047  1.00  0.00     0.169 HD
HETATM   23  O   UNL     1      43.137 -13.621   2.449  1.00  0.00    -0.271 OA
BRANCH  21  24
HETATM   24  C   UNL     1      42.408 -16.476   2.086  1.00  0.00     0.034 A 
HETATM   25  C   UNL     1      43.488 -17.052   1.424  1.00  0.00     0.032 A 
HETATM   26  C   UNL     1      44.059 -18.246   1.891  1.00  0.00     0.032 A 
HETATM   27  C   UNL     1      43.565 -18.905   3.021  1.00  0.00     0.037 A 
HETATM   28  C   UNL     1      42.506 -18.291   3.704  1.00  0.00     0.032 A 
HETATM   29  C   UNL     1      41.940 -17.090   3.249  1.00  0.00     0.032 A 
BRANCH  27  30
HETATM   30  N   UNL     1      44.093 -20.153   3.456  1.00  0.00    -0.318 N 
HETATM   31  C   UNL     1      44.639 -20.427   4.722  1.00  0.00     0.224 C 
HETATM   32  O   UNL     1      44.709 -19.706   5.706  1.00  0.00    -0.273 OA
HETATM   33  C   UNL     1      45.250 -21.807   4.676  1.00  0.00     0.105 C 
HETATM   34  C   UNL     1      44.594 -22.441   3.467  1.00  0.00     0.029 C 
HETATM   35  C   UNL     1      44.314 -21.264   2.558  1.00  0.00     0.133 C 
ENDBRANCH  27  30
ENDBRANCH  21  24
ENDBRANCH  19  20
ENDBRANCH   1  19
TORSDOF 8
ENDMDL
