MODEL 1
REMARK VINA RESULT:      -8.6      0.000      0.000
REMARK  2 active torsions:
REMARK  status: ('A' for Active; 'I' for Inactive)
REMARK    1  A    between atoms: C_5  and  O_6 
REMARK    2  A    between atoms: C_5  and  C_7 
ROOT
HETATM    1  C   UNL     1      39.482 -14.316   2.498  1.00  0.00     0.050 C 
HETATM    2  C   UNL     1      40.855 -14.471   3.075  1.00  0.00    -0.035 A 
HETATM    3  C   UNL     1      41.138 -15.241   4.192  1.00  0.00     0.051 A 
HETATM    4  C   UNL     1      42.437 -15.380   4.704  1.00  0.00     0.018 A 
HETATM    5  C   UNL     1      42.406 -16.251   5.934  1.00  0.00     0.199 A 
HETATM    6  C   UNL     1      40.879 -16.571   6.048  1.00  0.00     0.266 A 
HETATM    7  O   UNL     1      40.316 -17.172   6.952  1.00  0.00    -0.269 OA
HETATM    8  N   UNL     1      40.241 -15.961   4.973  1.00  0.00    -0.323 N 
HETATM    9  C   UNL     1      43.503 -14.719   4.109  1.00  0.00     0.013 A 
HETATM   10  C   UNL     1      43.248 -13.949   2.973  1.00  0.00     0.001 A 
HETATM   11  C   UNL     1      41.943 -13.830   2.461  1.00  0.00     0.009 A 
HETATM   12  H   UNL     1      39.242 -16.000   4.848  1.00  0.00     0.169 HD
ENDROOT
BRANCH   5  13
HETATM   13  O   UNL     1      42.853 -15.459   7.031  1.00  0.00    -0.371 OA
HETATM   14  H   UNL     1      43.348 -16.076   7.596  1.00  0.00     0.212 HD
ENDBRANCH   5  13
BRANCH   5  15
HETATM   15  C   UNL     1      43.223 -17.516   5.732  1.00  0.00     0.025 A 
HETATM   16  C   UNL     1      43.462 -18.278   4.518  1.00  0.00     0.003 A 
HETATM   17  C   UNL     1      44.268 -19.369   4.851  1.00  0.00     0.043 A 
HETATM   18  C   UNL     1      43.079 -18.160   3.160  1.00  0.00     0.014 A 
HETATM   19  C   UNL     1      44.717 -20.314   3.920  1.00  0.00     0.030 A 
HETATM   20  N   UNL     1      44.491 -19.311   6.200  1.00  0.00    -0.359 N 
HETATM   21  C   UNL     1      44.334 -20.153   2.588  1.00  0.00     0.002 A 
HETATM   22  C   UNL     1      43.524 -19.091   2.211  1.00  0.00     0.001 A 
HETATM   23  H   UNL     1      45.030 -19.994   6.715  1.00  0.00     0.166 HD
HETATM   24  C   UNL     1      43.851 -18.235   6.755  1.00  0.00     0.016 A 
HETATM   25  C   UNL     1      43.901 -18.020   8.227  1.00  0.00     0.069 C 
ENDBRANCH   5  15
TORSDOF 2
ENDMDL
MODEL 2
REMARK VINA RESULT:      -8.4      2.315      4.221
REMARK  2 active torsions:
REMARK  status: ('A' for Active; 'I' for Inactive)
REMARK    1  A    between atoms: C_5  and  O_6 
REMARK    2  A    between atoms: C_5  and  C_7 
ROOT
HETATM    1  C   UNL     1      45.052 -14.026   6.989  1.00  0.00     0.050 C 
HETATM    2  C   UNL     1      44.075 -15.135   6.753  1.00  0.00    -0.035 A 
HETATM    3  C   UNL     1      43.457 -15.370   5.534  1.00  0.00     0.051 A 
HETATM    4  C   UNL     1      42.555 -16.426   5.337  1.00  0.00     0.018 A 
HETATM    5  C   UNL     1      42.037 -16.392   3.921  1.00  0.00     0.199 A 
HETATM    6  C   UNL     1      42.778 -15.137   3.351  1.00  0.00     0.266 A 
HETATM    7  O   UNL     1      42.618 -14.621   2.254  1.00  0.00    -0.269 OA
HETATM    8  N   UNL     1      43.596 -14.639   4.360  1.00  0.00    -0.323 N 
HETATM    9  C   UNL     1      42.227 -17.278   6.382  1.00  0.00     0.013 A 
HETATM   10  C   UNL     1      42.846 -17.073   7.617  1.00  0.00     0.001 A 
HETATM   11  C   UNL     1      43.761 -16.019   7.798  1.00  0.00     0.009 A 
HETATM   12  H   UNL     1      44.153 -13.808   4.239  1.00  0.00     0.169 HD
ENDROOT
BRANCH   5  13
HETATM   13  O   UNL     1      40.629 -16.179   3.985  1.00  0.00    -0.371 OA
HETATM   14  H   UNL     1      40.531 -15.307   4.403  1.00  0.00     0.212 HD
ENDBRANCH   5  13
BRANCH   5  15
HETATM   15  C   UNL     1      42.422 -17.652   3.164  1.00  0.00     0.025 A 
HETATM   16  C   UNL     1      43.395 -18.676   3.508  1.00  0.00     0.003 A 
HETATM   17  C   UNL     1      43.392 -19.627   2.485  1.00  0.00     0.043 A 
HETATM   18  C   UNL     1      44.287 -18.901   4.584  1.00  0.00     0.014 A 
HETATM   19  C   UNL     1      44.197 -20.773   2.490  1.00  0.00     0.030 A 
HETATM   20  N   UNL     1      42.494 -19.204   1.542  1.00  0.00    -0.359 N 
HETATM   21  C   UNL     1      45.049 -20.969   3.577  1.00  0.00     0.002 A 
HETATM   22  C   UNL     1      45.096 -20.045   4.612  1.00  0.00     0.001 A 
HETATM   23  H   UNL     1      42.306 -19.697   0.679  1.00  0.00     0.166 HD
HETATM   24  C   UNL     1      41.927 -18.013   1.906  1.00  0.00     0.016 A 
HETATM   25  C   UNL     1      40.971 -17.335   0.989  1.00  0.00     0.069 C 
ENDBRANCH   5  15
TORSDOF 2
ENDMDL
MODEL 3
REMARK VINA RESULT:      -8.1      2.324      3.317
REMARK  2 active torsions:
REMARK  status: ('A' for Active; 'I' for Inactive)
REMARK    1  A    between atoms: C_5  and  O_6 
REMARK    2  A    between atoms: C_5  and  C_7 
ROOT
HETATM    1  C   UNL     1      42.477 -12.873   4.912  1.00  0.00     0.050 C 
HETATM    2  C   UNL     1      41.996 -14.291   4.903  1.00  0.00    -0.035 A 
HETATM    3  C   UNL     1      42.498 -15.268   4.058  1.00  0.00     0.051 A 
HETATM    4  C   UNL     1      42.038 -16.594   4.080  1.00  0.00     0.018 A 
HETATM    5  C   UNL     1      42.757 -17.397   3.026  1.00  0.00     0.199 A 
HETATM    6  C   UNL     1      43.687 -16.311   2.391  1.00  0.00     0.266 A 
HETATM    7  O   UNL     1      44.409 -16.439   1.412  1.00  0.00    -0.269 OA
HETATM    8  N   UNL     1      43.478 -15.122   3.082  1.00  0.00    -0.323 N 
HETATM    9  C   UNL     1      41.029 -16.975   4.953  1.00  0.00     0.013 A 
HETATM   10  C   UNL     1      40.515 -16.013   5.826  1.00  0.00     0.001 A 
HETATM   11  C   UNL     1      40.996 -14.691   5.804  1.00  0.00     0.009 A 
HETATM   12  H   UNL     1      43.946 -14.265   2.833  1.00  0.00     0.169 HD
ENDROOT
BRANCH   5  13
HETATM   13  O   UNL     1      41.780 -17.852   2.094  1.00  0.00    -0.371 OA
HETATM   14  H   UNL     1      41.546 -17.063   1.577  1.00  0.00     0.212 HD
ENDBRANCH   5  13
BRANCH   5  15
HETATM   15  C   UNL     1      43.566 -18.522   3.649  1.00  0.00     0.025 A 
HETATM   16  C   UNL     1      43.804 -19.871   3.160  1.00  0.00     0.003 A 
HETATM   17  C   UNL     1      44.601 -20.529   4.098  1.00  0.00     0.043 A 
HETATM   18  C   UNL     1      43.426 -20.611   2.014  1.00  0.00     0.014 A 
HETATM   19  C   UNL     1      45.047 -21.848   3.947  1.00  0.00     0.030 A 
HETATM   20  N   UNL     1      44.820 -19.655   5.129  1.00  0.00    -0.359 N 
HETATM   21  C   UNL     1      44.670 -22.538   2.795  1.00  0.00     0.002 A 
HETATM   22  C   UNL     1      43.868 -21.929   1.840  1.00  0.00     0.001 A 
HETATM   23  H   UNL     1      45.353 -19.880   5.958  1.00  0.00     0.166 HD
HETATM   24  C   UNL     1      44.185 -18.464   4.902  1.00  0.00     0.016 A 
HETATM   25  C   UNL     1      44.232 -17.390   5.932  1.00  0.00     0.069 C 
ENDBRANCH   5  15
TORSDOF 2
ENDMDL
MODEL 4
REMARK VINA RESULT:      -7.9      2.065      2.442
REMARK  2 active torsions:
REMARK  status: ('A' for Active; 'I' for Inactive)
REMARK    1  A    between atoms: C_5  and  O_6 
REMARK    2  A    between atoms: C_5  and  C_7 
ROOT
HETATM    1  C   UNL     1      41.813 -12.476   5.818  1.00  0.00     0.050 C 
HETATM    2  C   UNL     1      42.771 -13.562   6.196  1.00  0.00    -0.035 A 
HETATM    3  C   UNL     1      42.418 -14.898   6.301  1.00  0.00     0.051 A 
HETATM    4  C   UNL     1      43.340 -15.898   6.644  1.00  0.00     0.018 A 
HETATM    5  C   UNL     1      42.642 -17.233   6.705  1.00  0.00     0.199 A 
HETATM    6  C   UNL     1      41.171 -16.827   6.358  1.00  0.00     0.266 A 
HETATM    7  O   UNL     1      40.183 -17.549   6.376  1.00  0.00    -0.269 OA
HETATM    8  N   UNL     1      41.159 -15.458   6.114  1.00  0.00    -0.323 N 
HETATM    9  C   UNL     1      44.663 -15.574   6.916  1.00  0.00     0.013 A 
HETATM   10  C   UNL     1      45.049 -14.237   6.802  1.00  0.00     0.001 A 
HETATM   11  C   UNL     1      44.117 -13.246   6.443  1.00  0.00     0.009 A 
HETATM   12  H   UNL     1      40.312 -14.957   5.899  1.00  0.00     0.169 HD
ENDROOT
BRANCH   5  13
HETATM   13  O   UNL     1      42.746 -17.710   8.044  1.00  0.00    -0.371 OA
HETATM   14  H   UNL     1      42.841 -18.673   7.956  1.00  0.00     0.212 HD
ENDBRANCH   5  13
BRANCH   5  15
HETATM   15  C   UNL     1      43.208 -18.197   5.676  1.00  0.00     0.025 A 
HETATM   16  C   UNL     1      43.350 -18.036   4.238  1.00  0.00     0.003 A 
HETATM   17  C   UNL     1      43.914 -19.208   3.733  1.00  0.00     0.043 A 
HETATM   18  C   UNL     1      43.059 -17.014   3.303  1.00  0.00     0.014 A 
HETATM   19  C   UNL     1      44.214 -19.403   2.378  1.00  0.00     0.030 A 
HETATM   20  N   UNL     1      44.083 -20.065   4.787  1.00  0.00    -0.359 N 
HETATM   21  C   UNL     1      43.930 -18.365   1.490  1.00  0.00     0.002 A 
HETATM   22  C   UNL     1      43.358 -17.185   1.944  1.00  0.00     0.001 A 
HETATM   23  H   UNL     1      44.457 -21.001   4.702  1.00  0.00     0.166 HD
HETATM   24  C   UNL     1      43.638 -19.500   5.951  1.00  0.00     0.016 A 
HETATM   25  C   UNL     1      43.662 -20.286   7.215  1.00  0.00     0.069 C 
ENDBRANCH   5  15
TORSDOF 2
ENDMDL
MODEL 5
REMARK VINA RESULT:      -7.8      3.609      6.562
REMARK  2 active torsions:
REMARK  status: ('A' for Active; 'I' for Inactive)
REMARK    1  A    between atoms: C_5  and  O_6 
REMARK    2  A    between atoms: C_5  and  C_7 
ROOT
HETATM    1  C   UNL     1      41.727 -18.139   4.966  1.00  0.00     0.050 C 
HETATM    2  C   UNL     1      42.237 -17.677   3.637  1.00  0.00    -0.035 A 
HETATM    3  C   UNL     1      41.523 -16.852   2.782  1.00  0.00     0.051 A 
HETATM    4  C   UNL     1      42.031 -16.423   1.547  1.00  0.00     0.018 A 
HETATM    5  C   UNL     1      41.006 -15.568   0.846  1.00  0.00     0.199 A 
HETATM    6  C   UNL     1      39.827 -15.595   1.875  1.00  0.00     0.266 A 
HETATM    7  O   UNL     1      38.708 -15.125   1.726  1.00  0.00    -0.269 OA
HETATM    8  N   UNL     1      40.243 -16.342   2.971  1.00  0.00    -0.323 N 
HETATM    9  C   UNL     1      43.286 -16.836   1.120  1.00  0.00     0.013 A 
HETATM   10  C   UNL     1      44.034 -17.655   1.968  1.00  0.00     0.001 A 
HETATM   11  C   UNL     1      43.518 -18.066   3.211  1.00  0.00     0.009 A 
HETATM   12  H   UNL     1      39.640 -16.527   3.757  1.00  0.00     0.169 HD
ENDROOT
BRANCH   5  13
HETATM   13  O   UNL     1      40.653 -16.230  -0.365  1.00  0.00    -0.371 OA
HETATM   14  H   UNL     1      39.742 -16.538  -0.221  1.00  0.00     0.212 HD
ENDBRANCH   5  13
BRANCH   5  15
HETATM   15  C   UNL     1      41.522 -14.155   0.632  1.00  0.00     0.025 A 
HETATM   16  C   UNL     1      41.791 -13.447  -0.609  1.00  0.00     0.003 A 
HETATM   17  C   UNL     1      42.264 -12.175  -0.279  1.00  0.00     0.043 A 
HETATM   18  C   UNL     1      41.684 -13.749  -1.988  1.00  0.00     0.014 A 
HETATM   19  C   UNL     1      42.609 -11.206  -1.229  1.00  0.00     0.030 A 
HETATM   20  N   UNL     1      42.320 -12.105   1.087  1.00  0.00    -0.359 N 
HETATM   21  C   UNL     1      42.472 -11.534  -2.578  1.00  0.00     0.002 A 
HETATM   22  C   UNL     1      42.017 -12.791  -2.955  1.00  0.00     0.001 A 
HETATM   23  H   UNL     1      42.649 -11.298   1.599  1.00  0.00     0.166 HD
HETATM   24  C   UNL     1      41.916 -13.284   1.654  1.00  0.00     0.016 A 
HETATM   25  C   UNL     1      41.965 -13.452   3.132  1.00  0.00     0.069 C 
ENDBRANCH   5  15
TORSDOF 2
ENDMDL
MODEL 6
REMARK VINA RESULT:      -7.8      1.789      2.718
REMARK  2 active torsions:
REMARK  status: ('A' for Active; 'I' for Inactive)
REMARK    1  A    between atoms: C_5  and  O_6 
REMARK    2  A    between atoms: C_5  and  C_7 
ROOT
HETATM    1  C   UNL     1      38.997 -12.345   5.347  1.00  0.00     0.050 C 
HETATM    2  C   UNL     1      40.312 -12.936   4.942  1.00  0.00    -0.035 A 
HETATM    3  C   UNL     1      40.672 -14.252   5.189  1.00  0.00     0.051 A 
HETATM    4  C   UNL     1      41.906 -14.784   4.786  1.00  0.00     0.018 A 
HETATM    5  C   UNL     1      42.007 -16.222   5.229  1.00  0.00     0.199 A 
HETATM    6  C   UNL     1      40.638 -16.415   5.962  1.00  0.00     0.266 A 
HETATM    7  O   UNL     1      40.272 -17.397   6.594  1.00  0.00    -0.269 OA
HETATM    8  N   UNL     1      39.932 -15.222   5.855  1.00  0.00    -0.323 N 
HETATM    9  C   UNL     1      42.837 -13.990   4.130  1.00  0.00     0.013 A 
HETATM   10  C   UNL     1      42.493 -12.665   3.855  1.00  0.00     0.001 A 
HETATM   11  C   UNL     1      41.246 -12.147   4.252  1.00  0.00     0.009 A 
HETATM   12  H   UNL     1      39.027 -15.092   6.280  1.00  0.00     0.169 HD
ENDROOT
BRANCH   5  13
HETATM   13  O   UNL     1      43.100 -16.315   6.138  1.00  0.00    -0.371 OA
HETATM   14  H   UNL     1      43.838 -16.653   5.603  1.00  0.00     0.212 HD
ENDBRANCH   5  13
BRANCH   5  15
HETATM   15  C   UNL     1      42.133 -17.156   4.037  1.00  0.00     0.025 A 
HETATM   16  C   UNL     1      43.034 -18.279   3.833  1.00  0.00     0.003 A 
HETATM   17  C   UNL     1      42.770 -18.813   2.571  1.00  0.00     0.043 A 
HETATM   18  C   UNL     1      44.055 -18.905   4.589  1.00  0.00     0.014 A 
HETATM   19  C   UNL     1      43.440 -19.924   2.043  1.00  0.00     0.030 A 
HETATM   20  N   UNL     1      41.785 -18.049   2.005  1.00  0.00    -0.359 N 
HETATM   21  C   UNL     1      44.426 -20.526   2.826  1.00  0.00     0.002 A 
HETATM   22  C   UNL     1      44.732 -20.022   4.083  1.00  0.00     0.001 A 
HETATM   23  H   UNL     1      41.413 -18.201   1.077  1.00  0.00     0.166 HD
HETATM   24  C   UNL     1      41.412 -17.034   2.844  1.00  0.00     0.016 A 
HETATM   25  C   UNL     1      40.401 -16.036   2.399  1.00  0.00     0.069 C 
ENDBRANCH   5  15
TORSDOF 2
ENDMDL
MODEL 7
REMARK VINA RESULT:      -7.6      1.631      5.216
REMARK  2 active torsions:
REMARK  status: ('A' for Active; 'I' for Inactive)
REMARK    1  A    between atoms: C_5  and  O_6 
REMARK    2  A    between atoms: C_5  and  C_7 
ROOT
HETATM    1  C   UNL     1      45.234 -20.568   4.383  1.00  0.00     0.050 C 
HETATM    2  C   UNL     1      44.221 -19.590   3.873  1.00  0.00    -0.035 A 
HETATM    3  C   UNL     1      43.477 -18.756   4.692  1.00  0.00     0.051 A 
HETATM    4  C   UNL     1      42.543 -17.839   4.186  1.00  0.00     0.018 A 
HETATM    5  C   UNL     1      41.881 -17.108   5.327  1.00  0.00     0.199 A 
HETATM    6  C   UNL     1      42.578 -17.769   6.563  1.00  0.00     0.266 A 
HETATM    7  O   UNL     1      42.313 -17.589   7.743  1.00  0.00    -0.269 OA
HETATM    8  N   UNL     1      43.504 -18.688   6.081  1.00  0.00    -0.323 N 
HETATM    9  C   UNL     1      42.313 -17.749   2.821  1.00  0.00     0.013 A 
HETATM   10  C   UNL     1      43.060 -18.567   1.971  1.00  0.00     0.001 A 
HETATM   11  C   UNL     1      44.005 -19.472   2.491  1.00  0.00     0.009 A 
HETATM   12  H   UNL     1      44.058 -19.265   6.693  1.00  0.00     0.169 HD
ENDROOT
BRANCH   5  13
HETATM   13  O   UNL     1      40.492 -17.420   5.287  1.00  0.00    -0.371 OA
HETATM   14  H   UNL     1      40.073 -16.633   4.898  1.00  0.00     0.212 HD
ENDBRANCH   5  13
BRANCH   5  15
HETATM   15  C   UNL     1      42.166 -15.617   5.264  1.00  0.00     0.025 A 
HETATM   16  C   UNL     1      41.428 -14.562   4.589  1.00  0.00     0.003 A 
HETATM   17  C   UNL     1      42.099 -13.359   4.818  1.00  0.00     0.043 A 
HETATM   18  C   UNL     1      40.253 -14.497   3.801  1.00  0.00     0.014 A 
HETATM   19  C   UNL     1      41.660 -12.122   4.331  1.00  0.00     0.030 A 
HETATM   20  N   UNL     1      43.210 -13.650   5.562  1.00  0.00    -0.359 N 
HETATM   21  C   UNL     1      40.487 -12.095   3.575  1.00  0.00     0.002 A 
HETATM   22  C   UNL     1      39.792 -13.267   3.311  1.00  0.00     0.001 A 
HETATM   23  H   UNL     1      43.891 -12.962   5.856  1.00  0.00     0.166 HD
HETATM   24  C   UNL     1      43.292 -14.994   5.813  1.00  0.00     0.016 A 
HETATM   25  C   UNL     1      44.464 -15.541   6.550  1.00  0.00     0.069 C 
ENDBRANCH   5  15
TORSDOF 2
ENDMDL
MODEL 8
REMARK VINA RESULT:      -7.5      1.977      5.493
REMARK  2 active torsions:
REMARK  status: ('A' for Active; 'I' for Inactive)
REMARK    1  A    between atoms: C_5  and  O_6 
REMARK    2  A    between atoms: C_5  and  C_7 
ROOT
HETATM    1  C   UNL     1      44.416 -19.860   5.431  1.00  0.00     0.050 C 
HETATM    2  C   UNL     1      43.837 -19.210   4.213  1.00  0.00    -0.035 A 
HETATM    3  C   UNL     1      42.899 -18.191   4.258  1.00  0.00     0.051 A 
HETATM    4  C   UNL     1      42.382 -17.590   3.100  1.00  0.00     0.018 A 
HETATM    5  C   UNL     1      41.365 -16.545   3.482  1.00  0.00     0.199 A 
HETATM    6  C   UNL     1      41.375 -16.660   5.042  1.00  0.00     0.266 A 
HETATM    7  O   UNL     1      40.638 -16.083   5.830  1.00  0.00    -0.269 OA
HETATM    8  N   UNL     1      42.319 -17.622   5.386  1.00  0.00    -0.323 N 
HETATM    9  C   UNL     1      42.786 -18.018   1.843  1.00  0.00     0.013 A 
HETATM   10  C   UNL     1      43.743 -19.033   1.770  1.00  0.00     0.001 A 
HETATM   11  C   UNL     1      44.264 -19.617   2.939  1.00  0.00     0.009 A 
HETATM   12  H   UNL     1      42.485 -17.896   6.341  1.00  0.00     0.169 HD
ENDROOT
BRANCH   5  13
HETATM   13  O   UNL     1      40.111 -16.949   2.940  1.00  0.00    -0.371 OA
HETATM   14  H   UNL     1      40.064 -17.905   3.111  1.00  0.00     0.212 HD
ENDBRANCH   5  13
BRANCH   5  15
HETATM   15  C   UNL     1      41.800 -15.162   3.027  1.00  0.00     0.025 A 
HETATM   16  C   UNL     1      41.429 -14.422   1.831  1.00  0.00     0.003 A 
HETATM   17  C   UNL     1      42.104 -13.201   1.860  1.00  0.00     0.043 A 
HETATM   18  C   UNL     1      40.588 -14.659   0.718  1.00  0.00     0.014 A 
HETATM   19  C   UNL     1      41.971 -12.218   0.871  1.00  0.00     0.030 A 
HETATM   20  N   UNL     1      42.877 -13.191   2.990  1.00  0.00    -0.359 N 
HETATM   21  C   UNL     1      41.118 -12.480  -0.201  1.00  0.00     0.002 A 
HETATM   22  C   UNL     1      40.435 -13.686  -0.280  1.00  0.00     0.001 A 
HETATM   23  H   UNL     1      43.489 -12.429   3.250  1.00  0.00     0.166 HD
HETATM   24  C   UNL     1      42.741 -14.362   3.685  1.00  0.00     0.016 A 
HETATM   25  C   UNL     1      43.549 -14.595   4.913  1.00  0.00     0.069 C 
ENDBRANCH   5  15
TORSDOF 2
ENDMDL
MODEL 9
REMARK VINA RESULT:      -7.5      2.009      3.187
REMARK  2 active torsions:
REMARK  status: ('A' for Active; 'I' for Inactive)
REMARK    1  A    between atoms: C_5  and  O_6 
REMARK    2  A    between atoms: C_5  and  C_7 
ROOT
HETATM    1  C   UNL     1      41.391 -12.201   2.428  1.00  0.00     0.050 C 
HETATM    2  C   UNL     1      41.873 -13.255   3.375  1.00  0.00    -0.035 A 
HETATM    3  C   UNL     1      41.550 -14.598   3.261  1.00  0.00     0.051 A 
HETATM    4  C   UNL     1      42.027 -15.568   4.156  1.00  0.00     0.018 A 
HETATM    5  C   UNL     1      41.472 -16.919   3.783  1.00  0.00     0.199 A 
HETATM    6  C   UNL     1      40.590 -16.558   2.541  1.00  0.00     0.266 A 
HETATM    7  O   UNL     1      39.842 -17.305   1.926  1.00  0.00    -0.269 OA
HETATM    8  N   UNL     1      40.730 -15.194   2.309  1.00  0.00    -0.323 N 
HETATM    9  C   UNL     1      42.840 -15.205   5.221  1.00  0.00     0.013 A 
HETATM   10  C   UNL     1      43.194 -13.860   5.350  1.00  0.00     0.001 A 
HETATM   11  C   UNL     1      42.721 -12.900   4.437  1.00  0.00     0.009 A 
HETATM   12  H   UNL     1      40.229 -14.719   1.575  1.00  0.00     0.169 HD
ENDROOT
BRANCH   5  13
HETATM   13  O   UNL     1      40.674 -17.371   4.873  1.00  0.00    -0.371 OA
HETATM   14  H   UNL     1      41.294 -17.450   5.617  1.00  0.00     0.212 HD
ENDBRANCH   5  13
BRANCH   5  15
HETATM   15  C   UNL     1      42.584 -17.885   3.409  1.00  0.00     0.025 A 
HETATM   16  C   UNL     1      43.270 -18.869   4.231  1.00  0.00     0.003 A 
HETATM   17  C   UNL     1      44.223 -19.502   3.431  1.00  0.00     0.043 A 
HETATM   18  C   UNL     1      43.185 -19.293   5.579  1.00  0.00     0.014 A 
HETATM   19  C   UNL     1      45.062 -20.526   3.889  1.00  0.00     0.030 A 
HETATM   20  N   UNL     1      44.160 -18.925   2.192  1.00  0.00    -0.359 N 
HETATM   21  C   UNL     1      44.936 -20.930   5.219  1.00  0.00     0.002 A 
HETATM   22  C   UNL     1      44.010 -20.321   6.055  1.00  0.00     0.001 A 
HETATM   23  H   UNL     1      44.759 -19.180   1.418  1.00  0.00     0.166 HD
HETATM   24  C   UNL     1      43.215 -17.935   2.161  1.00  0.00     0.016 A 
HETATM   25  C   UNL     1      43.028 -17.126   0.926  1.00  0.00     0.069 C 
ENDBRANCH   5  15
TORSDOF 2
ENDMDL
MODEL 10
REMARK VINA RESULT:      -7.5      2.072      5.157
REMARK  2 active torsions:
REMARK  status: ('A' for Active; 'I' for Inactive)
REMARK    1  A    between atoms: C_5  and  O_6 
REMARK    2  A    between atoms: C_5  and  C_7 
ROOT
HETATM    1  C   UNL     1      44.327 -20.340   3.444  1.00  0.00     0.050 C 
HETATM    2  C   UNL     1      43.809 -19.032   2.930  1.00  0.00    -0.035 A 
HETATM    3  C   UNL     1      42.838 -18.282   3.575  1.00  0.00     0.051 A 
HETATM    4  C   UNL     1      42.380 -17.053   3.078  1.00  0.00     0.018 A 
HETATM    5  C   UNL     1      41.308 -16.506   3.985  1.00  0.00     0.199 A 
HETATM    6  C   UNL     1      41.218 -17.632   5.069  1.00  0.00     0.266 A 
HETATM    7  O   UNL     1      40.412 -17.711   5.985  1.00  0.00    -0.269 OA
HETATM    8  N   UNL     1      42.166 -18.598   4.751  1.00  0.00    -0.323 N 
HETATM    9  C   UNL     1      42.881 -16.543   1.887  1.00  0.00     0.013 A 
HETATM   10  C   UNL     1      43.872 -17.271   1.225  1.00  0.00     0.001 A 
HETATM   11  C   UNL     1      44.333 -18.496   1.742  1.00  0.00     0.009 A 
HETATM   12  H   UNL     1      42.277 -19.442   5.290  1.00  0.00     0.169 HD
ENDROOT
BRANCH   5  13
HETATM   13  O   UNL     1      40.106 -16.421   3.225  1.00  0.00    -0.371 OA
HETATM   14  H   UNL     1      40.394 -16.153   2.336  1.00  0.00     0.212 HD
ENDBRANCH   5  13
BRANCH   5  15
HETATM   15  C   UNL     1      41.728 -15.181   4.598  1.00  0.00     0.025 A 
HETATM   16  C   UNL     1      42.774 -14.902   5.568  1.00  0.00     0.003 A 
HETATM   17  C   UNL     1      42.761 -13.529   5.825  1.00  0.00     0.043 A 
HETATM   18  C   UNL     1      43.739 -15.671   6.263  1.00  0.00     0.014 A 
HETATM   19  C   UNL     1      43.650 -12.896   6.702  1.00  0.00     0.030 A 
HETATM   20  N   UNL     1      41.744 -12.988   5.086  1.00  0.00    -0.359 N 
HETATM   21  C   UNL     1      44.600 -13.685   7.354  1.00  0.00     0.002 A 
HETATM   22  C   UNL     1      44.644 -15.056   7.139  1.00  0.00     0.001 A 
HETATM   23  H   UNL     1      41.495 -12.008   5.097  1.00  0.00     0.166 HD
HETATM   24  C   UNL     1      41.091 -13.956   4.372  1.00  0.00     0.016 A 
HETATM   25  C   UNL     1      39.902 -13.598   3.550  1.00  0.00     0.069 C 
ENDBRANCH   5  15
TORSDOF 2
ENDMDL
