MODEL 1
REMARK VINA RESULT:      -6.7      0.000      0.000
REMARK  10 active torsions:
REMARK  status: ('A' for Active; 'I' for Inactive)
REMARK    1  A    between atoms: O_2  and  C_3 
REMARK    2  A    between atoms: C_6  and  C_7 
REMARK       I    between atoms: C_7  and  N_8 
REMARK    3  A    between atoms: N_8  and  C_9 
REMARK    4  A    between atoms: C_9  and  N_10 
REMARK    5  A    between atoms: N_10  and  C_11 
REMARK    6  A    between atoms: C_12  and  C_13 
REMARK       I    between atoms: C_13  and  N_14 
REMARK    7  A    between atoms: N_14  and  C_15 
REMARK    8  A    between atoms: C_15  and  C_16 
REMARK    9  A    between atoms: C_16  and  C_17 
REMARK   10  A    between atoms: C_17  and  O_18 
ROOT
HETATM    1  N   UNL     1      40.427 -15.633   4.195  1.00  0.00    -0.332 N 
HETATM    2  H   UNL     1      39.550 -16.017   4.524  1.00  0.00     0.168 HD
ENDROOT
BRANCH   1   3
HETATM    3  C   UNL     1      40.319 -15.017   2.964  1.00  0.00     0.179 C 
HETATM    4  S   UNL     1      40.592 -13.402   2.608  1.00  0.00    -0.040 SA
BRANCH   3   5
HETATM    5  N   UNL     1      40.105 -15.856   1.882  1.00  0.00    -0.299 N 
HETATM    6  C   UNL     1      41.031 -16.169   0.911  1.00  0.00     0.257 C 
HETATM    7  O   UNL     1      40.996 -15.674  -0.209  1.00  0.00    -0.267 OA
HETATM    8  H   UNL     1      39.203 -15.624   1.483  1.00  0.00     0.171 HD
BRANCH   6   9
HETATM    9  C   UNL     1      42.087 -17.143   1.267  1.00  0.00     0.032 A 
HETATM   10  C   UNL     1      43.388 -16.709   1.541  1.00  0.00     0.020 A 
HETATM   11  C   UNL     1      44.339 -17.624   2.004  1.00  0.00     0.038 A 
HETATM   12  C   UNL     1      43.983 -18.964   2.177  1.00  0.00     0.068 A 
HETATM   13  C   UNL     1      42.700 -19.404   1.853  1.00  0.00     0.038 A 
HETATM   14  C   UNL     1      41.739 -18.489   1.425  1.00  0.00     0.020 A 
BRANCH  12  15
HETATM   15  O   UNL     1      44.867 -19.908   2.626  1.00  0.00    -0.356 OA
HETATM   16  C   UNL     1      44.384 -21.233   2.414  1.00  0.00     0.210 C 
ENDBRANCH  12  15
ENDBRANCH   6   9
ENDBRANCH   3   5
ENDBRANCH   1   3
BRANCH   1  17
HETATM   17  C   UNL     1      41.568 -16.271   4.747  1.00  0.00     0.050 A 
HETATM   18  C   UNL     1      42.743 -15.627   5.173  1.00  0.00     0.058 A 
HETATM   19  C   UNL     1      43.814 -16.392   5.680  1.00  0.00     0.019 A 
HETATM   20  C   UNL     1      43.717 -17.780   5.769  1.00  0.00     0.001 A 
HETATM   21  C   UNL     1      42.541 -18.416   5.388  1.00  0.00     0.002 A 
HETATM   22  C   UNL     1      41.470 -17.665   4.897  1.00  0.00     0.030 A 
BRANCH  18  23
HETATM   23  C   UNL     1      42.849 -14.148   5.290  1.00  0.00     0.253 C 
HETATM   24  N   UNL     1      42.031 -13.567   6.240  1.00  0.00    -0.357 N 
HETATM   25  H   UNL     1      41.436 -14.154   6.812  1.00  0.00     0.162 HD
HETATM   26  O   UNL     1      43.602 -13.515   4.560  1.00  0.00    -0.268 OA
BRANCH  24  27
HETATM   27  C   UNL     1      41.954 -12.130   6.388  1.00  0.00     0.125 C 
BRANCH  27  28
HETATM   28  C   UNL     1      40.586 -11.571   6.019  1.00  0.00     0.046 C 
BRANCH  28  29
HETATM   29  C   UNL     1      39.452 -12.261   6.764  1.00  0.00     0.165 C 
BRANCH  29  30
HETATM   30  O   UNL     1      39.166 -13.507   6.137  1.00  0.00    -0.401 OA
HETATM   31  H   UNL     1      39.621 -13.511   5.278  1.00  0.00     0.209 HD
ENDBRANCH  29  30
ENDBRANCH  28  29
ENDBRANCH  27  28
ENDBRANCH  24  27
ENDBRANCH  18  23
ENDBRANCH   1  17
TORSDOF 10
ENDMDL
MODEL 2
REMARK VINA RESULT:      -6.7      2.344      2.750
REMARK  10 active torsions:
REMARK  status: ('A' for Active; 'I' for Inactive)
REMARK    1  A    between atoms: O_2  and  C_3 
REMARK    2  A    between atoms: C_6  and  C_7 
REMARK       I    between atoms: C_7  and  N_8 
REMARK    3  A    between atoms: N_8  and  C_9 
REMARK    4  A    between atoms: C_9  and  N_10 
REMARK    5  A    between atoms: N_10  and  C_11 
REMARK    6  A    between atoms: C_12  and  C_13 
REMARK       I    between atoms: C_13  and  N_14 
REMARK    7  A    between atoms: N_14  and  C_15 
REMARK    8  A    between atoms: C_15  and  C_16 
REMARK    9  A    between atoms: C_16  and  C_17 
REMARK   10  A    between atoms: C_17  and  O_18 
ROOT
HETATM    1  N   UNL     1      41.084 -14.681   6.244  1.00  0.00    -0.332 N 
HETATM    2  H   UNL     1      40.419 -14.738   7.004  1.00  0.00     0.168 HD
ENDROOT
BRANCH   1   3
HETATM    3  C   UNL     1      40.611 -13.960   5.165  1.00  0.00     0.179 C 
HETATM    4  S   UNL     1      40.931 -12.357   4.793  1.00  0.00    -0.040 SA
BRANCH   3   5
HETATM    5  N   UNL     1      39.917 -14.685   4.209  1.00  0.00    -0.299 N 
HETATM    6  C   UNL     1      40.309 -14.877   2.902  1.00  0.00     0.257 C 
HETATM    7  O   UNL     1      39.797 -14.268   1.970  1.00  0.00    -0.267 OA
HETATM    8  H   UNL     1      38.938 -14.430   4.275  1.00  0.00     0.171 HD
BRANCH   6   9
HETATM    9  C   UNL     1      41.384 -15.863   2.652  1.00  0.00     0.032 A 
HETATM   10  C   UNL     1      42.721 -15.455   2.598  1.00  0.00     0.020 A 
HETATM   11  C   UNL     1      43.732 -16.416   2.494  1.00  0.00     0.038 A 
HETATM   12  C   UNL     1      43.397 -17.770   2.435  1.00  0.00     0.068 A 
HETATM   13  C   UNL     1      42.061 -18.171   2.435  1.00  0.00     0.038 A 
HETATM   14  C   UNL     1      41.051 -17.220   2.575  1.00  0.00     0.020 A 
BRANCH  12  15
HETATM   15  O   UNL     1      44.339 -18.757   2.332  1.00  0.00    -0.356 OA
HETATM   16  C   UNL     1      43.750 -20.032   2.082  1.00  0.00     0.210 C 
ENDBRANCH  12  15
ENDBRANCH   6   9
ENDBRANCH   3   5
ENDBRANCH   1   3
BRANCH   1  17
HETATM   17  C   UNL     1      42.022 -15.745   6.230  1.00  0.00     0.050 A 
HETATM   18  C   UNL     1      43.421 -15.607   6.255  1.00  0.00     0.058 A 
HETATM   19  C   UNL     1      44.237 -16.756   6.210  1.00  0.00     0.019 A 
HETATM   20  C   UNL     1      43.671 -18.029   6.148  1.00  0.00     0.001 A 
HETATM   21  C   UNL     1      42.289 -18.171   6.165  1.00  0.00     0.002 A 
HETATM   22  C   UNL     1      41.472 -17.039   6.222  1.00  0.00     0.030 A 
BRANCH  18  23
HETATM   23  C   UNL     1      44.094 -14.307   6.516  1.00  0.00     0.253 C 
HETATM   24  N   UNL     1      44.446 -14.072   7.831  1.00  0.00    -0.357 N 
HETATM   25  H   UNL     1      44.262 -14.781   8.530  1.00  0.00     0.162 HD
HETATM   26  O   UNL     1      44.283 -13.507   5.606  1.00  0.00    -0.268 OA
BRANCH  24  27
HETATM   27  C   UNL     1      45.009 -12.805   8.244  1.00  0.00     0.125 C 
BRANCH  27  28
HETATM   28  C   UNL     1      44.095 -12.029   9.182  1.00  0.00     0.046 C 
BRANCH  28  29
HETATM   29  C   UNL     1      44.439 -12.249  10.648  1.00  0.00     0.165 C 
BRANCH  29  30
HETATM   30  O   UNL     1      44.088 -13.576  11.022  1.00  0.00    -0.401 OA
HETATM   31  H   UNL     1      43.443 -13.901  10.371  1.00  0.00     0.209 HD
ENDBRANCH  29  30
ENDBRANCH  28  29
ENDBRANCH  27  28
ENDBRANCH  24  27
ENDBRANCH  18  23
ENDBRANCH   1  17
TORSDOF 10
ENDMDL
MODEL 3
REMARK VINA RESULT:      -6.6      2.548      3.278
REMARK  10 active torsions:
REMARK  status: ('A' for Active; 'I' for Inactive)
REMARK    1  A    between atoms: O_2  and  C_3 
REMARK    2  A    between atoms: C_6  and  C_7 
REMARK       I    between atoms: C_7  and  N_8 
REMARK    3  A    between atoms: N_8  and  C_9 
REMARK    4  A    between atoms: C_9  and  N_10 
REMARK    5  A    between atoms: N_10  and  C_11 
REMARK    6  A    between atoms: C_12  and  C_13 
REMARK       I    between atoms: C_13  and  N_14 
REMARK    7  A    between atoms: N_14  and  C_15 
REMARK    8  A    between atoms: C_15  and  C_16 
REMARK    9  A    between atoms: C_16  and  C_17 
REMARK   10  A    between atoms: C_17  and  O_18 
ROOT
HETATM    1  N   UNL     1      42.983 -15.890   4.059  1.00  0.00    -0.332 N 
HETATM    2  H   UNL     1      43.244 -14.912   4.060  1.00  0.00     0.168 HD
ENDROOT
BRANCH   1   3
HETATM    3  C   UNL     1      42.082 -16.207   3.061  1.00  0.00     0.179 C 
HETATM    4  S   UNL     1      40.436 -15.892   3.039  1.00  0.00    -0.040 SA
BRANCH   3   5
HETATM    5  N   UNL     1      42.628 -16.705   1.888  1.00  0.00    -0.299 N 
HETATM    6  C   UNL     1      43.839 -17.352   1.774  1.00  0.00     0.257 C 
HETATM    7  O   UNL     1      44.834 -16.801   1.317  1.00  0.00    -0.267 OA
HETATM    8  H   UNL     1      42.506 -16.003   1.166  1.00  0.00     0.171 HD
BRANCH   6   9
HETATM    9  C   UNL     1      43.903 -18.760   2.225  1.00  0.00     0.032 A 
HETATM   10  C   UNL     1      43.188 -19.753   1.548  1.00  0.00     0.020 A 
HETATM   11  C   UNL     1      43.364 -21.094   1.904  1.00  0.00     0.038 A 
HETATM   12  C   UNL     1      44.243 -21.427   2.937  1.00  0.00     0.068 A 
HETATM   13  C   UNL     1      44.914 -20.430   3.645  1.00  0.00     0.038 A 
HETATM   14  C   UNL     1      44.770 -19.095   3.271  1.00  0.00     0.020 A 
BRANCH  12  15
HETATM   15  O   UNL     1      44.458 -22.720   3.332  1.00  0.00    -0.356 OA
HETATM   16  C   UNL     1      44.992 -22.791   4.653  1.00  0.00     0.210 C 
ENDBRANCH  12  15
ENDBRANCH   6   9
ENDBRANCH   3   5
ENDBRANCH   1   3
BRANCH   1  17
HETATM   17  C   UNL     1      43.133 -16.518   5.322  1.00  0.00     0.050 A 
HETATM   18  C   UNL     1      43.723 -15.942   6.461  1.00  0.00     0.058 A 
HETATM   19  C   UNL     1      43.830 -16.695   7.648  1.00  0.00     0.019 A 
HETATM   20  C   UNL     1      43.350 -18.002   7.708  1.00  0.00     0.001 A 
HETATM   21  C   UNL     1      42.728 -18.560   6.597  1.00  0.00     0.002 A 
HETATM   22  C   UNL     1      42.605 -17.818   5.420  1.00  0.00     0.030 A 
BRANCH  18  23
HETATM   23  C   UNL     1      44.080 -14.501   6.536  1.00  0.00     0.253 C 
HETATM   24  N   UNL     1      44.233 -13.991   7.811  1.00  0.00    -0.357 N 
HETATM   25  H   UNL     1      44.126 -14.606   8.609  1.00  0.00     0.162 HD
HETATM   26  O   UNL     1      44.196 -13.831   5.516  1.00  0.00    -0.268 OA
BRANCH  24  27
HETATM   27  C   UNL     1      44.475 -12.583   8.034  1.00  0.00     0.125 C 
BRANCH  27  28
HETATM   28  C   UNL     1      45.559 -12.326   9.072  1.00  0.00     0.046 C 
BRANCH  28  29
HETATM   29  C   UNL     1      44.998 -12.168  10.478  1.00  0.00     0.165 C 
BRANCH  29  30
HETATM   30  O   UNL     1      44.105 -13.242  10.753  1.00  0.00    -0.401 OA
HETATM   31  H   UNL     1      44.607 -13.919  11.238  1.00  0.00     0.209 HD
ENDBRANCH  29  30
ENDBRANCH  28  29
ENDBRANCH  27  28
ENDBRANCH  24  27
ENDBRANCH  18  23
ENDBRANCH   1  17
TORSDOF 10
ENDMDL
MODEL 4
REMARK VINA RESULT:      -6.6      1.976      3.830
REMARK  10 active torsions:
REMARK  status: ('A' for Active; 'I' for Inactive)
REMARK    1  A    between atoms: O_2  and  C_3 
REMARK    2  A    between atoms: C_6  and  C_7 
REMARK       I    between atoms: C_7  and  N_8 
REMARK    3  A    between atoms: N_8  and  C_9 
REMARK    4  A    between atoms: C_9  and  N_10 
REMARK    5  A    between atoms: N_10  and  C_11 
REMARK    6  A    between atoms: C_12  and  C_13 
REMARK       I    between atoms: C_13  and  N_14 
REMARK    7  A    between atoms: N_14  and  C_15 
REMARK    8  A    between atoms: C_15  and  C_16 
REMARK    9  A    between atoms: C_16  and  C_17 
REMARK   10  A    between atoms: C_17  and  O_18 
ROOT
HETATM    1  N   UNL     1      40.420 -15.352   2.903  1.00  0.00    -0.332 N 
HETATM    2  H   UNL     1      40.537 -16.263   3.328  1.00  0.00     0.168 HD
ENDROOT
BRANCH   1   3
HETATM    3  C   UNL     1      41.116 -15.216   1.718  1.00  0.00     0.179 C 
HETATM    4  S   UNL     1      40.478 -15.065   0.176  1.00  0.00    -0.040 SA
BRANCH   3   5
HETATM    5  N   UNL     1      42.486 -15.036   1.836  1.00  0.00    -0.299 N 
HETATM    6  C   UNL     1      43.269 -15.480   2.880  1.00  0.00     0.257 C 
HETATM    7  O   UNL     1      43.682 -14.726   3.754  1.00  0.00    -0.267 OA
HETATM    8  H   UNL     1      42.695 -14.076   1.589  1.00  0.00     0.171 HD
BRANCH   6   9
HETATM    9  C   UNL     1      43.607 -16.920   2.912  1.00  0.00     0.032 A 
HETATM   10  C   UNL     1      43.628 -17.616   4.125  1.00  0.00     0.020 A 
HETATM   11  C   UNL     1      43.817 -19.001   4.123  1.00  0.00     0.038 A 
HETATM   12  C   UNL     1      43.995 -19.675   2.913  1.00  0.00     0.068 A 
HETATM   13  C   UNL     1      44.027 -18.971   1.709  1.00  0.00     0.038 A 
HETATM   14  C   UNL     1      43.803 -17.595   1.702  1.00  0.00     0.020 A 
BRANCH  12  15
HETATM   15  O   UNL     1      44.187 -21.028   2.845  1.00  0.00    -0.356 OA
HETATM   16  C   UNL     1      43.691 -21.575   1.624  1.00  0.00     0.210 C 
ENDBRANCH  12  15
ENDBRANCH   6   9
ENDBRANCH   3   5
ENDBRANCH   1   3
BRANCH   1  17
HETATM   17  C   UNL     1      40.082 -14.333   3.830  1.00  0.00     0.050 A 
HETATM   18  C   UNL     1      40.259 -14.398   5.224  1.00  0.00     0.058 A 
HETATM   19  C   UNL     1      39.852 -13.317   6.031  1.00  0.00     0.019 A 
HETATM   20  C   UNL     1      39.280 -12.180   5.462  1.00  0.00     0.001 A 
HETATM   21  C   UNL     1      39.141 -12.095   4.082  1.00  0.00     0.002 A 
HETATM   22  C   UNL     1      39.554 -13.155   3.272  1.00  0.00     0.030 A 
BRANCH  18  23
HETATM   23  C   UNL     1      41.033 -15.485   5.883  1.00  0.00     0.253 C 
HETATM   24  N   UNL     1      42.200 -15.089   6.508  1.00  0.00    -0.357 N 
HETATM   25  H   UNL     1      42.455 -14.108   6.513  1.00  0.00     0.162 HD
HETATM   26  O   UNL     1      40.647 -16.646   5.832  1.00  0.00    -0.268 OA
BRANCH  24  27
HETATM   27  C   UNL     1      43.102 -16.054   7.096  1.00  0.00     0.125 C 
BRANCH  27  28
HETATM   28  C   UNL     1      44.562 -15.630   7.007  1.00  0.00     0.046 C 
BRANCH  28  29
HETATM   29  C   UNL     1      44.747 -14.131   7.194  1.00  0.00     0.165 C 
BRANCH  29  30
HETATM   30  O   UNL     1      44.341 -13.766   8.509  1.00  0.00    -0.401 OA
HETATM   31  H   UNL     1      43.753 -12.995   8.427  1.00  0.00     0.209 HD
ENDBRANCH  29  30
ENDBRANCH  28  29
ENDBRANCH  27  28
ENDBRANCH  24  27
ENDBRANCH  18  23
ENDBRANCH   1  17
TORSDOF 10
ENDMDL
MODEL 5
REMARK VINA RESULT:      -6.6      2.247      5.975
REMARK  10 active torsions:
REMARK  status: ('A' for Active; 'I' for Inactive)
REMARK    1  A    between atoms: O_2  and  C_3 
REMARK    2  A    between atoms: C_6  and  C_7 
REMARK       I    between atoms: C_7  and  N_8 
REMARK    3  A    between atoms: N_8  and  C_9 
REMARK    4  A    between atoms: C_9  and  N_10 
REMARK    5  A    between atoms: N_10  and  C_11 
REMARK    6  A    between atoms: C_12  and  C_13 
REMARK       I    between atoms: C_13  and  N_14 
REMARK    7  A    between atoms: N_14  and  C_15 
REMARK    8  A    between atoms: C_15  and  C_16 
REMARK    9  A    between atoms: C_16  and  C_17 
REMARK   10  A    between atoms: C_17  and  O_18 
ROOT
HETATM    1  N   UNL     1      40.600 -16.671   2.969  1.00  0.00    -0.332 N 
HETATM    2  H   UNL     1      40.480 -17.529   2.445  1.00  0.00     0.168 HD
ENDROOT
BRANCH   1   3
HETATM    3  C   UNL     1      40.591 -15.545   2.170  1.00  0.00     0.179 C 
HETATM    4  S   UNL     1      39.259 -14.648   1.692  1.00  0.00    -0.040 SA
BRANCH   3   5
HETATM    5  N   UNL     1      41.833 -15.016   1.855  1.00  0.00    -0.299 N 
HETATM    6  C   UNL     1      42.290 -13.766   2.211  1.00  0.00     0.257 C 
HETATM    7  O   UNL     1      42.339 -12.836   1.414  1.00  0.00    -0.267 OA
HETATM    8  H   UNL     1      42.020 -15.222   0.880  1.00  0.00     0.171 HD
BRANCH   6   9
HETATM    9  C   UNL     1      42.732 -13.576   3.610  1.00  0.00     0.032 A 
HETATM   10  C   UNL     1      41.939 -12.862   4.514  1.00  0.00     0.020 A 
HETATM   11  C   UNL     1      42.307 -12.807   5.862  1.00  0.00     0.038 A 
HETATM   12  C   UNL     1      43.467 -13.454   6.290  1.00  0.00     0.068 A 
HETATM   13  C   UNL     1      44.285 -14.121   5.377  1.00  0.00     0.038 A 
HETATM   14  C   UNL     1      43.904 -14.210   4.039  1.00  0.00     0.020 A 
BRANCH  12  15
HETATM   15  O   UNL     1      43.881 -13.436   7.594  1.00  0.00    -0.356 OA
HETATM   16  C   UNL     1      45.293 -13.259   7.703  1.00  0.00     0.210 C 
ENDBRANCH  12  15
ENDBRANCH   6   9
ENDBRANCH   3   5
ENDBRANCH   1   3
BRANCH   1  17
HETATM   17  C   UNL     1      41.273 -16.851   4.205  1.00  0.00     0.050 A 
HETATM   18  C   UNL     1      42.458 -17.584   4.396  1.00  0.00     0.058 A 
HETATM   19  C   UNL     1      43.005 -17.702   5.690  1.00  0.00     0.019 A 
HETATM   20  C   UNL     1      42.387 -17.095   6.782  1.00  0.00     0.001 A 
HETATM   21  C   UNL     1      41.238 -16.336   6.591  1.00  0.00     0.002 A 
HETATM   22  C   UNL     1      40.696 -16.201   5.310  1.00  0.00     0.030 A 
BRANCH  18  23
HETATM   23  C   UNL     1      43.277 -18.093   3.263  1.00  0.00     0.253 C 
HETATM   24  N   UNL     1      43.371 -19.468   3.169  1.00  0.00    -0.357 N 
HETATM   25  H   UNL     1      42.875 -20.049   3.835  1.00  0.00     0.162 HD
HETATM   26  O   UNL     1      43.838 -17.317   2.499  1.00  0.00    -0.268 OA
BRANCH  24  27
HETATM   27  C   UNL     1      44.220 -20.097   2.182  1.00  0.00     0.125 C 
BRANCH  27  28
HETATM   28  C   UNL     1      43.918 -21.578   1.999  1.00  0.00     0.046 C 
BRANCH  28  29
HETATM   29  C   UNL     1      44.575 -22.445   3.064  1.00  0.00     0.165 C 
BRANCH  29  30
HETATM   30  O   UNL     1      44.667 -21.711   4.280  1.00  0.00    -0.401 OA
HETATM   31  H   UNL     1      44.158 -22.195   4.951  1.00  0.00     0.209 HD
ENDBRANCH  29  30
ENDBRANCH  28  29
ENDBRANCH  27  28
ENDBRANCH  24  27
ENDBRANCH  18  23
ENDBRANCH   1  17
TORSDOF 10
ENDMDL
MODEL 6
REMARK VINA RESULT:      -6.5      2.501      6.460
REMARK  10 active torsions:
REMARK  status: ('A' for Active; 'I' for Inactive)
REMARK    1  A    between atoms: O_2  and  C_3 
REMARK    2  A    between atoms: C_6  and  C_7 
REMARK       I    between atoms: C_7  and  N_8 
REMARK    3  A    between atoms: N_8  and  C_9 
REMARK    4  A    between atoms: C_9  and  N_10 
REMARK    5  A    between atoms: N_10  and  C_11 
REMARK    6  A    between atoms: C_12  and  C_13 
REMARK       I    between atoms: C_13  and  N_14 
REMARK    7  A    between atoms: N_14  and  C_15 
REMARK    8  A    between atoms: C_15  and  C_16 
REMARK    9  A    between atoms: C_16  and  C_17 
REMARK   10  A    between atoms: C_17  and  O_18 
ROOT
HETATM    1  N   UNL     1      40.876 -17.568   4.476  1.00  0.00    -0.332 N 
HETATM    2  H   UNL     1      40.102 -18.219   4.436  1.00  0.00     0.168 HD
ENDROOT
BRANCH   1   3
HETATM    3  C   UNL     1      40.845 -16.760   5.596  1.00  0.00     0.179 C 
HETATM    4  S   UNL     1      41.839 -16.851   6.942  1.00  0.00    -0.040 SA
BRANCH   3   5
HETATM    5  N   UNL     1      39.999 -15.665   5.530  1.00  0.00    -0.299 N 
HETATM    6  C   UNL     1      40.388 -14.343   5.575  1.00  0.00     0.257 C 
HETATM    7  O   UNL     1      40.250 -13.655   6.580  1.00  0.00    -0.267 OA
HETATM    8  H   UNL     1      39.208 -15.846   6.138  1.00  0.00     0.171 HD
BRANCH   6   9
HETATM    9  C   UNL     1      40.983 -13.767   4.349  1.00  0.00     0.032 A 
HETATM   10  C   UNL     1      42.361 -13.848   4.125  1.00  0.00     0.020 A 
HETATM   11  C   UNL     1      42.889 -13.419   2.904  1.00  0.00     0.038 A 
HETATM   12  C   UNL     1      42.037 -12.903   1.925  1.00  0.00     0.068 A 
HETATM   13  C   UNL     1      40.670 -12.774   2.171  1.00  0.00     0.038 A 
HETATM   14  C   UNL     1      40.135 -13.234   3.373  1.00  0.00     0.020 A 
BRANCH  12  15
HETATM   15  O   UNL     1      42.492 -12.465   0.710  1.00  0.00    -0.356 OA
HETATM   16  C   UNL     1      41.431 -12.308  -0.231  1.00  0.00     0.210 C 
ENDBRANCH  12  15
ENDBRANCH   6   9
ENDBRANCH   3   5
ENDBRANCH   1   3
BRANCH   1  17
HETATM   17  C   UNL     1      41.426 -17.265   3.204  1.00  0.00     0.050 A 
HETATM   18  C   UNL     1      42.756 -17.497   2.809  1.00  0.00     0.058 A 
HETATM   19  C   UNL     1      43.176 -17.121   1.517  1.00  0.00     0.019 A 
HETATM   20  C   UNL     1      42.285 -16.526   0.624  1.00  0.00     0.001 A 
HETATM   21  C   UNL     1      40.960 -16.333   0.997  1.00  0.00     0.002 A 
HETATM   22  C   UNL     1      40.531 -16.715   2.270  1.00  0.00     0.030 A 
BRANCH  18  23
HETATM   23  C   UNL     1      43.707 -18.297   3.626  1.00  0.00     0.253 C 
HETATM   24  N   UNL     1      43.896 -19.602   3.212  1.00  0.00    -0.357 N 
HETATM   25  H   UNL     1      43.417 -19.936   2.385  1.00  0.00     0.162 HD
HETATM   26  O   UNL     1      44.249 -17.809   4.611  1.00  0.00    -0.268 OA
BRANCH  24  27
HETATM   27  C   UNL     1      44.710 -20.522   3.976  1.00  0.00     0.125 C 
BRANCH  27  28
HETATM   28  C   UNL     1      44.636 -21.950   3.453  1.00  0.00     0.046 C 
BRANCH  28  29
HETATM   29  C   UNL     1      44.503 -22.012   1.938  1.00  0.00     0.165 C 
BRANCH  29  30
HETATM   30  O   UNL     1      43.132 -21.874   1.579  1.00  0.00    -0.401 OA
HETATM   31  H   UNL     1      42.811 -21.045   1.973  1.00  0.00     0.209 HD
ENDBRANCH  29  30
ENDBRANCH  28  29
ENDBRANCH  27  28
ENDBRANCH  24  27
ENDBRANCH  18  23
ENDBRANCH   1  17
TORSDOF 10
ENDMDL
MODEL 7
REMARK VINA RESULT:      -6.5      2.603      5.964
REMARK  10 active torsions:
REMARK  status: ('A' for Active; 'I' for Inactive)
REMARK    1  A    between atoms: O_2  and  C_3 
REMARK    2  A    between atoms: C_6  and  C_7 
REMARK       I    between atoms: C_7  and  N_8 
REMARK    3  A    between atoms: N_8  and  C_9 
REMARK    4  A    between atoms: C_9  and  N_10 
REMARK    5  A    between atoms: N_10  and  C_11 
REMARK    6  A    between atoms: C_12  and  C_13 
REMARK       I    between atoms: C_13  and  N_14 
REMARK    7  A    between atoms: N_14  and  C_15 
REMARK    8  A    between atoms: C_15  and  C_16 
REMARK    9  A    between atoms: C_16  and  C_17 
REMARK   10  A    between atoms: C_17  and  O_18 
ROOT
HETATM    1  N   UNL     1      40.795 -17.374   4.123  1.00  0.00    -0.332 N 
HETATM    2  H   UNL     1      39.861 -17.630   3.828  1.00  0.00     0.168 HD
ENDROOT
BRANCH   1   3
HETATM    3  C   UNL     1      40.805 -16.561   5.239  1.00  0.00     0.179 C 
HETATM    4  S   UNL     1      41.835 -16.657   6.558  1.00  0.00    -0.040 SA
BRANCH   3   5
HETATM    5  N   UNL     1      39.970 -15.455   5.190  1.00  0.00    -0.299 N 
HETATM    6  C   UNL     1      40.369 -14.140   5.297  1.00  0.00     0.257 C 
HETATM    7  O   UNL     1      40.208 -13.489   6.323  1.00  0.00    -0.267 OA
HETATM    8  H   UNL     1      39.161 -15.652   5.768  1.00  0.00     0.171 HD
BRANCH   6   9
HETATM    9  C   UNL     1      41.004 -13.524   4.111  1.00  0.00     0.032 A 
HETATM   10  C   UNL     1      42.333 -13.816   3.787  1.00  0.00     0.020 A 
HETATM   11  C   UNL     1      42.876 -13.332   2.593  1.00  0.00     0.038 A 
HETATM   12  C   UNL     1      42.090 -12.553   1.741  1.00  0.00     0.068 A 
HETATM   13  C   UNL     1      40.782 -12.219   2.092  1.00  0.00     0.038 A 
HETATM   14  C   UNL     1      40.225 -12.729   3.264  1.00  0.00     0.020 A 
BRANCH  12  15
HETATM   15  O   UNL     1      42.562 -12.049   0.560  1.00  0.00    -0.356 OA
HETATM   16  C   UNL     1      41.752 -10.980   0.075  1.00  0.00     0.210 C 
ENDBRANCH  12  15
ENDBRANCH   6   9
ENDBRANCH   3   5
ENDBRANCH   1   3
BRANCH   1  17
HETATM   17  C   UNL     1      41.753 -17.423   3.078  1.00  0.00     0.050 A 
HETATM   18  C   UNL     1      41.581 -16.909   1.781  1.00  0.00     0.058 A 
HETATM   19  C   UNL     1      42.612 -17.051   0.830  1.00  0.00     0.019 A 
HETATM   20  C   UNL     1      43.805 -17.691   1.164  1.00  0.00     0.001 A 
HETATM   21  C   UNL     1      43.995 -18.163   2.458  1.00  0.00     0.002 A 
HETATM   22  C   UNL     1      42.984 -18.015   3.411  1.00  0.00     0.030 A 
BRANCH  18  23
HETATM   23  C   UNL     1      40.426 -16.049   1.407  1.00  0.00     0.253 C 
HETATM   24  N   UNL     1      40.562 -15.351   0.222  1.00  0.00    -0.357 N 
HETATM   25  H   UNL     1      41.401 -15.472  -0.333  1.00  0.00     0.162 HD
HETATM   26  O   UNL     1      39.445 -15.967   2.137  1.00  0.00    -0.268 OA
BRANCH  24  27
HETATM   27  C   UNL     1      39.563 -14.399  -0.209  1.00  0.00     0.125 C 
BRANCH  27  28
HETATM   28  C   UNL     1      39.901 -13.750  -1.544  1.00  0.00     0.046 C 
BRANCH  28  29
HETATM   29  C   UNL     1      41.030 -14.466  -2.272  1.00  0.00     0.165 C 
BRANCH  29  30
HETATM   30  O   UNL     1      42.275 -14.113  -1.678  1.00  0.00    -0.401 OA
HETATM   31  H   UNL     1      42.594 -14.891  -1.190  1.00  0.00     0.209 HD
ENDBRANCH  29  30
ENDBRANCH  28  29
ENDBRANCH  27  28
ENDBRANCH  24  27
ENDBRANCH  18  23
ENDBRANCH   1  17
TORSDOF 10
ENDMDL
MODEL 8
REMARK VINA RESULT:      -6.5      2.364      5.792
REMARK  10 active torsions:
REMARK  status: ('A' for Active; 'I' for Inactive)
REMARK    1  A    between atoms: O_2  and  C_3 
REMARK    2  A    between atoms: C_6  and  C_7 
REMARK       I    between atoms: C_7  and  N_8 
REMARK    3  A    between atoms: N_8  and  C_9 
REMARK    4  A    between atoms: C_9  and  N_10 
REMARK    5  A    between atoms: N_10  and  C_11 
REMARK    6  A    between atoms: C_12  and  C_13 
REMARK       I    between atoms: C_13  and  N_14 
REMARK    7  A    between atoms: N_14  and  C_15 
REMARK    8  A    between atoms: C_15  and  C_16 
REMARK    9  A    between atoms: C_16  and  C_17 
REMARK   10  A    between atoms: C_17  and  O_18 
ROOT
HETATM    1  N   UNL     1      40.667 -16.061   3.317  1.00  0.00    -0.332 N 
HETATM    2  H   UNL     1      39.790 -16.038   2.812  1.00  0.00     0.168 HD
ENDROOT
BRANCH   1   3
HETATM    3  C   UNL     1      40.865 -14.944   4.105  1.00  0.00     0.179 C 
HETATM    4  S   UNL     1      39.705 -14.077   4.949  1.00  0.00    -0.040 SA
BRANCH   3   5
HETATM    5  N   UNL     1      42.185 -14.596   4.342  1.00  0.00    -0.299 N 
HETATM    6  C   UNL     1      42.781 -14.491   5.580  1.00  0.00     0.257 C 
HETATM    7  O   UNL     1      43.010 -13.408   6.107  1.00  0.00    -0.267 OA
HETATM    8  H   UNL     1      42.409 -13.805   3.748  1.00  0.00     0.171 HD
BRANCH   6   9
HETATM    9  C   UNL     1      43.147 -15.750   6.267  1.00  0.00     0.032 A 
HETATM   10  C   UNL     1      42.168 -16.526   6.895  1.00  0.00     0.020 A 
HETATM   11  C   UNL     1      42.509 -17.775   7.422  1.00  0.00     0.038 A 
HETATM   12  C   UNL     1      43.826 -18.231   7.327  1.00  0.00     0.068 A 
HETATM   13  C   UNL     1      44.812 -17.432   6.748  1.00  0.00     0.038 A 
HETATM   14  C   UNL     1      44.469 -16.201   6.189  1.00  0.00     0.020 A 
BRANCH  12  15
HETATM   15  O   UNL     1      44.223 -19.442   7.824  1.00  0.00    -0.356 OA
HETATM   16  C   UNL     1      43.690 -20.528   7.068  1.00  0.00     0.210 C 
ENDBRANCH  12  15
ENDBRANCH   6   9
ENDBRANCH   3   5
ENDBRANCH   1   3
BRANCH   1  17
HETATM   17  C   UNL     1      41.654 -16.873   2.702  1.00  0.00     0.050 A 
HETATM   18  C   UNL     1      42.085 -16.773   1.367  1.00  0.00     0.058 A 
HETATM   19  C   UNL     1      43.060 -17.666   0.879  1.00  0.00     0.019 A 
HETATM   20  C   UNL     1      43.607 -18.645   1.708  1.00  0.00     0.001 A 
HETATM   21  C   UNL     1      43.214 -18.720   3.039  1.00  0.00     0.002 A 
HETATM   22  C   UNL     1      42.258 -17.830   3.536  1.00  0.00     0.030 A 
BRANCH  18  23
HETATM   23  C   UNL     1      41.696 -15.642   0.482  1.00  0.00     0.253 C 
HETATM   24  N   UNL     1      41.003 -15.993  -0.661  1.00  0.00    -0.357 N 
HETATM   25  H   UNL     1      40.775 -16.966  -0.826  1.00  0.00     0.162 HD
HETATM   26  O   UNL     1      42.009 -14.492   0.763  1.00  0.00    -0.268 OA
BRANCH  24  27
HETATM   27  C   UNL     1      40.656 -15.008  -1.661  1.00  0.00     0.125 C 
BRANCH  27  28
HETATM   28  C   UNL     1      40.885 -15.503  -3.083  1.00  0.00     0.046 C 
BRANCH  28  29
HETATM   29  C   UNL     1      39.604 -15.992  -3.745  1.00  0.00     0.165 C 
BRANCH  29  30
HETATM   30  O   UNL     1      39.304 -17.304  -3.280  1.00  0.00    -0.401 OA
HETATM   31  H   UNL     1      38.613 -17.220  -2.600  1.00  0.00     0.209 HD
ENDBRANCH  29  30
ENDBRANCH  28  29
ENDBRANCH  27  28
ENDBRANCH  24  27
ENDBRANCH  18  23
ENDBRANCH   1  17
TORSDOF 10
ENDMDL
MODEL 9
REMARK VINA RESULT:      -6.3      2.772      5.300
REMARK  10 active torsions:
REMARK  status: ('A' for Active; 'I' for Inactive)
REMARK    1  A    between atoms: O_2  and  C_3 
REMARK    2  A    between atoms: C_6  and  C_7 
REMARK       I    between atoms: C_7  and  N_8 
REMARK    3  A    between atoms: N_8  and  C_9 
REMARK    4  A    between atoms: C_9  and  N_10 
REMARK    5  A    between atoms: N_10  and  C_11 
REMARK    6  A    between atoms: C_12  and  C_13 
REMARK       I    between atoms: C_13  and  N_14 
REMARK    7  A    between atoms: N_14  and  C_15 
REMARK    8  A    between atoms: C_15  and  C_16 
REMARK    9  A    between atoms: C_16  and  C_17 
REMARK   10  A    between atoms: C_17  and  O_18 
ROOT
HETATM    1  N   UNL     1      40.011 -13.571   2.953  1.00  0.00    -0.332 N 
HETATM    2  H   UNL     1      39.644 -12.771   2.452  1.00  0.00     0.168 HD
ENDROOT
BRANCH   1   3
HETATM    3  C   UNL     1      40.485 -13.251   4.209  1.00  0.00     0.179 C 
HETATM    4  S   UNL     1      39.593 -13.068   5.617  1.00  0.00    -0.040 SA
BRANCH   3   5
HETATM    5  N   UNL     1      41.864 -13.227   4.349  1.00  0.00    -0.299 N 
HETATM    6  C   UNL     1      42.602 -14.025   5.198  1.00  0.00     0.257 C 
HETATM    7  O   UNL     1      43.071 -13.602   6.248  1.00  0.00    -0.267 OA
HETATM    8  H   UNL     1      42.155 -12.257   4.395  1.00  0.00     0.171 HD
BRANCH   6   9
HETATM    9  C   UNL     1      42.818 -15.431   4.793  1.00  0.00     0.032 A 
HETATM   10  C   UNL     1      42.212 -16.474   5.502  1.00  0.00     0.020 A 
HETATM   11  C   UNL     1      42.318 -17.785   5.028  1.00  0.00     0.038 A 
HETATM   12  C   UNL     1      43.037 -18.042   3.858  1.00  0.00     0.068 A 
HETATM   13  C   UNL     1      43.685 -17.007   3.183  1.00  0.00     0.038 A 
HETATM   14  C   UNL     1      43.552 -15.694   3.631  1.00  0.00     0.020 A 
BRANCH  12  15
HETATM   15  O   UNL     1      43.178 -19.302   3.344  1.00  0.00    -0.356 OA
HETATM   16  C   UNL     1      43.593 -19.277   1.979  1.00  0.00     0.210 C 
ENDBRANCH  12  15
ENDBRANCH   6   9
ENDBRANCH   3   5
ENDBRANCH   1   3
BRANCH   1  17
HETATM   17  C   UNL     1      40.449 -14.619   2.102  1.00  0.00     0.050 A 
HETATM   18  C   UNL     1      41.291 -14.473   0.986  1.00  0.00     0.058 A 
HETATM   19  C   UNL     1      41.626 -15.601   0.210  1.00  0.00     0.019 A 
HETATM   20  C   UNL     1      41.136 -16.864   0.543  1.00  0.00     0.001 A 
HETATM   21  C   UNL     1      40.337 -17.019   1.671  1.00  0.00     0.002 A 
HETATM   22  C   UNL     1      40.011 -15.908   2.452  1.00  0.00     0.030 A 
BRANCH  18  23
HETATM   23  C   UNL     1      42.006 -13.204   0.682  1.00  0.00     0.253 C 
HETATM   24  N   UNL     1      41.971 -12.804  -0.641  1.00  0.00    -0.357 N 
HETATM   25  H   UNL     1      41.457 -13.357  -1.315  1.00  0.00     0.162 HD
HETATM   26  O   UNL     1      42.599 -12.593   1.563  1.00  0.00    -0.268 OA
BRANCH  24  27
HETATM   27  C   UNL     1      42.712 -11.648  -1.096  1.00  0.00     0.125 C 
BRANCH  27  28
HETATM   28  C   UNL     1      42.373 -11.255  -2.527  1.00  0.00     0.046 C 
BRANCH  28  29
HETATM   29  C   UNL     1      42.265 -12.457  -3.454  1.00  0.00     0.165 C 
BRANCH  29  30
HETATM   30  O   UNL     1      43.222 -13.438  -3.069  1.00  0.00    -0.401 OA
HETATM   31  H   UNL     1      42.983 -14.268  -3.515  1.00  0.00     0.209 HD
ENDBRANCH  29  30
ENDBRANCH  28  29
ENDBRANCH  27  28
ENDBRANCH  24  27
ENDBRANCH  18  23
ENDBRANCH   1  17
TORSDOF 10
ENDMDL
MODEL 10
REMARK VINA RESULT:      -6.2      2.602      5.798
REMARK  10 active torsions:
REMARK  status: ('A' for Active; 'I' for Inactive)
REMARK    1  A    between atoms: O_2  and  C_3 
REMARK    2  A    between atoms: C_6  and  C_7 
REMARK       I    between atoms: C_7  and  N_8 
REMARK    3  A    between atoms: N_8  and  C_9 
REMARK    4  A    between atoms: C_9  and  N_10 
REMARK    5  A    between atoms: N_10  and  C_11 
REMARK    6  A    between atoms: C_12  and  C_13 
REMARK       I    between atoms: C_13  and  N_14 
REMARK    7  A    between atoms: N_14  and  C_15 
REMARK    8  A    between atoms: C_15  and  C_16 
REMARK    9  A    between atoms: C_16  and  C_17 
REMARK   10  A    between atoms: C_17  and  O_18 
ROOT
HETATM    1  N   UNL     1      43.449 -14.522   2.945  1.00  0.00    -0.332 N 
HETATM    2  H   UNL     1      44.321 -14.221   2.528  1.00  0.00     0.168 HD
ENDROOT
BRANCH   1   3
HETATM    3  C   UNL     1      43.180 -13.896   4.146  1.00  0.00     0.179 C 
HETATM    4  S   UNL     1      41.726 -13.223   4.639  1.00  0.00    -0.040 SA
BRANCH   3   5
HETATM    5  N   UNL     1      44.180 -13.967   5.103  1.00  0.00    -0.299 N 
HETATM    6  C   UNL     1      44.017 -14.376   6.409  1.00  0.00     0.257 C 
HETATM    7  O   UNL     1      43.983 -13.582   7.343  1.00  0.00    -0.267 OA
HETATM    8  H   UNL     1      44.731 -13.118   5.039  1.00  0.00     0.171 HD
BRANCH   6   9
HETATM    9  C   UNL     1      43.887 -15.829   6.655  1.00  0.00     0.032 A 
HETATM   10  C   UNL     1      42.628 -16.403   6.857  1.00  0.00     0.020 A 
HETATM   11  C   UNL     1      42.510 -17.793   6.955  1.00  0.00     0.038 A 
HETATM   12  C   UNL     1      43.652 -18.593   6.863  1.00  0.00     0.068 A 
HETATM   13  C   UNL     1      44.912 -18.014   6.716  1.00  0.00     0.038 A 
HETATM   14  C   UNL     1      45.030 -16.631   6.581  1.00  0.00     0.020 A 
BRANCH  12  15
HETATM   15  O   UNL     1      43.603 -19.957   6.953  1.00  0.00    -0.356 OA
HETATM   16  C   UNL     1      44.285 -20.587   5.869  1.00  0.00     0.210 C 
ENDBRANCH  12  15
ENDBRANCH   6   9
ENDBRANCH   3   5
ENDBRANCH   1   3
BRANCH   1  17
HETATM   17  C   UNL     1      43.040 -15.816   2.532  1.00  0.00     0.050 A 
HETATM   18  C   UNL     1      42.119 -16.100   1.507  1.00  0.00     0.058 A 
HETATM   19  C   UNL     1      41.784 -17.438   1.219  1.00  0.00     0.019 A 
HETATM   20  C   UNL     1      42.362 -18.486   1.935  1.00  0.00     0.001 A 
HETATM   21  C   UNL     1      43.304 -18.212   2.920  1.00  0.00     0.002 A 
HETATM   22  C   UNL     1      43.652 -16.889   3.204  1.00  0.00     0.030 A 
BRANCH  18  23
HETATM   23  C   UNL     1      41.612 -15.057   0.576  1.00  0.00     0.253 C 
HETATM   24  N   UNL     1      40.637 -15.475  -0.310  1.00  0.00    -0.357 N 
HETATM   25  H   UNL     1      40.304 -16.430  -0.270  1.00  0.00     0.162 HD
HETATM   26  O   UNL     1      42.068 -13.920   0.601  1.00  0.00    -0.268 OA
BRANCH  24  27
HETATM   27  C   UNL     1      40.131 -14.595  -1.340  1.00  0.00     0.125 C 
BRANCH  27  28
HETATM   28  C   UNL     1      40.625 -14.968  -2.732  1.00  0.00     0.046 C 
BRANCH  28  29
HETATM   29  C   UNL     1      41.591 -13.941  -3.304  1.00  0.00     0.165 C 
BRANCH  29  30
HETATM   30  O   UNL     1      42.592 -13.644  -2.337  1.00  0.00    -0.401 OA
HETATM   31  H   UNL     1      42.453 -14.241  -1.582  1.00  0.00     0.209 HD
ENDBRANCH  29  30
ENDBRANCH  28  29
ENDBRANCH  27  28
ENDBRANCH  24  27
ENDBRANCH  18  23
ENDBRANCH   1  17
TORSDOF 10
ENDMDL
