MODEL 1
REMARK VINA RESULT:      -8.5      0.000      0.000
REMARK  5 active torsions:
REMARK  status: ('A' for Active; 'I' for Inactive)
REMARK    1  A    between atoms: C_5  and  C_6 
REMARK       I    between atoms: C_6  and  N_7 
REMARK    2  A    between atoms: N_7  and  C_8 
REMARK    3  A    between atoms: C_13  and  O_14 
REMARK    4  A    between atoms: O_14  and  C_15 
REMARK    5  A    between atoms: C_15  and  C_16 
ROOT
HETATM    1  C   UNL     1      41.367 -16.451   1.840  1.00  0.00     0.163 A 
HETATM    2  N   UNL     1      41.626 -16.410   0.510  1.00  0.00    -0.241 NA
HETATM    3  C   UNL     1      40.948 -15.501  -0.219  1.00  0.00     0.119 A 
HETATM    4  C   UNL     1      40.044 -14.603   0.320  1.00  0.00     0.022 A 
HETATM    5  C   UNL     1      39.849 -14.607   1.700  1.00  0.00     0.042 A 
HETATM    6  C   UNL     1      40.538 -15.525   2.494  1.00  0.00     0.115 A 
ENDROOT
BRANCH   1   7
HETATM    7  N   UNL     1      42.042 -17.487   2.497  1.00  0.00    -0.305 N 
HETATM    8  C   UNL     1      43.397 -17.510   2.750  1.00  0.00     0.258 C 
HETATM    9  O   UNL     1      44.205 -16.635   2.455  1.00  0.00    -0.267 OA
HETATM   10  H   UNL     1      41.431 -18.066   3.048  1.00  0.00     0.170 HD
BRANCH   8  11
HETATM   11  C   UNL     1      43.900 -18.709   3.463  1.00  0.00     0.044 A 
HETATM   12  C   UNL     1      43.983 -19.995   2.872  1.00  0.00     0.008 A 
HETATM   13  C   UNL     1      44.515 -21.037   3.642  1.00  0.00     0.043 A 
HETATM   14  C   UNL     1      43.609 -20.578   1.620  1.00  0.00     0.032 A 
HETATM   15  C   UNL     1      44.935 -20.871   4.968  1.00  0.00     0.030 A 
HETATM   16  N   UNL     1      44.523 -22.170   2.859  1.00  0.00    -0.365 N 
HETATM   17  C   UNL     1      44.804 -19.606   5.541  1.00  0.00     0.003 A 
HETATM   18  C   UNL     1      44.297 -18.539   4.804  1.00  0.00     0.018 A 
HETATM   19  H   UNL     1      44.866 -23.073   3.161  1.00  0.00     0.165 HD
HETATM   20  C   UNL     1      43.974 -21.904   1.635  1.00  0.00     0.089 A 
ENDBRANCH   8  11
ENDBRANCH   1   7
BRANCH   6  21
HETATM   21  O   UNL     1      40.569 -15.491   3.861  1.00  0.00    -0.343 OA
BRANCH  21  22
HETATM   22  C   UNL     1      41.486 -14.610   4.498  1.00  0.00     0.216 C 
BRANCH  22  23
HETATM   23  C   UNL     1      42.154 -15.351   5.624  1.00  0.00    -0.017 A 
HETATM   24  C   UNL     1      41.533 -16.439   6.230  1.00  0.00     0.125 A 
HETATM   25  N   UNL     1      42.070 -17.149   7.251  1.00  0.00    -0.272 NA
HETATM   26  C   UNL     1      43.286 -16.758   7.689  1.00  0.00     0.116 A 
HETATM   27  C   UNL     1      43.988 -15.690   7.156  1.00  0.00     0.020 A 
HETATM   28  C   UNL     1      43.410 -14.976   6.110  1.00  0.00     0.012 A 
ENDBRANCH  22  23
ENDBRANCH  21  22
ENDBRANCH   6  21
TORSDOF 5
ENDMDL
MODEL 2
REMARK VINA RESULT:      -8.4      0.822      1.895
REMARK  5 active torsions:
REMARK  status: ('A' for Active; 'I' for Inactive)
REMARK    1  A    between atoms: C_5  and  C_6 
REMARK       I    between atoms: C_6  and  N_7 
REMARK    2  A    between atoms: N_7  and  C_8 
REMARK    3  A    between atoms: C_13  and  O_14 
REMARK    4  A    between atoms: O_14  and  C_15 
REMARK    5  A    between atoms: C_15  and  C_16 
ROOT
HETATM    1  C   UNL     1      41.497 -16.809   1.339  1.00  0.00     0.163 A 
HETATM    2  N   UNL     1      41.676 -16.599   0.012  1.00  0.00    -0.241 NA
HETATM    3  C   UNL     1      41.071 -15.520  -0.525  1.00  0.00     0.119 A 
HETATM    4  C   UNL     1      40.322 -14.616   0.206  1.00  0.00     0.022 A 
HETATM    5  C   UNL     1      40.215 -14.803   1.582  1.00  0.00     0.042 A 
HETATM    6  C   UNL     1      40.833 -15.902   2.182  1.00  0.00     0.115 A 
ENDROOT
BRANCH   1   7
HETATM    7  N   UNL     1      42.079 -18.001   1.787  1.00  0.00    -0.305 N 
HETATM    8  C   UNL     1      43.433 -18.215   1.928  1.00  0.00     0.258 C 
HETATM    9  O   UNL     1      44.323 -17.402   1.699  1.00  0.00    -0.267 OA
HETATM   10  H   UNL     1      41.435 -18.584   2.296  1.00  0.00     0.170 HD
BRANCH   8  11
HETATM   11  C   UNL     1      43.827 -19.557   2.422  1.00  0.00     0.044 A 
HETATM   12  C   UNL     1      44.117 -19.838   3.780  1.00  0.00     0.008 A 
HETATM   13  C   UNL     1      44.438 -21.158   4.122  1.00  0.00     0.043 A 
HETATM   14  C   UNL     1      44.217 -19.080   4.989  1.00  0.00     0.032 A 
HETATM   15  C   UNL     1      44.515 -22.194   3.183  1.00  0.00     0.030 A 
HETATM   16  N   UNL     1      44.650 -21.195   5.483  1.00  0.00    -0.365 N 
HETATM   17  C   UNL     1      44.267 -21.883   1.845  1.00  0.00     0.003 A 
HETATM   18  C   UNL     1      43.927 -20.588   1.467  1.00  0.00     0.018 A 
HETATM   19  H   UNL     1      44.889 -22.029   6.002  1.00  0.00     0.165 HD
HETATM   20  C   UNL     1      44.522 -19.943   6.016  1.00  0.00     0.089 A 
ENDBRANCH   8  11
ENDBRANCH   1   7
BRANCH   6  21
HETATM   21  O   UNL     1      40.954 -16.077   3.532  1.00  0.00    -0.343 OA
BRANCH  21  22
HETATM   22  C   UNL     1      41.493 -15.015   4.309  1.00  0.00     0.216 C 
BRANCH  22  23
HETATM   23  C   UNL     1      42.198 -15.605   5.499  1.00  0.00    -0.017 A 
HETATM   24  C   UNL     1      41.605 -16.615   6.252  1.00  0.00     0.125 A 
HETATM   25  N   UNL     1      42.175 -17.189   7.338  1.00  0.00    -0.272 NA
HETATM   26  C   UNL     1      43.397 -16.738   7.691  1.00  0.00     0.116 A 
HETATM   27  C   UNL     1      44.074 -15.739   7.012  1.00  0.00     0.020 A 
HETATM   28  C   UNL     1      43.462 -15.164   5.901  1.00  0.00     0.012 A 
ENDBRANCH  22  23
ENDBRANCH  21  22
ENDBRANCH   6  21
TORSDOF 5
ENDMDL
MODEL 3
REMARK VINA RESULT:      -7.9      2.172      6.623
REMARK  5 active torsions:
REMARK  status: ('A' for Active; 'I' for Inactive)
REMARK    1  A    between atoms: C_5  and  C_6 
REMARK       I    between atoms: C_6  and  N_7 
REMARK    2  A    between atoms: N_7  and  C_8 
REMARK    3  A    between atoms: C_13  and  O_14 
REMARK    4  A    between atoms: O_14  and  C_15 
REMARK    5  A    between atoms: C_15  and  C_16 
ROOT
HETATM    1  C   UNL     1      41.482 -15.671   3.690  1.00  0.00     0.163 A 
HETATM    2  N   UNL     1      40.944 -14.894   4.662  1.00  0.00    -0.241 NA
HETATM    3  C   UNL     1      40.561 -15.511   5.798  1.00  0.00     0.119 A 
HETATM    4  C   UNL     1      40.720 -16.866   6.028  1.00  0.00     0.022 A 
HETATM    5  C   UNL     1      41.348 -17.635   5.050  1.00  0.00     0.042 A 
HETATM    6  C   UNL     1      41.769 -17.035   3.862  1.00  0.00     0.115 A 
ENDROOT
BRANCH   1   7
HETATM    7  N   UNL     1      41.759 -14.963   2.514  1.00  0.00    -0.305 N 
HETATM    8  C   UNL     1      40.858 -14.745   1.494  1.00  0.00     0.258 C 
HETATM    9  O   UNL     1      39.690 -15.119   1.465  1.00  0.00    -0.267 OA
HETATM   10  H   UNL     1      42.558 -14.358   2.599  1.00  0.00     0.170 HD
BRANCH   8  11
HETATM   11  C   UNL     1      41.367 -13.966   0.339  1.00  0.00     0.044 A 
HETATM   12  C   UNL     1      41.381 -14.455  -0.991  1.00  0.00     0.008 A 
HETATM   13  C   UNL     1      41.851 -13.603  -1.999  1.00  0.00     0.043 A 
HETATM   14  C   UNL     1      41.055 -15.689  -1.637  1.00  0.00     0.032 A 
HETATM   15  C   UNL     1      42.334 -12.312  -1.744  1.00  0.00     0.030 A 
HETATM   16  N   UNL     1      41.744 -14.275  -3.196  1.00  0.00    -0.365 N 
HETATM   17  C   UNL     1      42.351 -11.870  -0.422  1.00  0.00     0.003 A 
HETATM   18  C   UNL     1      41.875 -12.679   0.606  1.00  0.00     0.018 A 
HETATM   19  H   UNL     1      42.005 -13.890  -4.094  1.00  0.00     0.165 HD
HETATM   20  C   UNL     1      41.266 -15.539  -2.988  1.00  0.00     0.089 A 
ENDBRANCH   8  11
ENDBRANCH   1   7
BRANCH   6  21
HETATM   21  O   UNL     1      42.558 -17.647   2.928  1.00  0.00    -0.343 OA
BRANCH  21  22
HETATM   22  C   UNL     1      43.885 -18.007   3.290  1.00  0.00     0.216 C 
BRANCH  22  23
HETATM   23  C   UNL     1      44.035 -19.495   3.130  1.00  0.00    -0.017 A 
HETATM   24  C   UNL     1      44.654 -20.261   4.115  1.00  0.00     0.125 A 
HETATM   25  N   UNL     1      44.830 -21.601   4.038  1.00  0.00    -0.272 NA
HETATM   26  C   UNL     1      44.364 -22.211   2.928  1.00  0.00     0.116 A 
HETATM   27  C   UNL     1      43.735 -21.544   1.890  1.00  0.00     0.020 A 
HETATM   28  C   UNL     1      43.571 -20.166   1.995  1.00  0.00     0.012 A 
ENDBRANCH  22  23
ENDBRANCH  21  22
ENDBRANCH   6  21
TORSDOF 5
ENDMDL
MODEL 4
REMARK VINA RESULT:      -7.9      1.867      5.477
REMARK  5 active torsions:
REMARK  status: ('A' for Active; 'I' for Inactive)
REMARK    1  A    between atoms: C_5  and  C_6 
REMARK       I    between atoms: C_6  and  N_7 
REMARK    2  A    between atoms: N_7  and  C_8 
REMARK    3  A    between atoms: C_13  and  O_14 
REMARK    4  A    between atoms: O_14  and  C_15 
REMARK    5  A    between atoms: C_15  and  C_16 
ROOT
HETATM    1  C   UNL     1      43.598 -19.601   2.862  1.00  0.00     0.163 A 
HETATM    2  N   UNL     1      42.951 -20.290   1.890  1.00  0.00    -0.241 NA
HETATM    3  C   UNL     1      43.401 -21.530   1.614  1.00  0.00     0.119 A 
HETATM    4  C   UNL     1      44.448 -22.135   2.286  1.00  0.00     0.022 A 
HETATM    5  C   UNL     1      45.050 -21.444   3.335  1.00  0.00     0.042 A 
HETATM    6  C   UNL     1      44.610 -20.160   3.661  1.00  0.00     0.115 A 
ENDROOT
BRANCH   1   7
HETATM    7  N   UNL     1      43.127 -18.291   3.011  1.00  0.00    -0.305 N 
HETATM    8  C   UNL     1      43.554 -17.209   2.272  1.00  0.00     0.258 C 
HETATM    9  O   UNL     1      44.389 -17.229   1.374  1.00  0.00    -0.267 OA
HETATM   10  H   UNL     1      42.235 -18.246   3.476  1.00  0.00     0.170 HD
BRANCH   8  11
HETATM   11  C   UNL     1      42.915 -15.911   2.600  1.00  0.00     0.044 A 
HETATM   12  C   UNL     1      41.534 -15.650   2.420  1.00  0.00     0.008 A 
HETATM   13  C   UNL     1      41.048 -14.394   2.807  1.00  0.00     0.043 A 
HETATM   14  C   UNL     1      40.415 -16.356   1.876  1.00  0.00     0.032 A 
HETATM   15  C   UNL     1      41.869 -13.385   3.329  1.00  0.00     0.030 A 
HETATM   16  N   UNL     1      39.692 -14.381   2.569  1.00  0.00    -0.365 N 
HETATM   17  C   UNL     1      43.232 -13.651   3.455  1.00  0.00     0.003 A 
HETATM   18  C   UNL     1      43.751 -14.893   3.099  1.00  0.00     0.018 A 
HETATM   19  H   UNL     1      39.084 -13.597   2.766  1.00  0.00     0.165 HD
HETATM   20  C   UNL     1      39.299 -15.562   2.003  1.00  0.00     0.089 A 
ENDBRANCH   8  11
ENDBRANCH   1   7
BRANCH   6  21
HETATM   21  O   UNL     1      44.993 -19.475   4.780  1.00  0.00    -0.343 OA
BRANCH  21  22
HETATM   22  C   UNL     1      44.258 -19.671   5.982  1.00  0.00     0.216 C 
BRANCH  22  23
HETATM   23  C   UNL     1      44.073 -18.336   6.651  1.00  0.00    -0.017 A 
HETATM   24  C   UNL     1      43.675 -18.254   7.983  1.00  0.00     0.125 A 
HETATM   25  N   UNL     1      43.482 -17.090   8.648  1.00  0.00    -0.272 NA
HETATM   26  C   UNL     1      43.700 -15.952   7.956  1.00  0.00     0.116 A 
HETATM   27  C   UNL     1      44.097 -15.923   6.629  1.00  0.00     0.020 A 
HETATM   28  C   UNL     1      44.284 -17.134   5.969  1.00  0.00     0.012 A 
ENDBRANCH  22  23
ENDBRANCH  21  22
ENDBRANCH   6  21
TORSDOF 5
ENDMDL
MODEL 5
REMARK VINA RESULT:      -7.7      1.779      5.778
REMARK  5 active torsions:
REMARK  status: ('A' for Active; 'I' for Inactive)
REMARK    1  A    between atoms: C_5  and  C_6 
REMARK       I    between atoms: C_6  and  N_7 
REMARK    2  A    between atoms: N_7  and  C_8 
REMARK    3  A    between atoms: C_13  and  O_14 
REMARK    4  A    between atoms: O_14  and  C_15 
REMARK    5  A    between atoms: C_15  and  C_16 
ROOT
HETATM    1  C   UNL     1      43.449 -19.689   2.550  1.00  0.00     0.163 A 
HETATM    2  N   UNL     1      43.112 -20.660   1.667  1.00  0.00    -0.241 NA
HETATM    3  C   UNL     1      43.710 -21.859   1.816  1.00  0.00     0.119 A 
HETATM    4  C   UNL     1      44.607 -22.149   2.827  1.00  0.00     0.022 A 
HETATM    5  C   UNL     1      44.882 -21.164   3.773  1.00  0.00     0.042 A 
HETATM    6  C   UNL     1      44.277 -19.911   3.663  1.00  0.00     0.115 A 
ENDROOT
BRANCH   1   7
HETATM    7  N   UNL     1      42.854 -18.455   2.260  1.00  0.00    -0.305 N 
HETATM    8  C   UNL     1      43.480 -17.408   1.618  1.00  0.00     0.258 C 
HETATM    9  O   UNL     1      44.632 -17.401   1.196  1.00  0.00    -0.267 OA
HETATM   10  H   UNL     1      41.848 -18.491   2.271  1.00  0.00     0.170 HD
BRANCH   8  11
HETATM   11  C   UNL     1      42.658 -16.191   1.413  1.00  0.00     0.044 A 
HETATM   12  C   UNL     1      42.777 -15.023   2.207  1.00  0.00     0.008 A 
HETATM   13  C   UNL     1      41.968 -13.925   1.884  1.00  0.00     0.043 A 
HETATM   14  C   UNL     1      43.528 -14.635   3.361  1.00  0.00     0.032 A 
HETATM   15  C   UNL     1      41.034 -13.946   0.841  1.00  0.00     0.030 A 
HETATM   16  N   UNL     1      42.276 -12.909   2.762  1.00  0.00    -0.365 N 
HETATM   17  C   UNL     1      40.905 -15.121   0.102  1.00  0.00     0.003 A 
HETATM   18  C   UNL     1      41.703 -16.228   0.379  1.00  0.00     0.018 A 
HETATM   19  H   UNL     1      41.846 -11.994   2.751  1.00  0.00     0.165 HD
HETATM   20  C   UNL     1      43.215 -13.329   3.661  1.00  0.00     0.089 A 
ENDBRANCH   8  11
ENDBRANCH   1   7
BRANCH   6  21
HETATM   21  O   UNL     1      44.324 -18.945   4.629  1.00  0.00    -0.343 OA
BRANCH  21  22
HETATM   22  C   UNL     1      43.427 -19.040   5.729  1.00  0.00     0.216 C 
BRANCH  22  23
HETATM   23  C   UNL     1      42.626 -17.769   5.803  1.00  0.00    -0.017 A 
HETATM   24  C   UNL     1      43.091 -16.673   6.525  1.00  0.00     0.125 A 
HETATM   25  N   UNL     1      42.423 -15.500   6.641  1.00  0.00    -0.272 NA
HETATM   26  C   UNL     1      41.236 -15.412   6.005  1.00  0.00     0.116 A 
HETATM   27  C   UNL     1      40.684 -16.442   5.262  1.00  0.00     0.020 A 
HETATM   28  C   UNL     1      41.390 -17.637   5.163  1.00  0.00     0.012 A 
ENDBRANCH  22  23
ENDBRANCH  21  22
ENDBRANCH   6  21
TORSDOF 5
ENDMDL
MODEL 6
REMARK VINA RESULT:      -7.6      1.802      5.023
REMARK  5 active torsions:
REMARK  status: ('A' for Active; 'I' for Inactive)
REMARK    1  A    between atoms: C_5  and  C_6 
REMARK       I    between atoms: C_6  and  N_7 
REMARK    2  A    between atoms: N_7  and  C_8 
REMARK    3  A    between atoms: C_13  and  O_14 
REMARK    4  A    between atoms: O_14  and  C_15 
REMARK    5  A    between atoms: C_15  and  C_16 
ROOT
HETATM    1  C   UNL     1      41.408 -16.996   4.314  1.00  0.00     0.163 A 
HETATM    2  N   UNL     1      41.186 -17.044   5.650  1.00  0.00    -0.241 NA
HETATM    3  C   UNL     1      40.704 -15.928   6.233  1.00  0.00     0.119 A 
HETATM    4  C   UNL     1      40.399 -14.770   5.540  1.00  0.00     0.022 A 
HETATM    5  C   UNL     1      40.558 -14.764   4.156  1.00  0.00     0.042 A 
HETATM    6  C   UNL     1      41.046 -15.902   3.510  1.00  0.00     0.115 A 
ENDROOT
BRANCH   1   7
HETATM    7  N   UNL     1      41.998 -18.163   3.814  1.00  0.00    -0.305 N 
HETATM    8  C   UNL     1      43.335 -18.480   3.921  1.00  0.00     0.258 C 
HETATM    9  O   UNL     1      44.198 -17.805   4.473  1.00  0.00    -0.267 OA
HETATM   10  H   UNL     1      41.332 -18.899   3.648  1.00  0.00     0.170 HD
BRANCH   8  11
HETATM   11  C   UNL     1      43.743 -19.772   3.317  1.00  0.00     0.044 A 
HETATM   12  C   UNL     1      44.255 -20.860   4.068  1.00  0.00     0.008 A 
HETATM   13  C   UNL     1      44.565 -22.041   3.382  1.00  0.00     0.043 A 
HETATM   14  C   UNL     1      44.605 -21.092   5.435  1.00  0.00     0.032 A 
HETATM   15  C   UNL     1      44.421 -22.180   1.995  1.00  0.00     0.030 A 
HETATM   16  N   UNL     1      45.012 -22.956   4.309  1.00  0.00    -0.365 N 
HETATM   17  C   UNL     1      43.956 -21.081   1.273  1.00  0.00     0.003 A 
HETATM   18  C   UNL     1      43.620 -19.895   1.920  1.00  0.00     0.018 A 
HETATM   19  H   UNL     1      45.297 -23.901   4.090  1.00  0.00     0.165 HD
HETATM   20  C   UNL     1      45.043 -22.391   5.554  1.00  0.00     0.089 A 
ENDBRANCH   8  11
ENDBRANCH   1   7
BRANCH   6  21
HETATM   21  O   UNL     1      41.059 -16.071   2.154  1.00  0.00    -0.343 OA
BRANCH  21  22
HETATM   22  C   UNL     1      41.996 -15.326   1.385  1.00  0.00     0.216 C 
BRANCH  22  23
HETATM   23  C   UNL     1      41.345 -14.938   0.086  1.00  0.00    -0.017 A 
HETATM   24  C   UNL     1      40.729 -13.698  -0.063  1.00  0.00     0.125 A 
HETATM   25  N   UNL     1      40.119 -13.283  -1.198  1.00  0.00    -0.272 NA
HETATM   26  C   UNL     1      40.123 -14.143  -2.239  1.00  0.00     0.116 A 
HETATM   27  C   UNL     1      40.705 -15.399  -2.196  1.00  0.00     0.020 A 
HETATM   28  C   UNL     1      41.323 -15.801  -1.014  1.00  0.00     0.012 A 
ENDBRANCH  22  23
ENDBRANCH  21  22
ENDBRANCH   6  21
TORSDOF 5
ENDMDL
MODEL 7
REMARK VINA RESULT:      -7.6      2.080      2.979
REMARK  5 active torsions:
REMARK  status: ('A' for Active; 'I' for Inactive)
REMARK    1  A    between atoms: C_5  and  C_6 
REMARK       I    between atoms: C_6  and  N_7 
REMARK    2  A    between atoms: N_7  and  C_8 
REMARK    3  A    between atoms: C_13  and  O_14 
REMARK    4  A    between atoms: O_14  and  C_15 
REMARK    5  A    between atoms: C_15  and  C_16 
ROOT
HETATM    1  C   UNL     1      41.700 -15.157   0.181  1.00  0.00     0.163 A 
HETATM    2  N   UNL     1      41.314 -15.934  -0.860  1.00  0.00    -0.241 NA
HETATM    3  C   UNL     1      40.834 -15.304  -1.951  1.00  0.00     0.119 A 
HETATM    4  C   UNL     1      40.753 -13.928  -2.070  1.00  0.00     0.022 A 
HETATM    5  C   UNL     1      41.229 -13.143  -1.023  1.00  0.00     0.042 A 
HETATM    6  C   UNL     1      41.742 -13.754   0.123  1.00  0.00     0.115 A 
ENDROOT
BRANCH   1   7
HETATM    7  N   UNL     1      42.091 -15.899   1.302  1.00  0.00    -0.305 N 
HETATM    8  C   UNL     1      41.231 -16.580   2.137  1.00  0.00     0.258 C 
HETATM    9  O   UNL     1      40.012 -16.651   2.020  1.00  0.00    -0.267 OA
HETATM   10  H   UNL     1      43.062 -16.161   1.281  1.00  0.00     0.170 HD
BRANCH   8  11
HETATM   11  C   UNL     1      41.864 -17.301   3.267  1.00  0.00     0.044 A 
HETATM   12  C   UNL     1      42.807 -18.346   3.100  1.00  0.00     0.008 A 
HETATM   13  C   UNL     1      43.362 -18.919   4.252  1.00  0.00     0.043 A 
HETATM   14  C   UNL     1      43.368 -19.059   1.994  1.00  0.00     0.032 A 
HETATM   15  C   UNL     1      43.003 -18.528   5.549  1.00  0.00     0.030 A 
HETATM   16  N   UNL     1      44.263 -19.879   3.846  1.00  0.00    -0.365 N 
HETATM   17  C   UNL     1      42.041 -17.528   5.687  1.00  0.00     0.003 A 
HETATM   18  C   UNL     1      41.479 -16.921   4.568  1.00  0.00     0.018 A 
HETATM   19  H   UNL     1      44.817 -20.445   4.475  1.00  0.00     0.165 HD
HETATM   20  C   UNL     1      44.271 -19.974   2.483  1.00  0.00     0.089 A 
ENDBRANCH   8  11
ENDBRANCH   1   7
BRANCH   6  21
HETATM   21  O   UNL     1      42.405 -13.091   1.118  1.00  0.00    -0.343 OA
BRANCH  21  22
HETATM   22  C   UNL     1      41.643 -12.463   2.141  1.00  0.00     0.216 C 
BRANCH  22  23
HETATM   23  C   UNL     1      42.174 -12.912   3.475  1.00  0.00    -0.017 A 
HETATM   24  C   UNL     1      41.508 -12.588   4.654  1.00  0.00     0.125 A 
HETATM   25  N   UNL     1      41.929 -12.951   5.890  1.00  0.00    -0.272 NA
HETATM   26  C   UNL     1      43.066 -13.676   5.955  1.00  0.00     0.116 A 
HETATM   27  C   UNL     1      43.804 -14.050   4.844  1.00  0.00     0.020 A 
HETATM   28  C   UNL     1      43.350 -13.660   3.587  1.00  0.00     0.012 A 
ENDBRANCH  22  23
ENDBRANCH  21  22
ENDBRANCH   6  21
TORSDOF 5
ENDMDL
MODEL 8
REMARK VINA RESULT:      -7.5      2.124      5.584
REMARK  5 active torsions:
REMARK  status: ('A' for Active; 'I' for Inactive)
REMARK    1  A    between atoms: C_5  and  C_6 
REMARK       I    between atoms: C_6  and  N_7 
REMARK    2  A    between atoms: N_7  and  C_8 
REMARK    3  A    between atoms: C_13  and  O_14 
REMARK    4  A    between atoms: O_14  and  C_15 
REMARK    5  A    between atoms: C_15  and  C_16 
ROOT
HETATM    1  C   UNL     1      40.737 -15.256   3.301  1.00  0.00     0.163 A 
HETATM    2  N   UNL     1      40.501 -14.777   4.547  1.00  0.00    -0.241 NA
HETATM    3  C   UNL     1      39.908 -13.569   4.637  1.00  0.00     0.119 A 
HETATM    4  C   UNL     1      39.504 -12.828   3.541  1.00  0.00     0.022 A 
HETATM    5  C   UNL     1      39.682 -13.372   2.271  1.00  0.00     0.042 A 
HETATM    6  C   UNL     1      40.284 -14.623   2.132  1.00  0.00     0.115 A 
ENDROOT
BRANCH   1   7
HETATM    7  N   UNL     1      41.442 -16.466   3.305  1.00  0.00    -0.305 N 
HETATM    8  C   UNL     1      42.771 -16.606   2.970  1.00  0.00     0.258 C 
HETATM    9  O   UNL     1      43.534 -15.704   2.637  1.00  0.00    -0.267 OA
HETATM   10  H   UNL     1      41.000 -17.176   3.866  1.00  0.00     0.170 HD
BRANCH   8  11
HETATM   11  C   UNL     1      43.315 -17.984   3.045  1.00  0.00     0.044 A 
HETATM   12  C   UNL     1      43.847 -18.553   4.228  1.00  0.00     0.008 A 
HETATM   13  C   UNL     1      44.291 -19.881   4.175  1.00  0.00     0.043 A 
HETATM   14  C   UNL     1      44.112 -18.100   5.559  1.00  0.00     0.032 A 
HETATM   15  C   UNL     1      44.261 -20.650   3.005  1.00  0.00     0.030 A 
HETATM   16  N   UNL     1      44.734 -20.222   5.434  1.00  0.00    -0.365 N 
HETATM   17  C   UNL     1      43.773 -20.054   1.843  1.00  0.00     0.003 A 
HETATM   18  C   UNL     1      43.305 -18.743   1.858  1.00  0.00     0.018 A 
HETATM   19  H   UNL     1      45.102 -21.130   5.684  1.00  0.00     0.165 HD
HETATM   20  C   UNL     1      44.632 -19.152   6.278  1.00  0.00     0.089 A 
ENDBRANCH   8  11
ENDBRANCH   1   7
BRANCH   6  21
HETATM   21  O   UNL     1      40.332 -15.329   0.962  1.00  0.00    -0.343 OA
BRANCH  21  22
HETATM   22  C   UNL     1      41.234 -14.902  -0.052  1.00  0.00     0.216 C 
BRANCH  22  23
HETATM   23  C   UNL     1      40.495 -14.867  -1.362  1.00  0.00    -0.017 A 
HETATM   24  C   UNL     1      40.950 -15.594  -2.459  1.00  0.00     0.125 A 
HETATM   25  N   UNL     1      40.342 -15.605  -3.669  1.00  0.00    -0.272 NA
HETATM   26  C   UNL     1      39.225 -14.859  -3.794  1.00  0.00     0.116 A 
HETATM   27  C   UNL     1      38.689 -14.098  -2.768  1.00  0.00     0.020 A 
HETATM   28  C   UNL     1      39.337 -14.103  -1.535  1.00  0.00     0.012 A 
ENDBRANCH  22  23
ENDBRANCH  21  22
ENDBRANCH   6  21
TORSDOF 5
ENDMDL
MODEL 9
REMARK VINA RESULT:      -7.5      1.536      4.887
REMARK  5 active torsions:
REMARK  status: ('A' for Active; 'I' for Inactive)
REMARK    1  A    between atoms: C_5  and  C_6 
REMARK       I    between atoms: C_6  and  N_7 
REMARK    2  A    between atoms: N_7  and  C_8 
REMARK    3  A    between atoms: C_13  and  O_14 
REMARK    4  A    between atoms: O_14  and  C_15 
REMARK    5  A    between atoms: C_15  and  C_16 
ROOT
HETATM    1  C   UNL     1      41.835 -14.954   1.469  1.00  0.00     0.163 A 
HETATM    2  N   UNL     1      40.965 -13.930   1.293  1.00  0.00    -0.241 NA
HETATM    3  C   UNL     1      40.344 -13.851   0.099  1.00  0.00     0.119 A 
HETATM    4  C   UNL     1      40.521 -14.767  -0.921  1.00  0.00     0.022 A 
HETATM    5  C   UNL     1      41.358 -15.858  -0.694  1.00  0.00     0.042 A 
HETATM    6  C   UNL     1      42.015 -15.984   0.531  1.00  0.00     0.115 A 
ENDROOT
BRANCH   1   7
HETATM    7  N   UNL     1      42.503 -14.900   2.698  1.00  0.00    -0.305 N 
HETATM    8  C   UNL     1      41.931 -15.176   3.921  1.00  0.00     0.258 C 
HETATM    9  O   UNL     1      40.769 -15.520   4.117  1.00  0.00    -0.267 OA
HETATM   10  H   UNL     1      43.504 -14.951   2.603  1.00  0.00     0.170 HD
BRANCH   8  11
HETATM   11  C   UNL     1      42.828 -15.056   5.096  1.00  0.00     0.044 A 
HETATM   12  C   UNL     1      42.867 -16.001   6.151  1.00  0.00     0.008 A 
HETATM   13  C   UNL     1      43.790 -15.793   7.185  1.00  0.00     0.043 A 
HETATM   14  C   UNL     1      42.142 -17.185   6.501  1.00  0.00     0.032 A 
HETATM   15  C   UNL     1      44.644 -14.683   7.234  1.00  0.00     0.030 A 
HETATM   16  N   UNL     1      43.667 -16.841   8.070  1.00  0.00    -0.365 N 
HETATM   17  C   UNL     1      44.556 -13.745   6.206  1.00  0.00     0.003 A 
HETATM   18  C   UNL     1      43.665 -13.925   5.151  1.00  0.00     0.018 A 
HETATM   19  H   UNL     1      44.222 -16.950   8.908  1.00  0.00     0.165 HD
HETATM   20  C   UNL     1      42.672 -17.687   7.667  1.00  0.00     0.089 A 
ENDBRANCH   8  11
ENDBRANCH   1   7
BRANCH   6  21
HETATM   21  O   UNL     1      42.698 -17.100   0.928  1.00  0.00    -0.343 OA
BRANCH  21  22
HETATM   22  C   UNL     1      41.992 -18.118   1.624  1.00  0.00     0.216 C 
BRANCH  22  23
HETATM   23  C   UNL     1      42.989 -18.981   2.347  1.00  0.00    -0.017 A 
HETATM   24  C   UNL     1      43.563 -18.560   3.544  1.00  0.00     0.125 A 
HETATM   25  N   UNL     1      44.471 -19.279   4.246  1.00  0.00    -0.272 NA
HETATM   26  C   UNL     1      44.823 -20.477   3.735  1.00  0.00     0.116 A 
HETATM   27  C   UNL     1      44.313 -20.989   2.553  1.00  0.00     0.020 A 
HETATM   28  C   UNL     1      43.384 -20.226   1.850  1.00  0.00     0.012 A 
ENDBRANCH  22  23
ENDBRANCH  21  22
ENDBRANCH   6  21
TORSDOF 5
ENDMDL
MODEL 10
REMARK VINA RESULT:      -7.5      1.802      6.410
REMARK  5 active torsions:
REMARK  status: ('A' for Active; 'I' for Inactive)
REMARK    1  A    between atoms: C_5  and  C_6 
REMARK       I    between atoms: C_6  and  N_7 
REMARK    2  A    between atoms: N_7  and  C_8 
REMARK    3  A    between atoms: C_13  and  O_14 
REMARK    4  A    between atoms: O_14  and  C_15 
REMARK    5  A    between atoms: C_15  and  C_16 
ROOT
HETATM    1  C   UNL     1      43.790 -18.949   3.774  1.00  0.00     0.163 A 
HETATM    2  N   UNL     1      44.645 -19.560   4.630  1.00  0.00    -0.241 NA
HETATM    3  C   UNL     1      45.016 -20.822   4.331  1.00  0.00     0.119 A 
HETATM    4  C   UNL     1      44.601 -21.495   3.196  1.00  0.00     0.022 A 
HETATM    5  C   UNL     1      43.786 -20.823   2.287  1.00  0.00     0.042 A 
HETATM    6  C   UNL     1      43.386 -19.513   2.553  1.00  0.00     0.115 A 
ENDROOT
BRANCH   1   7
HETATM    7  N   UNL     1      43.386 -17.683   4.215  1.00  0.00    -0.305 N 
HETATM    8  C   UNL     1      42.192 -17.412   4.849  1.00  0.00     0.258 C 
HETATM    9  O   UNL     1      41.320 -18.227   5.132  1.00  0.00    -0.267 OA
HETATM   10  H   UNL     1      44.153 -17.041   4.321  1.00  0.00     0.170 HD
BRANCH   8  11
HETATM   11  C   UNL     1      41.971 -15.996   5.231  1.00  0.00     0.044 A 
HETATM   12  C   UNL     1      42.895 -15.236   5.989  1.00  0.00     0.008 A 
HETATM   13  C   UNL     1      42.584 -13.894   6.248  1.00  0.00     0.043 A 
HETATM   14  C   UNL     1      44.141 -15.487   6.646  1.00  0.00     0.032 A 
HETATM   15  C   UNL     1      41.395 -13.289   5.822  1.00  0.00     0.030 A 
HETATM   16  N   UNL     1      43.629 -13.356   6.966  1.00  0.00    -0.365 N 
HETATM   17  C   UNL     1      40.481 -14.071   5.115  1.00  0.00     0.003 A 
HETATM   18  C   UNL     1      40.761 -15.403   4.821  1.00  0.00     0.018 A 
HETATM   19  H   UNL     1      43.673 -12.396   7.280  1.00  0.00     0.165 HD
HETATM   20  C   UNL     1      44.575 -14.312   7.215  1.00  0.00     0.089 A 
ENDBRANCH   8  11
ENDBRANCH   1   7
BRANCH   6  21
HETATM   21  O   UNL     1      42.754 -18.702   1.651  1.00  0.00    -0.343 OA
BRANCH  21  22
HETATM   22  C   UNL     1      43.502 -17.665   1.028  1.00  0.00     0.216 C 
BRANCH  22  23
HETATM   23  C   UNL     1      42.644 -16.432   0.963  1.00  0.00    -0.017 A 
HETATM   24  C   UNL     1      41.566 -16.357   0.086  1.00  0.00     0.125 A 
HETATM   25  N   UNL     1      40.754 -15.279  -0.033  1.00  0.00    -0.272 NA
HETATM   26  C   UNL     1      41.027 -14.224   0.763  1.00  0.00     0.116 A 
HETATM   27  C   UNL     1      42.075 -14.194   1.668  1.00  0.00     0.020 A 
HETATM   28  C   UNL     1      42.895 -15.315   1.766  1.00  0.00     0.012 A 
ENDBRANCH  22  23
ENDBRANCH  21  22
ENDBRANCH   6  21
TORSDOF 5
ENDMDL
