MODEL 1
REMARK VINA RESULT:      -9.2      0.000      0.000
REMARK  5 active torsions:
REMARK  status: ('A' for Active; 'I' for Inactive)
REMARK    1  A    between atoms: C_4  and  N_5 
REMARK       I    between atoms: N_5  and  C_6 
REMARK       I    between atoms: C_6  and  N_7 
REMARK    2  A    between atoms: N_7  and  C_8 
REMARK    3  A    between atoms: C_8  and  C_9 
REMARK       I    between atoms: C_9  and  N_10 
REMARK    4  A    between atoms: N_10  and  C_11 
REMARK    5  A    between atoms: C_13  and  C_14 
ROOT
HETATM    1  C   UNL     1      41.314 -15.959   4.048  1.00  0.00     0.239 C 
HETATM    2  N   UNL     1      40.407 -16.253   3.045  1.00  0.00    -0.326 N 
HETATM    3  O   UNL     1      42.000 -14.944   4.141  1.00  0.00    -0.271 OA
HETATM    4  H   UNL     1      40.067 -17.218   3.037  1.00  0.00     0.169 HD
ENDROOT
BRANCH   1   5
HETATM    5  C   UNL     1      41.344 -17.033   5.148  1.00  0.00     0.227 C 
BRANCH   5   6
HETATM    6  N   UNL     1      42.372 -18.051   5.014  1.00  0.00    -0.334 N 
HETATM    7  C   UNL     1      43.659 -17.793   5.362  1.00  0.00     0.321 C 
HETATM    8  N   UNL     1      44.610 -18.706   5.030  1.00  0.00    -0.309 N 
HETATM    9  O   UNL     1      43.990 -16.743   5.915  1.00  0.00    -0.247 OA
HETATM   10  H   UNL     1      45.537 -18.333   5.198  1.00  0.00     0.170 HD
HETATM   11  H   UNL     1      42.308 -18.587   4.162  1.00  0.00     0.164 HD
BRANCH   8  12
HETATM   12  C   UNL     1      44.561 -20.002   4.478  1.00  0.00     0.036 A 
HETATM   13  C   UNL     1      44.313 -20.291   3.134  1.00  0.00     0.036 A 
HETATM   14  C   UNL     1      44.353 -21.615   2.661  1.00  0.00    -0.060 A 
HETATM   15  C   UNL     1      44.095 -21.915   1.213  1.00  0.00     0.048 C 
HETATM   16  C   UNL     1      44.578 -22.659   3.563  1.00  0.00     0.007 A 
HETATM   17  C   UNL     1      44.772 -22.386   4.913  1.00  0.00     0.003 A 
HETATM   18  C   UNL     1      44.760 -21.066   5.367  1.00  0.00     0.029 A 
ENDBRANCH   8  12
ENDBRANCH   5   6
ENDBRANCH   1   5
BRANCH   2  19
HETATM   19  C   UNL     1      39.917 -15.404   2.036  1.00  0.00     0.035 A 
HETATM   20  C   UNL     1      40.626 -15.381   0.824  1.00  0.00     0.042 A 
HETATM   21  C   UNL     1      40.174 -14.630  -0.274  1.00  0.00    -0.021 A 
HETATM   22  C   UNL     1      39.011 -13.865  -0.126  1.00  0.00     0.012 A 
HETATM   23  C   UNL     1      38.310 -13.867   1.082  1.00  0.00     0.003 A 
HETATM   24  C   UNL     1      38.758 -14.640   2.155  1.00  0.00     0.029 A 
BRANCH  21  25
HETATM   25  C   UNL     1      40.875 -14.655  -1.548  1.00  0.00     0.010 A 
HETATM   26  C   UNL     1      40.875 -15.614  -2.590  1.00  0.00     0.152 A 
HETATM   27  N   UNL     1      41.690 -15.290  -3.598  1.00  0.00    -0.187 NA
HETATM   28  N   UNL     1      42.222 -14.123  -3.205  1.00  0.00    -0.289 N 
HETATM   29  H   UNL     1      42.895 -13.672  -3.815  1.00  0.00     0.188 HD
HETATM   30  C   UNL     1      41.770 -13.702  -1.988  1.00  0.00     0.123 A 
ENDBRANCH  21  25
ENDBRANCH   2  19
TORSDOF 5
ENDMDL
MODEL 2
REMARK VINA RESULT:      -8.9      4.944      8.371
REMARK  5 active torsions:
REMARK  status: ('A' for Active; 'I' for Inactive)
REMARK    1  A    between atoms: C_4  and  N_5 
REMARK       I    between atoms: N_5  and  C_6 
REMARK       I    between atoms: C_6  and  N_7 
REMARK    2  A    between atoms: N_7  and  C_8 
REMARK    3  A    between atoms: C_8  and  C_9 
REMARK       I    between atoms: C_9  and  N_10 
REMARK    4  A    between atoms: N_10  and  C_11 
REMARK    5  A    between atoms: C_13  and  C_14 
ROOT
HETATM    1  C   UNL     1      43.366 -14.386   4.208  1.00  0.00     0.239 C 
HETATM    2  N   UNL     1      43.088 -15.741   4.193  1.00  0.00    -0.326 N 
HETATM    3  O   UNL     1      44.065 -13.771   3.406  1.00  0.00    -0.271 OA
HETATM    4  H   UNL     1      42.640 -16.102   5.039  1.00  0.00     0.169 HD
ENDROOT
BRANCH   1   5
HETATM    5  C   UNL     1      42.623 -13.645   5.333  1.00  0.00     0.227 C 
BRANCH   5   6
HETATM    6  N   UNL     1      43.398 -13.368   6.531  1.00  0.00    -0.334 N 
HETATM    7  C   UNL     1      43.832 -14.377   7.330  1.00  0.00     0.321 C 
HETATM    8  N   UNL     1      44.374 -14.055   8.534  1.00  0.00    -0.309 N 
HETATM    9  O   UNL     1      43.700 -15.561   7.019  1.00  0.00    -0.247 OA
HETATM   10  H   UNL     1      44.511 -14.886   9.098  1.00  0.00     0.170 HD
HETATM   11  H   UNL     1      43.061 -12.579   7.062  1.00  0.00     0.164 HD
BRANCH   8  12
HETATM   12  C   UNL     1      44.727 -12.835   9.144  1.00  0.00     0.036 A 
HETATM   13  C   UNL     1      44.001 -12.208  10.161  1.00  0.00     0.036 A 
HETATM   14  C   UNL     1      44.470 -11.025  10.759  1.00  0.00    -0.060 A 
HETATM   15  C   UNL     1      43.689 -10.364  11.857  1.00  0.00     0.048 C 
HETATM   16  C   UNL     1      45.644 -10.434  10.282  1.00  0.00     0.007 A 
HETATM   17  C   UNL     1      46.346 -11.021   9.234  1.00  0.00     0.003 A 
HETATM   18  C   UNL     1      45.887 -12.211   8.667  1.00  0.00     0.029 A 
ENDBRANCH   8  12
ENDBRANCH   5   6
ENDBRANCH   1   5
BRANCH   2  19
HETATM   19  C   UNL     1      43.360 -16.676   3.177  1.00  0.00     0.035 A 
HETATM   20  C   UNL     1      43.735 -17.967   3.585  1.00  0.00     0.042 A 
HETATM   21  C   UNL     1      43.950 -18.994   2.652  1.00  0.00    -0.021 A 
HETATM   22  C   UNL     1      43.819 -18.698   1.290  1.00  0.00     0.012 A 
HETATM   23  C   UNL     1      43.465 -17.413   0.876  1.00  0.00     0.003 A 
HETATM   24  C   UNL     1      43.229 -16.409   1.817  1.00  0.00     0.029 A 
BRANCH  21  25
HETATM   25  C   UNL     1      44.278 -20.346   3.078  1.00  0.00     0.010 A 
HETATM   26  C   UNL     1      44.227 -21.578   2.380  1.00  0.00     0.152 A 
HETATM   27  N   UNL     1      44.578 -22.621   3.137  1.00  0.00    -0.187 NA
HETATM   28  N   UNL     1      44.852 -22.065   4.327  1.00  0.00    -0.289 N 
HETATM   29  H   UNL     1      45.139 -22.671   5.087  1.00  0.00     0.188 HD
HETATM   30  C   UNL     1      44.686 -20.710   4.344  1.00  0.00     0.123 A 
ENDBRANCH  21  25
ENDBRANCH   2  19
TORSDOF 5
ENDMDL
MODEL 3
REMARK VINA RESULT:      -8.7      5.719      9.115
REMARK  5 active torsions:
REMARK  status: ('A' for Active; 'I' for Inactive)
REMARK    1  A    between atoms: C_4  and  N_5 
REMARK       I    between atoms: N_5  and  C_6 
REMARK       I    between atoms: C_6  and  N_7 
REMARK    2  A    between atoms: N_7  and  C_8 
REMARK    3  A    between atoms: C_8  and  C_9 
REMARK       I    between atoms: C_9  and  N_10 
REMARK    4  A    between atoms: N_10  and  C_11 
REMARK    5  A    between atoms: C_13  and  C_14 
ROOT
HETATM    1  C   UNL     1      44.537 -14.035   6.676  1.00  0.00     0.239 C 
HETATM    2  N   UNL     1      44.170 -15.330   6.993  1.00  0.00    -0.326 N 
HETATM    3  O   UNL     1      44.283 -13.435   5.635  1.00  0.00    -0.271 OA
HETATM    4  H   UNL     1      44.624 -15.720   7.823  1.00  0.00     0.169 HD
ENDROOT
BRANCH   1   5
HETATM    5  C   UNL     1      45.268 -13.331   7.831  1.00  0.00     0.227 C 
BRANCH   5   6
HETATM    6  N   UNL     1      44.453 -12.459   8.661  1.00  0.00    -0.334 N 
HETATM    7  C   UNL     1      44.975 -11.330   9.208  1.00  0.00     0.321 C 
HETATM    8  N   UNL     1      44.233 -10.663  10.132  1.00  0.00    -0.309 N 
HETATM    9  O   UNL     1      46.106 -10.932   8.933  1.00  0.00    -0.247 OA
HETATM   10  H   UNL     1      44.785  -9.940  10.578  1.00  0.00     0.170 HD
HETATM   11  H   UNL     1      43.851 -12.951   9.303  1.00  0.00     0.164 HD
BRANCH   8  12
HETATM   12  C   UNL     1      42.913 -10.806  10.604  1.00  0.00     0.036 A 
HETATM   13  C   UNL     1      41.762 -10.604   9.837  1.00  0.00     0.036 A 
HETATM   14  C   UNL     1      40.485 -10.839  10.376  1.00  0.00    -0.060 A 
HETATM   15  C   UNL     1      39.254 -10.629   9.542  1.00  0.00     0.048 C 
HETATM   16  C   UNL     1      40.365 -11.216  11.716  1.00  0.00     0.007 A 
HETATM   17  C   UNL     1      41.501 -11.367  12.504  1.00  0.00     0.003 A 
HETATM   18  C   UNL     1      42.766 -11.160  11.951  1.00  0.00     0.029 A 
ENDBRANCH   8  12
ENDBRANCH   5   6
ENDBRANCH   1   5
BRANCH   2  19
HETATM   19  C   UNL     1      43.274 -16.175   6.312  1.00  0.00     0.035 A 
HETATM   20  C   UNL     1      43.834 -17.136   5.453  1.00  0.00     0.042 A 
HETATM   21  C   UNL     1      43.032 -18.079   4.790  1.00  0.00    -0.021 A 
HETATM   22  C   UNL     1      41.644 -18.021   4.971  1.00  0.00     0.012 A 
HETATM   23  C   UNL     1      41.079 -17.057   5.807  1.00  0.00     0.003 A 
HETATM   24  C   UNL     1      41.892 -16.143   6.480  1.00  0.00     0.029 A 
BRANCH  21  25
HETATM   25  C   UNL     1      43.617 -19.112   3.949  1.00  0.00     0.010 A 
HETATM   26  C   UNL     1      43.397 -19.437   2.588  1.00  0.00     0.152 A 
HETATM   27  N   UNL     1      44.108 -20.492   2.183  1.00  0.00    -0.187 NA
HETATM   28  N   UNL     1      44.785 -20.854   3.283  1.00  0.00    -0.289 N 
HETATM   29  H   UNL     1      45.401 -21.657   3.227  1.00  0.00     0.188 HD
HETATM   30  C   UNL     1      44.525 -20.063   4.365  1.00  0.00     0.123 A 
ENDBRANCH  21  25
ENDBRANCH   2  19
TORSDOF 5
ENDMDL
MODEL 4
REMARK VINA RESULT:      -8.6      5.084      9.079
REMARK  5 active torsions:
REMARK  status: ('A' for Active; 'I' for Inactive)
REMARK    1  A    between atoms: C_4  and  N_5 
REMARK       I    between atoms: N_5  and  C_6 
REMARK       I    between atoms: C_6  and  N_7 
REMARK    2  A    between atoms: N_7  and  C_8 
REMARK    3  A    between atoms: C_8  and  C_9 
REMARK       I    between atoms: C_9  and  N_10 
REMARK    4  A    between atoms: N_10  and  C_11 
REMARK    5  A    between atoms: C_13  and  C_14 
ROOT
HETATM    1  C   UNL     1      42.587 -15.377   5.901  1.00  0.00     0.239 C 
HETATM    2  N   UNL     1      43.647 -16.241   5.695  1.00  0.00    -0.326 N 
HETATM    3  O   UNL     1      41.445 -15.683   6.236  1.00  0.00    -0.271 OA
HETATM    4  H   UNL     1      44.466 -15.823   5.246  1.00  0.00     0.169 HD
ENDROOT
BRANCH   1   5
HETATM    5  C   UNL     1      42.991 -13.901   5.744  1.00  0.00     0.227 C 
BRANCH   5   6
HETATM    6  N   UNL     1      43.392 -13.220   6.964  1.00  0.00    -0.334 N 
HETATM    7  C   UNL     1      44.664 -13.318   7.431  1.00  0.00     0.321 C 
HETATM    8  N   UNL     1      44.931 -12.831   8.673  1.00  0.00    -0.309 N 
HETATM    9  O   UNL     1      45.555 -13.876   6.791  1.00  0.00    -0.247 OA
HETATM   10  H   UNL     1      45.862 -13.102   8.969  1.00  0.00     0.170 HD
HETATM   11  H   UNL     1      42.709 -13.271   7.705  1.00  0.00     0.164 HD
BRANCH   8  12
HETATM   12  C   UNL     1      44.180 -12.092   9.608  1.00  0.00     0.036 A 
HETATM   13  C   UNL     1      43.334 -11.025   9.292  1.00  0.00     0.036 A 
HETATM   14  C   UNL     1      42.569 -10.391  10.286  1.00  0.00    -0.060 A 
HETATM   15  C   UNL     1      41.656  -9.252   9.936  1.00  0.00     0.048 C 
HETATM   16  C   UNL     1      42.708 -10.793  11.618  1.00  0.00     0.007 A 
HETATM   17  C   UNL     1      43.587 -11.818  11.951  1.00  0.00     0.003 A 
HETATM   18  C   UNL     1      44.321 -12.460  10.952  1.00  0.00     0.029 A 
ENDBRANCH   8  12
ENDBRANCH   5   6
ENDBRANCH   1   5
BRANCH   2  19
HETATM   19  C   UNL     1      43.729 -17.611   6.005  1.00  0.00     0.035 A 
HETATM   20  C   UNL     1      43.891 -18.498   4.928  1.00  0.00     0.042 A 
HETATM   21  C   UNL     1      44.065 -19.876   5.137  1.00  0.00    -0.021 A 
HETATM   22  C   UNL     1      44.035 -20.362   6.449  1.00  0.00     0.012 A 
HETATM   23  C   UNL     1      43.855 -19.489   7.524  1.00  0.00     0.003 A 
HETATM   24  C   UNL     1      43.711 -18.118   7.302  1.00  0.00     0.029 A 
BRANCH  21  25
HETATM   25  C   UNL     1      44.294 -20.787   4.025  1.00  0.00     0.010 A 
HETATM   26  C   UNL     1      44.556 -22.178   4.004  1.00  0.00     0.152 A 
HETATM   27  N   UNL     1      44.749 -22.654   2.771  1.00  0.00    -0.187 NA
HETATM   28  N   UNL     1      44.616 -21.568   1.994  1.00  0.00    -0.289 N 
HETATM   29  H   UNL     1      44.732 -21.676   0.992  1.00  0.00     0.188 HD
HETATM   30  C   UNL     1      44.346 -20.428   2.695  1.00  0.00     0.123 A 
ENDBRANCH  21  25
ENDBRANCH   2  19
TORSDOF 5
ENDMDL
MODEL 5
REMARK VINA RESULT:      -8.5      2.598      7.676
REMARK  5 active torsions:
REMARK  status: ('A' for Active; 'I' for Inactive)
REMARK    1  A    between atoms: C_4  and  N_5 
REMARK       I    between atoms: N_5  and  C_6 
REMARK       I    between atoms: C_6  and  N_7 
REMARK    2  A    between atoms: N_7  and  C_8 
REMARK    3  A    between atoms: C_8  and  C_9 
REMARK       I    between atoms: C_9  and  N_10 
REMARK    4  A    between atoms: N_10  and  C_11 
REMARK    5  A    between atoms: C_13  and  C_14 
ROOT
HETATM    1  C   UNL     1      43.101 -13.992   4.802  1.00  0.00     0.239 C 
HETATM    2  N   UNL     1      42.769 -15.137   5.503  1.00  0.00    -0.326 N 
HETATM    3  O   UNL     1      44.198 -13.718   4.322  1.00  0.00    -0.271 OA
HETATM    4  H   UNL     1      41.865 -15.108   5.980  1.00  0.00     0.169 HD
ENDROOT
BRANCH   1   5
HETATM    5  C   UNL     1      41.894 -13.063   4.588  1.00  0.00     0.227 C 
BRANCH   5   6
HETATM    6  N   UNL     1      40.952 -13.472   3.560  1.00  0.00    -0.334 N 
HETATM    7  C   UNL     1      40.008 -14.415   3.816  1.00  0.00     0.321 C 
HETATM    8  N   UNL     1      39.288 -14.903   2.770  1.00  0.00    -0.309 N 
HETATM    9  O   UNL     1      39.826 -14.871   4.945  1.00  0.00    -0.247 OA
HETATM   10  H   UNL     1      38.736 -15.702   3.059  1.00  0.00     0.170 HD
HETATM   11  H   UNL     1      41.366 -13.585   2.648  1.00  0.00     0.164 HD
BRANCH   8  12
HETATM   12  C   UNL     1      39.199 -14.556   1.407  1.00  0.00     0.036 A 
HETATM   13  C   UNL     1      40.225 -14.715   0.471  1.00  0.00     0.036 A 
HETATM   14  C   UNL     1      40.019 -14.404  -0.885  1.00  0.00    -0.060 A 
HETATM   15  C   UNL     1      41.123 -14.587  -1.885  1.00  0.00     0.048 C 
HETATM   16  C   UNL     1      38.792 -13.867  -1.287  1.00  0.00     0.007 A 
HETATM   17  C   UNL     1      37.783 -13.654  -0.354  1.00  0.00     0.003 A 
HETATM   18  C   UNL     1      37.988 -13.993   0.985  1.00  0.00     0.029 A 
ENDBRANCH   8  12
ENDBRANCH   5   6
ENDBRANCH   1   5
BRANCH   2  19
HETATM   19  C   UNL     1      43.523 -16.316   5.656  1.00  0.00     0.035 A 
HETATM   20  C   UNL     1      43.381 -17.295   4.659  1.00  0.00     0.042 A 
HETATM   21  C   UNL     1      44.149 -18.471   4.675  1.00  0.00    -0.021 A 
HETATM   22  C   UNL     1      45.041 -18.672   5.736  1.00  0.00     0.012 A 
HETATM   23  C   UNL     1      45.173 -17.713   6.741  1.00  0.00     0.003 A 
HETATM   24  C   UNL     1      44.422 -16.536   6.697  1.00  0.00     0.029 A 
BRANCH  21  25
HETATM   25  C   UNL     1      44.047 -19.456   3.609  1.00  0.00     0.010 A 
HETATM   26  C   UNL     1      44.720 -20.687   3.415  1.00  0.00     0.152 A 
HETATM   27  N   UNL     1      44.375 -21.297   2.278  1.00  0.00    -0.187 NA
HETATM   28  N   UNL     1      43.480 -20.457   1.734  1.00  0.00    -0.289 N 
HETATM   29  H   UNL     1      43.070 -20.704   0.840  1.00  0.00     0.188 HD
HETATM   30  C   UNL     1      43.251 -19.343   2.488  1.00  0.00     0.123 A 
ENDBRANCH  21  25
ENDBRANCH   2  19
TORSDOF 5
ENDMDL
MODEL 6
REMARK VINA RESULT:      -8.5      5.069      8.897
REMARK  5 active torsions:
REMARK  status: ('A' for Active; 'I' for Inactive)
REMARK    1  A    between atoms: C_4  and  N_5 
REMARK       I    between atoms: N_5  and  C_6 
REMARK       I    between atoms: C_6  and  N_7 
REMARK    2  A    between atoms: N_7  and  C_8 
REMARK    3  A    between atoms: C_8  and  C_9 
REMARK       I    between atoms: C_9  and  N_10 
REMARK    4  A    between atoms: N_10  and  C_11 
REMARK    5  A    between atoms: C_13  and  C_14 
ROOT
HETATM    1  C   UNL     1      41.515 -14.881   5.674  1.00  0.00     0.239 C 
HETATM    2  N   UNL     1      42.772 -15.236   5.216  1.00  0.00    -0.326 N 
HETATM    3  O   UNL     1      40.709 -15.611   6.244  1.00  0.00    -0.271 OA
HETATM    4  H   UNL     1      43.223 -14.548   4.609  1.00  0.00     0.169 HD
ENDROOT
BRANCH   1   5
HETATM    5  C   UNL     1      41.216 -13.386   5.471  1.00  0.00     0.227 C 
BRANCH   5   6
HETATM    6  N   UNL     1      41.495 -12.523   6.607  1.00  0.00    -0.334 N 
HETATM    7  C   UNL     1      41.410 -11.172   6.493  1.00  0.00     0.321 C 
HETATM    8  N   UNL     1      41.874 -10.411   7.521  1.00  0.00    -0.309 N 
HETATM    9  O   UNL     1      40.981 -10.626   5.477  1.00  0.00    -0.247 OA
HETATM   10  H   UNL     1      41.903  -9.434   7.255  1.00  0.00     0.170 HD
HETATM   11  H   UNL     1      42.293 -12.811   7.152  1.00  0.00     0.164 HD
BRANCH   8  12
HETATM   12  C   UNL     1      42.344 -10.711   8.815  1.00  0.00     0.036 A 
HETATM   13  C   UNL     1      43.649 -11.106   9.122  1.00  0.00     0.036 A 
HETATM   14  C   UNL     1      44.045 -11.315  10.454  1.00  0.00    -0.060 A 
HETATM   15  C   UNL     1      45.452 -11.731  10.775  1.00  0.00     0.048 C 
HETATM   16  C   UNL     1      43.102 -11.190  11.478  1.00  0.00     0.007 A 
HETATM   17  C   UNL     1      41.786 -10.850  11.179  1.00  0.00     0.003 A 
HETATM   18  C   UNL     1      41.411 -10.615   9.855  1.00  0.00     0.029 A 
ENDBRANCH   8  12
ENDBRANCH   5   6
ENDBRANCH   1   5
BRANCH   2  19
HETATM   19  C   UNL     1      43.488 -16.422   5.465  1.00  0.00     0.035 A 
HETATM   20  C   UNL     1      43.387 -17.440   4.502  1.00  0.00     0.042 A 
HETATM   21  C   UNL     1      44.125 -18.629   4.615  1.00  0.00    -0.021 A 
HETATM   22  C   UNL     1      44.945 -18.802   5.737  1.00  0.00     0.012 A 
HETATM   23  C   UNL     1      45.036 -17.803   6.709  1.00  0.00     0.003 A 
HETATM   24  C   UNL     1      44.316 -16.615   6.568  1.00  0.00     0.029 A 
BRANCH  21  25
HETATM   25  C   UNL     1      44.067 -19.657   3.587  1.00  0.00     0.010 A 
HETATM   26  C   UNL     1      44.705 -20.918   3.498  1.00  0.00     0.152 A 
HETATM   27  N   UNL     1      44.425 -21.566   2.364  1.00  0.00    -0.187 NA
HETATM   28  N   UNL     1      43.608 -20.720   1.717  1.00  0.00    -0.289 N 
HETATM   29  H   UNL     1      43.260 -20.992   0.804  1.00  0.00     0.188 HD
HETATM   30  C   UNL     1      43.366 -19.566   2.403  1.00  0.00     0.123 A 
ENDBRANCH  21  25
ENDBRANCH   2  19
TORSDOF 5
ENDMDL
MODEL 7
REMARK VINA RESULT:      -8.5      2.002      8.011
REMARK  5 active torsions:
REMARK  status: ('A' for Active; 'I' for Inactive)
REMARK    1  A    between atoms: C_4  and  N_5 
REMARK       I    between atoms: N_5  and  C_6 
REMARK       I    between atoms: C_6  and  N_7 
REMARK    2  A    between atoms: N_7  and  C_8 
REMARK    3  A    between atoms: C_8  and  C_9 
REMARK       I    between atoms: C_9  and  N_10 
REMARK    4  A    between atoms: N_10  and  C_11 
REMARK    5  A    between atoms: C_13  and  C_14 
ROOT
HETATM    1  C   UNL     1      42.596 -14.970   3.860  1.00  0.00     0.239 C 
HETATM    2  N   UNL     1      42.295 -16.183   4.454  1.00  0.00    -0.326 N 
HETATM    3  O   UNL     1      43.714 -14.478   3.723  1.00  0.00    -0.271 OA
HETATM    4  H   UNL     1      41.302 -16.341   4.639  1.00  0.00     0.169 HD
ENDROOT
BRANCH   1   5
HETATM    5  C   UNL     1      41.354 -14.276   3.277  1.00  0.00     0.227 C 
BRANCH   5   6
HETATM    6  N   UNL     1      41.152 -14.433   1.846  1.00  0.00    -0.334 N 
HETATM    7  C   UNL     1      40.606 -15.569   1.340  1.00  0.00     0.321 C 
HETATM    8  N   UNL     1      40.625 -15.745  -0.009  1.00  0.00    -0.309 N 
HETATM    9  O   UNL     1      40.149 -16.455   2.063  1.00  0.00    -0.247 OA
HETATM   10  H   UNL     1      40.338 -16.687  -0.249  1.00  0.00     0.170 HD
HETATM   11  H   UNL     1      41.919 -14.096   1.285  1.00  0.00     0.164 HD
BRANCH   8  12
HETATM   12  C   UNL     1      40.994 -14.921  -1.090  1.00  0.00     0.036 A 
HETATM   13  C   UNL     1      41.698 -13.718  -0.977  1.00  0.00     0.036 A 
HETATM   14  C   UNL     1      42.084 -12.997  -2.121  1.00  0.00    -0.060 A 
HETATM   15  C   UNL     1      42.847 -11.712  -1.990  1.00  0.00     0.048 C 
HETATM   16  C   UNL     1      41.700 -13.458  -3.383  1.00  0.00     0.007 A 
HETATM   17  C   UNL     1      40.953 -14.625  -3.504  1.00  0.00     0.003 A 
HETATM   18  C   UNL     1      40.600 -15.349  -2.364  1.00  0.00     0.029 A 
ENDBRANCH   8  12
ENDBRANCH   5   6
ENDBRANCH   1   5
BRANCH   2  19
HETATM   19  C   UNL     1      43.179 -17.205   4.848  1.00  0.00     0.035 A 
HETATM   20  C   UNL     1      43.223 -18.354   4.041  1.00  0.00     0.042 A 
HETATM   21  C   UNL     1      44.129 -19.395   4.302  1.00  0.00    -0.021 A 
HETATM   22  C   UNL     1      44.970 -19.285   5.416  1.00  0.00     0.012 A 
HETATM   23  C   UNL     1      44.918 -18.156   6.234  1.00  0.00     0.003 A 
HETATM   24  C   UNL     1      44.031 -17.117   5.946  1.00  0.00     0.029 A 
BRANCH  21  25
HETATM   25  C   UNL     1      44.217 -20.557   3.431  1.00  0.00     0.010 A 
HETATM   26  C   UNL     1      44.634 -21.885   3.693  1.00  0.00     0.152 A 
HETATM   27  N   UNL     1      44.609 -22.664   2.608  1.00  0.00    -0.187 NA
HETATM   28  N   UNL     1      44.180 -21.837   1.642  1.00  0.00    -0.289 N 
HETATM   29  H   UNL     1      44.086 -22.205   0.701  1.00  0.00     0.188 HD
HETATM   30  C   UNL     1      43.934 -20.569   2.081  1.00  0.00     0.123 A 
ENDBRANCH  21  25
ENDBRANCH   2  19
TORSDOF 5
ENDMDL
MODEL 8
REMARK VINA RESULT:      -8.4      4.799      8.756
REMARK  5 active torsions:
REMARK  status: ('A' for Active; 'I' for Inactive)
REMARK    1  A    between atoms: C_4  and  N_5 
REMARK       I    between atoms: N_5  and  C_6 
REMARK       I    between atoms: C_6  and  N_7 
REMARK    2  A    between atoms: N_7  and  C_8 
REMARK    3  A    between atoms: C_8  and  C_9 
REMARK       I    between atoms: C_9  and  N_10 
REMARK    4  A    between atoms: N_10  and  C_11 
REMARK    5  A    between atoms: C_13  and  C_14 
ROOT
HETATM    1  C   UNL     1      41.402 -15.267   5.255  1.00  0.00     0.239 C 
HETATM    2  N   UNL     1      41.277 -16.220   4.260  1.00  0.00    -0.326 N 
HETATM    3  O   UNL     1      42.450 -14.802   5.697  1.00  0.00    -0.271 OA
HETATM    4  H   UNL     1      40.339 -16.615   4.153  1.00  0.00     0.169 HD
ENDROOT
BRANCH   1   5
HETATM    5  C   UNL     1      40.041 -14.744   5.744  1.00  0.00     0.227 C 
BRANCH   5   6
HETATM    6  N   UNL     1      40.084 -13.588   6.625  1.00  0.00    -0.334 N 
HETATM    7  C   UNL     1      39.379 -12.464   6.335  1.00  0.00     0.321 C 
HETATM    8  N   UNL     1      39.612 -11.350   7.079  1.00  0.00    -0.309 N 
HETATM    9  O   UNL     1      38.586 -12.413   5.395  1.00  0.00    -0.247 OA
HETATM   10  H   UNL     1      39.151 -10.546   6.671  1.00  0.00     0.170 HD
HETATM   11  H   UNL     1      41.005 -13.380   6.980  1.00  0.00     0.164 HD
BRANCH   8  12
HETATM   12  C   UNL     1      40.377 -11.098   8.236  1.00  0.00     0.036 A 
HETATM   13  C   UNL     1      39.896 -11.176   9.546  1.00  0.00     0.036 A 
HETATM   14  C   UNL     1      40.754 -10.976  10.642  1.00  0.00    -0.060 A 
HETATM   15  C   UNL     1      40.232 -11.070  12.047  1.00  0.00     0.048 C 
HETATM   16  C   UNL     1      42.089 -10.630  10.414  1.00  0.00     0.007 A 
HETATM   17  C   UNL     1      42.564 -10.497   9.114  1.00  0.00     0.003 A 
HETATM   18  C   UNL     1      41.712 -10.726   8.033  1.00  0.00     0.029 A 
ENDBRANCH   8  12
ENDBRANCH   5   6
ENDBRANCH   1   5
BRANCH   2  19
HETATM   19  C   UNL     1      42.272 -16.720   3.400  1.00  0.00     0.035 A 
HETATM   20  C   UNL     1      42.690 -18.044   3.614  1.00  0.00     0.042 A 
HETATM   21  C   UNL     1      43.618 -18.664   2.761  1.00  0.00    -0.021 A 
HETATM   22  C   UNL     1      44.156 -17.919   1.705  1.00  0.00     0.012 A 
HETATM   23  C   UNL     1      43.761 -16.596   1.498  1.00  0.00     0.003 A 
HETATM   24  C   UNL     1      42.816 -16.003   2.338  1.00  0.00     0.029 A 
BRANCH  21  25
HETATM   25  C   UNL     1      44.005 -20.054   2.946  1.00  0.00     0.010 A 
HETATM   26  C   UNL     1      43.848 -21.182   2.104  1.00  0.00     0.152 A 
HETATM   27  N   UNL     1      44.306 -22.311   2.651  1.00  0.00    -0.187 NA
HETATM   28  N   UNL     1      44.756 -21.914   3.852  1.00  0.00    -0.289 N 
HETATM   29  H   UNL     1      45.152 -22.612   4.472  1.00  0.00     0.188 HD
HETATM   30  C   UNL     1      44.597 -20.577   4.077  1.00  0.00     0.123 A 
ENDBRANCH  21  25
ENDBRANCH   2  19
TORSDOF 5
ENDMDL
MODEL 9
REMARK VINA RESULT:      -8.3      7.196     10.503
REMARK  5 active torsions:
REMARK  status: ('A' for Active; 'I' for Inactive)
REMARK    1  A    between atoms: C_4  and  N_5 
REMARK       I    between atoms: N_5  and  C_6 
REMARK       I    between atoms: C_6  and  N_7 
REMARK    2  A    between atoms: N_7  and  C_8 
REMARK    3  A    between atoms: C_8  and  C_9 
REMARK       I    between atoms: C_9  and  N_10 
REMARK    4  A    between atoms: N_10  and  C_11 
REMARK    5  A    between atoms: C_13  and  C_14 
ROOT
HETATM    1  C   UNL     1      41.767 -10.286   7.273  1.00  0.00     0.239 C 
HETATM    2  N   UNL     1      42.223 -11.307   8.088  1.00  0.00    -0.326 N 
HETATM    3  O   UNL     1      42.001  -9.087   7.400  1.00  0.00    -0.271 OA
HETATM    4  H   UNL     1      41.780 -12.216   7.935  1.00  0.00     0.169 HD
ENDROOT
BRANCH   1   5
HETATM    5  C   UNL     1      40.959 -10.808   6.073  1.00  0.00     0.227 C 
BRANCH   5   6
HETATM    6  N   UNL     1      40.992 -12.246   5.862  1.00  0.00    -0.334 N 
HETATM    7  C   UNL     1      39.967 -13.035   6.276  1.00  0.00     0.321 C 
HETATM    8  N   UNL     1      40.138 -14.384   6.236  1.00  0.00    -0.309 N 
HETATM    9  O   UNL     1      38.922 -12.567   6.730  1.00  0.00    -0.247 OA
HETATM   10  H   UNL     1      39.377 -14.854   6.712  1.00  0.00     0.170 HD
HETATM   11  H   UNL     1      41.892 -12.664   6.042  1.00  0.00     0.164 HD
BRANCH   8  12
HETATM   12  C   UNL     1      41.150 -15.218   5.721  1.00  0.00     0.036 A 
HETATM   13  C   UNL     1      42.299 -15.606   6.415  1.00  0.00     0.036 A 
HETATM   14  C   UNL     1      43.221 -16.501   5.843  1.00  0.00    -0.060 A 
HETATM   15  C   UNL     1      44.448 -16.919   6.600  1.00  0.00     0.048 C 
HETATM   16  C   UNL     1      43.015 -16.955   4.537  1.00  0.00     0.007 A 
HETATM   17  C   UNL     1      41.902 -16.533   3.817  1.00  0.00     0.003 A 
HETATM   18  C   UNL     1      40.978 -15.668   4.405  1.00  0.00     0.029 A 
ENDBRANCH   8  12
ENDBRANCH   5   6
ENDBRANCH   1   5
BRANCH   2  19
HETATM   19  C   UNL     1      43.195 -11.244   9.104  1.00  0.00     0.035 A 
HETATM   20  C   UNL     1      42.778 -10.761  10.355  1.00  0.00     0.042 A 
HETATM   21  C   UNL     1      43.650 -10.735  11.456  1.00  0.00    -0.021 A 
HETATM   22  C   UNL     1      44.969 -11.168  11.274  1.00  0.00     0.012 A 
HETATM   23  C   UNL     1      45.397 -11.632  10.029  1.00  0.00     0.003 A 
HETATM   24  C   UNL     1      44.510 -11.676   8.950  1.00  0.00     0.029 A 
BRANCH  21  25
HETATM   25  C   UNL     1      43.200 -10.291  12.767  1.00  0.00     0.010 A 
HETATM   26  C   UNL     1      42.186 -10.792  13.619  1.00  0.00     0.152 A 
HETATM   27  N   UNL     1      42.048 -10.079  14.740  1.00  0.00    -0.187 NA
HETATM   28  N   UNL     1      42.971  -9.114  14.611  1.00  0.00    -0.289 N 
HETATM   29  H   UNL     1      43.054  -8.426  15.352  1.00  0.00     0.188 HD
HETATM   30  C   UNL     1      43.684  -9.195  13.450  1.00  0.00     0.123 A 
ENDBRANCH  21  25
ENDBRANCH   2  19
TORSDOF 5
ENDMDL
MODEL 10
REMARK VINA RESULT:      -8.3      2.024      2.457
REMARK  5 active torsions:
REMARK  status: ('A' for Active; 'I' for Inactive)
REMARK    1  A    between atoms: C_4  and  N_5 
REMARK       I    between atoms: N_5  and  C_6 
REMARK       I    between atoms: C_6  and  N_7 
REMARK    2  A    between atoms: N_7  and  C_8 
REMARK    3  A    between atoms: C_8  and  C_9 
REMARK       I    between atoms: C_9  and  N_10 
REMARK    4  A    between atoms: N_10  and  C_11 
REMARK    5  A    between atoms: C_13  and  C_14 
ROOT
HETATM    1  C   UNL     1      41.273 -16.170   4.648  1.00  0.00     0.239 C 
HETATM    2  N   UNL     1      42.040 -16.400   3.520  1.00  0.00    -0.326 N 
HETATM    3  O   UNL     1      40.318 -15.403   4.742  1.00  0.00    -0.271 OA
HETATM    4  H   UNL     1      42.899 -16.932   3.680  1.00  0.00     0.169 HD
ENDROOT
BRANCH   1   5
HETATM    5  C   UNL     1      41.684 -17.064   5.831  1.00  0.00     0.227 C 
BRANCH   5   6
HETATM    6  N   UNL     1      42.655 -18.103   5.534  1.00  0.00    -0.334 N 
HETATM    7  C   UNL     1      43.981 -17.901   5.752  1.00  0.00     0.321 C 
HETATM    8  N   UNL     1      44.858 -18.823   5.272  1.00  0.00    -0.309 N 
HETATM    9  O   UNL     1      44.405 -16.893   6.317  1.00  0.00    -0.247 OA
HETATM   10  H   UNL     1      45.810 -18.487   5.356  1.00  0.00     0.170 HD
HETATM   11  H   UNL     1      42.481 -18.590   4.668  1.00  0.00     0.164 HD
BRANCH   8  12
HETATM   12  C   UNL     1      44.704 -20.085   4.665  1.00  0.00     0.036 A 
HETATM   13  C   UNL     1      44.437 -20.295   3.309  1.00  0.00     0.036 A 
HETATM   14  C   UNL     1      44.369 -21.595   2.779  1.00  0.00    -0.060 A 
HETATM   15  C   UNL     1      44.091 -21.811   1.320  1.00  0.00     0.048 C 
HETATM   16  C   UNL     1      44.507 -22.692   3.635  1.00  0.00     0.007 A 
HETATM   17  C   UNL     1      44.719 -22.496   4.995  1.00  0.00     0.003 A 
HETATM   18  C   UNL     1      44.813 -21.200   5.506  1.00  0.00     0.029 A 
ENDBRANCH   8  12
ENDBRANCH   5   6
ENDBRANCH   1   5
BRANCH   2  19
HETATM   19  C   UNL     1      41.797 -15.981   2.199  1.00  0.00     0.035 A 
HETATM   20  C   UNL     1      41.917 -14.606   1.936  1.00  0.00     0.042 A 
HETATM   21  C   UNL     1      41.774 -14.096   0.635  1.00  0.00    -0.021 A 
HETATM   22  C   UNL     1      41.468 -14.986  -0.402  1.00  0.00     0.012 A 
HETATM   23  C   UNL     1      41.327 -16.351  -0.145  1.00  0.00     0.003 A 
HETATM   24  C   UNL     1      41.499 -16.846   1.150  1.00  0.00     0.029 A 
BRANCH  21  25
HETATM   25  C   UNL     1      41.960 -12.681   0.352  1.00  0.00     0.010 A 
HETATM   26  C   UNL     1      42.407 -12.018  -0.817  1.00  0.00     0.152 A 
HETATM   27  N   UNL     1      42.479 -10.693  -0.670  1.00  0.00    -0.187 NA
HETATM   28  N   UNL     1      42.082 -10.498   0.597  1.00  0.00    -0.289 N 
HETATM   29  H   UNL     1      42.061  -9.549   0.954  1.00  0.00     0.188 HD
HETATM   30  C   UNL     1      41.764 -11.653   1.250  1.00  0.00     0.123 A 
ENDBRANCH  21  25
ENDBRANCH   2  19
TORSDOF 5
ENDMDL
