MODEL 1
REMARK VINA RESULT:      -7.9      0.000      0.000
REMARK  5 active torsions:
REMARK  status: ('A' for Active; 'I' for Inactive)
REMARK    1  A    between atoms: C_4  and  S_5 
REMARK    2  A    between atoms: S_5  and  C_6 
REMARK    3  A    between atoms: C_6  and  C_7 
REMARK       I    between atoms: C_7  and  N_8 
REMARK    4  A    between atoms: N_8  and  C_9 
REMARK    5  A    between atoms: C_11  and  C_12 
ROOT
HETATM    1  C   UNL     1      40.570 -15.859   2.138  1.00  0.00     0.035 A 
HETATM    2  C   UNL     1      41.060 -15.750   0.832  1.00  0.00     0.042 A 
HETATM    3  C   UNL     1      40.522 -14.822  -0.076  1.00  0.00    -0.021 A 
HETATM    4  C   UNL     1      39.479 -13.991   0.353  1.00  0.00     0.012 A 
HETATM    5  C   UNL     1      38.989 -14.083   1.656  1.00  0.00     0.003 A 
HETATM    6  C   UNL     1      39.534 -15.013   2.543  1.00  0.00     0.029 A 
ENDROOT
BRANCH   1   7
HETATM    7  N   UNL     1      41.062 -16.778   3.088  1.00  0.00    -0.327 N 
HETATM    8  C   UNL     1      42.274 -16.747   3.752  1.00  0.00     0.231 C 
HETATM    9  O   UNL     1      43.139 -15.881   3.627  1.00  0.00    -0.272 OA
HETATM   10  H   UNL     1      40.498 -17.605   3.255  1.00  0.00     0.169 HD
BRANCH   8  11
HETATM   11  C   UNL     1      42.476 -17.858   4.774  1.00  0.00     0.182 C 
BRANCH  11  12
HETATM   12  S   UNL     1      44.223 -18.354   4.964  1.00  0.00    -0.121 SA
BRANCH  12  13
HETATM   13  C   UNL     1      44.216 -19.789   3.905  1.00  0.00     0.001 A 
HETATM   14  C   UNL     1      43.705 -19.692   2.607  1.00  0.00     0.018 A 
HETATM   15  C   UNL     1      43.686 -20.814   1.774  1.00  0.00     0.001 A 
HETATM   16  C   UNL     1      44.187 -22.033   2.231  1.00  0.00     0.000 A 
HETATM   17  C   UNL     1      44.713 -22.130   3.518  1.00  0.00     0.001 A 
HETATM   18  C   UNL     1      44.732 -21.010   4.351  1.00  0.00     0.018 A 
ENDBRANCH  12  13
ENDBRANCH  11  12
ENDBRANCH   8  11
ENDBRANCH   1   7
BRANCH   3  19
HETATM   19  C   UNL     1      41.045 -14.748  -1.434  1.00  0.00     0.010 A 
HETATM   20  C   UNL     1      40.865 -15.614  -2.542  1.00  0.00     0.152 A 
HETATM   21  N   UNL     1      41.522 -15.210  -3.633  1.00  0.00    -0.187 NA
HETATM   22  N   UNL     1      42.134 -14.087  -3.229  1.00  0.00    -0.289 N 
HETATM   23  H   UNL     1      42.711 -13.589  -3.897  1.00  0.00     0.188 HD
HETATM   24  C   UNL     1      41.882 -13.767  -1.926  1.00  0.00     0.123 A 
ENDBRANCH   3  19
TORSDOF 5
ENDMDL
MODEL 2
REMARK VINA RESULT:      -7.7      3.365      6.615
REMARK  5 active torsions:
REMARK  status: ('A' for Active; 'I' for Inactive)
REMARK    1  A    between atoms: C_4  and  S_5 
REMARK    2  A    between atoms: S_5  and  C_6 
REMARK    3  A    between atoms: C_6  and  C_7 
REMARK       I    between atoms: C_7  and  N_8 
REMARK    4  A    between atoms: N_8  and  C_9 
REMARK    5  A    between atoms: C_11  and  C_12 
ROOT
HETATM    1  C   UNL     1      43.315 -16.180   5.002  1.00  0.00     0.035 A 
HETATM    2  C   UNL     1      43.343 -17.289   4.151  1.00  0.00     0.042 A 
HETATM    3  C   UNL     1      44.054 -18.454   4.489  1.00  0.00    -0.021 A 
HETATM    4  C   UNL     1      44.737 -18.492   5.711  1.00  0.00     0.012 A 
HETATM    5  C   UNL     1      44.708 -17.395   6.574  1.00  0.00     0.003 A 
HETATM    6  C   UNL     1      43.999 -16.246   6.220  1.00  0.00     0.029 A 
ENDROOT
BRANCH   1   7
HETATM    7  N   UNL     1      42.630 -14.982   4.712  1.00  0.00    -0.327 N 
HETATM    8  C   UNL     1      43.114 -13.864   4.059  1.00  0.00     0.231 C 
HETATM    9  O   UNL     1      44.247 -13.736   3.598  1.00  0.00    -0.272 OA
HETATM   10  H   UNL     1      41.694 -14.889   5.093  1.00  0.00     0.169 HD
BRANCH   8  11
HETATM   11  C   UNL     1      42.093 -12.754   3.843  1.00  0.00     0.182 C 
BRANCH  11  12
HETATM   12  S   UNL     1      41.505 -12.640   2.118  1.00  0.00    -0.121 SA
BRANCH  12  13
HETATM   13  C   UNL     1      41.253 -14.377   1.801  1.00  0.00     0.001 A 
HETATM   14  C   UNL     1      40.142 -15.028   2.345  1.00  0.00     0.018 A 
HETATM   15  C   UNL     1      39.942 -16.391   2.110  1.00  0.00     0.001 A 
HETATM   16  C   UNL     1      40.846 -17.105   1.323  1.00  0.00     0.000 A 
HETATM   17  C   UNL     1      41.946 -16.456   0.765  1.00  0.00     0.001 A 
HETATM   18  C   UNL     1      42.147 -15.095   0.999  1.00  0.00     0.018 A 
ENDBRANCH  12  13
ENDBRANCH  11  12
ENDBRANCH   8  11
ENDBRANCH   1   7
BRANCH   3  19
HETATM   19  C   UNL     1      44.076 -19.584   3.570  1.00  0.00     0.010 A 
HETATM   20  C   UNL     1      44.765 -20.821   3.641  1.00  0.00     0.152 A 
HETATM   21  N   UNL     1      44.536 -21.608   2.587  1.00  0.00    -0.187 NA
HETATM   22  N   UNL     1      43.705 -20.879   1.829  1.00  0.00    -0.289 N 
HETATM   23  H   UNL     1      43.386 -21.272   0.950  1.00  0.00     0.188 HD
HETATM   24  C   UNL     1      43.399 -19.663   2.370  1.00  0.00     0.123 A 
ENDBRANCH   3  19
TORSDOF 5
ENDMDL
MODEL 3
REMARK VINA RESULT:      -7.7      3.679      6.209
REMARK  5 active torsions:
REMARK  status: ('A' for Active; 'I' for Inactive)
REMARK    1  A    between atoms: C_4  and  S_5 
REMARK    2  A    between atoms: S_5  and  C_6 
REMARK    3  A    between atoms: C_6  and  C_7 
REMARK       I    between atoms: C_7  and  N_8 
REMARK    4  A    between atoms: N_8  and  C_9 
REMARK    5  A    between atoms: C_11  and  C_12 
ROOT
HETATM    1  C   UNL     1      43.397 -16.705   3.035  1.00  0.00     0.035 A 
HETATM    2  C   UNL     1      43.750 -18.014   3.380  1.00  0.00     0.042 A 
HETATM    3  C   UNL     1      43.819 -19.032   2.412  1.00  0.00    -0.021 A 
HETATM    4  C   UNL     1      43.532 -18.711   1.080  1.00  0.00     0.012 A 
HETATM    5  C   UNL     1      43.189 -17.407   0.722  1.00  0.00     0.003 A 
HETATM    6  C   UNL     1      43.123 -16.409   1.696  1.00  0.00     0.029 A 
ENDROOT
BRANCH   1   7
HETATM    7  N   UNL     1      43.300 -15.646   3.961  1.00  0.00    -0.327 N 
HETATM    8  C   UNL     1      42.279 -15.391   4.857  1.00  0.00     0.231 C 
HETATM    9  O   UNL     1      41.267 -16.075   5.005  1.00  0.00    -0.272 OA
HETATM   10  H   UNL     1      44.025 -14.937   3.920  1.00  0.00     0.169 HD
BRANCH   8  11
HETATM   11  C   UNL     1      42.510 -14.196   5.773  1.00  0.00     0.182 C 
BRANCH  11  12
HETATM   12  S   UNL     1      44.141 -14.222   6.594  1.00  0.00    -0.121 SA
BRANCH  12  13
HETATM   13  C   UNL     1      44.212 -15.956   7.004  1.00  0.00     0.001 A 
HETATM   14  C   UNL     1      45.167 -16.775   6.394  1.00  0.00     0.018 A 
HETATM   15  C   UNL     1      45.225 -18.136   6.702  1.00  0.00     0.001 A 
HETATM   16  C   UNL     1      44.335 -18.682   7.627  1.00  0.00     0.000 A 
HETATM   17  C   UNL     1      43.391 -17.867   8.250  1.00  0.00     0.001 A 
HETATM   18  C   UNL     1      43.334 -16.506   7.943  1.00  0.00     0.018 A 
ENDBRANCH  12  13
ENDBRANCH  11  12
ENDBRANCH   8  11
ENDBRANCH   1   7
BRANCH   3  19
HETATM   19  C   UNL     1      44.173 -20.388   2.811  1.00  0.00     0.010 A 
HETATM   20  C   UNL     1      44.125 -21.606   2.086  1.00  0.00     0.152 A 
HETATM   21  N   UNL     1      44.529 -22.657   2.805  1.00  0.00    -0.187 NA
HETATM   22  N   UNL     1      44.832 -22.121   3.996  1.00  0.00    -0.289 N 
HETATM   23  H   UNL     1      45.165 -22.738   4.729  1.00  0.00     0.188 HD
HETATM   24  C   UNL     1      44.637 -20.771   4.052  1.00  0.00     0.123 A 
ENDBRANCH   3  19
TORSDOF 5
ENDMDL
MODEL 4
REMARK VINA RESULT:      -7.6      3.094      7.698
REMARK  5 active torsions:
REMARK  status: ('A' for Active; 'I' for Inactive)
REMARK    1  A    between atoms: C_4  and  S_5 
REMARK    2  A    between atoms: S_5  and  C_6 
REMARK    3  A    between atoms: C_6  and  C_7 
REMARK       I    between atoms: C_7  and  N_8 
REMARK    4  A    between atoms: N_8  and  C_9 
REMARK    5  A    between atoms: C_11  and  C_12 
ROOT
HETATM    1  C   UNL     1      43.392 -17.937   2.549  1.00  0.00     0.035 A 
HETATM    2  C   UNL     1      43.318 -17.635   3.913  1.00  0.00     0.042 A 
HETATM    3  C   UNL     1      43.792 -18.530   4.888  1.00  0.00    -0.021 A 
HETATM    4  C   UNL     1      44.353 -19.743   4.469  1.00  0.00     0.012 A 
HETATM    5  C   UNL     1      44.442 -20.051   3.111  1.00  0.00     0.003 A 
HETATM    6  C   UNL     1      43.964 -19.151   2.157  1.00  0.00     0.029 A 
ENDROOT
BRANCH   1   7
HETATM    7  N   UNL     1      42.924 -17.085   1.528  1.00  0.00    -0.327 N 
HETATM    8  C   UNL     1      41.672 -17.069   0.942  1.00  0.00     0.231 C 
HETATM    9  O   UNL     1      40.733 -17.807   1.236  1.00  0.00    -0.272 OA
HETATM   10  H   UNL     1      43.604 -16.457   1.112  1.00  0.00     0.169 HD
BRANCH   8  11
HETATM   11  C   UNL     1      41.462 -15.973  -0.095  1.00  0.00     0.182 C 
BRANCH  11  12
HETATM   12  S   UNL     1      40.406 -14.609   0.503  1.00  0.00    -0.121 SA
BRANCH  12  13
HETATM   13  C   UNL     1      41.164 -14.356   2.098  1.00  0.00     0.001 A 
HETATM   14  C   UNL     1      42.395 -13.698   2.185  1.00  0.00     0.018 A 
HETATM   15  C   UNL     1      43.001 -13.505   3.429  1.00  0.00     0.001 A 
HETATM   16  C   UNL     1      42.375 -13.958   4.590  1.00  0.00     0.000 A 
HETATM   17  C   UNL     1      41.141 -14.600   4.509  1.00  0.00     0.001 A 
HETATM   18  C   UNL     1      40.534 -14.794   3.267  1.00  0.00     0.018 A 
ENDBRANCH  12  13
ENDBRANCH  11  12
ENDBRANCH   8  11
ENDBRANCH   1   7
BRANCH   3  19
HETATM   19  C   UNL     1      43.682 -18.190   6.301  1.00  0.00     0.010 A 
HETATM   20  C   UNL     1      43.367 -16.961   6.933  1.00  0.00     0.152 A 
HETATM   21  N   UNL     1      43.372 -17.044   8.266  1.00  0.00    -0.187 NA
HETATM   22  N   UNL     1      43.699 -18.323   8.497  1.00  0.00    -0.289 N 
HETATM   23  H   UNL     1      43.772 -18.634   9.460  1.00  0.00     0.188 HD
HETATM   24  C   UNL     1      43.894 -19.050   7.358  1.00  0.00     0.123 A 
ENDBRANCH   3  19
TORSDOF 5
ENDMDL
MODEL 5
REMARK VINA RESULT:      -7.6      2.986      8.322
REMARK  5 active torsions:
REMARK  status: ('A' for Active; 'I' for Inactive)
REMARK    1  A    between atoms: C_4  and  S_5 
REMARK    2  A    between atoms: S_5  and  C_6 
REMARK    3  A    between atoms: C_6  and  C_7 
REMARK       I    between atoms: C_7  and  N_8 
REMARK    4  A    between atoms: N_8  and  C_9 
REMARK    5  A    between atoms: C_11  and  C_12 
ROOT
HETATM    1  C   UNL     1      42.468 -17.812   2.404  1.00  0.00     0.035 A 
HETATM    2  C   UNL     1      42.537 -17.722   3.798  1.00  0.00     0.042 A 
HETATM    3  C   UNL     1      43.400 -18.546   4.543  1.00  0.00    -0.021 A 
HETATM    4  C   UNL     1      44.204 -19.466   3.859  1.00  0.00     0.012 A 
HETATM    5  C   UNL     1      44.152 -19.557   2.468  1.00  0.00     0.003 A 
HETATM    6  C   UNL     1      43.288 -18.733   1.745  1.00  0.00     0.029 A 
ENDROOT
BRANCH   1   7
HETATM    7  N   UNL     1      41.616 -17.021   1.606  1.00  0.00    -0.327 N 
HETATM    8  C   UNL     1      41.655 -15.652   1.420  1.00  0.00     0.231 C 
HETATM    9  O   UNL     1      42.472 -14.882   1.924  1.00  0.00    -0.272 OA
HETATM   10  H   UNL     1      40.829 -17.494   1.173  1.00  0.00     0.169 HD
BRANCH   8  11
HETATM   11  C   UNL     1      40.629 -15.107   0.434  1.00  0.00     0.182 C 
BRANCH  11  12
HETATM   12  S   UNL     1      41.375 -14.471  -1.106  1.00  0.00    -0.121 SA
BRANCH  12  13
HETATM   13  C   UNL     1      40.026 -14.807  -2.223  1.00  0.00     0.001 A 
HETATM   14  C   UNL     1      40.175 -15.774  -3.221  1.00  0.00     0.018 A 
HETATM   15  C   UNL     1      39.127 -16.037  -4.107  1.00  0.00     0.001 A 
HETATM   16  C   UNL     1      37.923 -15.342  -3.992  1.00  0.00     0.000 A 
HETATM   17  C   UNL     1      37.764 -14.388  -2.987  1.00  0.00     0.001 A 
HETATM   18  C   UNL     1      38.811 -14.125  -2.102  1.00  0.00     0.018 A 
ENDBRANCH  12  13
ENDBRANCH  11  12
ENDBRANCH   8  11
ENDBRANCH   1   7
BRANCH   3  19
HETATM   19  C   UNL     1      43.433 -18.437   5.995  1.00  0.00     0.010 A 
HETATM   20  C   UNL     1      43.144 -17.340   6.846  1.00  0.00     0.152 A 
HETATM   21  N   UNL     1      43.298 -17.630   8.141  1.00  0.00    -0.187 NA
HETATM   22  N   UNL     1      43.695 -18.911   8.129  1.00  0.00    -0.289 N 
HETATM   23  H   UNL     1      43.885 -19.364   9.016  1.00  0.00     0.188 HD
HETATM   24  C   UNL     1      43.791 -19.439   6.873  1.00  0.00     0.123 A 
ENDBRANCH   3  19
TORSDOF 5
ENDMDL
MODEL 6
REMARK VINA RESULT:      -7.4      4.746      7.826
REMARK  5 active torsions:
REMARK  status: ('A' for Active; 'I' for Inactive)
REMARK    1  A    between atoms: C_4  and  S_5 
REMARK    2  A    between atoms: S_5  and  C_6 
REMARK    3  A    between atoms: C_6  and  C_7 
REMARK       I    between atoms: C_7  and  N_8 
REMARK    4  A    between atoms: N_8  and  C_9 
REMARK    5  A    between atoms: C_11  and  C_12 
ROOT
HETATM    1  C   UNL     1      43.542 -16.885   3.446  1.00  0.00     0.035 A 
HETATM    2  C   UNL     1      43.871 -18.216   3.722  1.00  0.00     0.042 A 
HETATM    3  C   UNL     1      43.975 -19.172   2.696  1.00  0.00    -0.021 A 
HETATM    4  C   UNL     1      43.748 -18.766   1.375  1.00  0.00     0.012 A 
HETATM    5  C   UNL     1      43.430 -17.439   1.086  1.00  0.00     0.003 A 
HETATM    6  C   UNL     1      43.329 -16.504   2.118  1.00  0.00     0.029 A 
ENDROOT
BRANCH   1   7
HETATM    7  N   UNL     1      43.413 -15.886   4.432  1.00  0.00    -0.327 N 
HETATM    8  C   UNL     1      43.680 -14.535   4.312  1.00  0.00     0.231 C 
HETATM    9  O   UNL     1      44.071 -13.968   3.293  1.00  0.00    -0.272 OA
HETATM   10  H   UNL     1      43.170 -16.197   5.367  1.00  0.00     0.169 HD
BRANCH   8  11
HETATM   11  C   UNL     1      43.372 -13.706   5.553  1.00  0.00     0.182 C 
BRANCH  11  12
HETATM   12  S   UNL     1      43.830 -14.542   7.110  1.00  0.00    -0.121 SA
BRANCH  12  13
HETATM   13  C   UNL     1      44.931 -13.305   7.771  1.00  0.00     0.001 A 
HETATM   14  C   UNL     1      46.188 -13.112   7.190  1.00  0.00     0.018 A 
HETATM   15  C   UNL     1      47.061 -12.151   7.707  1.00  0.00     0.001 A 
HETATM   16  C   UNL     1      46.678 -11.375   8.800  1.00  0.00     0.000 A 
HETATM   17  C   UNL     1      45.420 -11.552   9.373  1.00  0.00     0.001 A 
HETATM   18  C   UNL     1      44.546 -12.511   8.857  1.00  0.00     0.018 A 
ENDBRANCH  12  13
ENDBRANCH  11  12
ENDBRANCH   8  11
ENDBRANCH   1   7
BRANCH   3  19
HETATM   19  C   UNL     1      44.303 -20.554   3.022  1.00  0.00     0.010 A 
HETATM   20  C   UNL     1      44.245 -21.729   2.230  1.00  0.00     0.152 A 
HETATM   21  N   UNL     1      44.623 -22.825   2.894  1.00  0.00    -0.187 NA
HETATM   22  N   UNL     1      44.918 -22.361   4.118  1.00  0.00    -0.289 N 
HETATM   23  H   UNL     1      45.231 -23.023   4.819  1.00  0.00     0.188 HD
HETATM   24  C   UNL     1      44.743 -21.013   4.246  1.00  0.00     0.123 A 
ENDBRANCH   3  19
TORSDOF 5
ENDMDL
MODEL 7
REMARK VINA RESULT:      -7.3      1.938      2.699
REMARK  5 active torsions:
REMARK  status: ('A' for Active; 'I' for Inactive)
REMARK    1  A    between atoms: C_4  and  S_5 
REMARK    2  A    between atoms: S_5  and  C_6 
REMARK    3  A    between atoms: C_6  and  C_7 
REMARK       I    between atoms: C_7  and  N_8 
REMARK    4  A    between atoms: N_8  and  C_9 
REMARK    5  A    between atoms: C_11  and  C_12 
ROOT
HETATM    1  C   UNL     1      42.848 -15.408   4.045  1.00  0.00     0.035 A 
HETATM    2  C   UNL     1      42.307 -15.430   2.756  1.00  0.00     0.042 A 
HETATM    3  C   UNL     1      41.935 -14.244   2.097  1.00  0.00    -0.021 A 
HETATM    4  C   UNL     1      42.124 -13.024   2.758  1.00  0.00     0.012 A 
HETATM    5  C   UNL     1      42.674 -12.988   4.040  1.00  0.00     0.003 A 
HETATM    6  C   UNL     1      43.034 -14.176   4.679  1.00  0.00     0.029 A 
ENDROOT
BRANCH   1   7
HETATM    7  N   UNL     1      43.229 -16.563   4.758  1.00  0.00    -0.327 N 
HETATM    8  C   UNL     1      42.408 -17.503   5.353  1.00  0.00     0.231 C 
HETATM    9  O   UNL     1      41.178 -17.491   5.342  1.00  0.00    -0.272 OA
HETATM   10  H   UNL     1      44.222 -16.687   4.928  1.00  0.00     0.169 HD
BRANCH   8  11
HETATM   11  C   UNL     1      43.135 -18.679   5.994  1.00  0.00     0.182 C 
BRANCH  11  12
HETATM   12  S   UNL     1      44.836 -18.901   5.368  1.00  0.00    -0.121 SA
BRANCH  12  13
HETATM   13  C   UNL     1      44.491 -20.042   4.041  1.00  0.00     0.001 A 
HETATM   14  C   UNL     1      44.802 -21.397   4.192  1.00  0.00     0.018 A 
HETATM   15  C   UNL     1      44.544 -22.296   3.154  1.00  0.00     0.001 A 
HETATM   16  C   UNL     1      43.968 -21.847   1.966  1.00  0.00     0.000 A 
HETATM   17  C   UNL     1      43.642 -20.500   1.817  1.00  0.00     0.001 A 
HETATM   18  C   UNL     1      43.898 -19.601   2.854  1.00  0.00     0.018 A 
ENDBRANCH  12  13
ENDBRANCH  11  12
ENDBRANCH   8  11
ENDBRANCH   1   7
BRANCH   3  19
HETATM   19  C   UNL     1      41.358 -14.306   0.761  1.00  0.00     0.010 A 
HETATM   20  C   UNL     1      41.773 -13.705  -0.454  1.00  0.00     0.152 A 
HETATM   21  N   UNL     1      40.969 -13.993  -1.480  1.00  0.00    -0.187 NA
HETATM   22  N   UNL     1      40.028 -14.774  -0.929  1.00  0.00    -0.289 N 
HETATM   23  H   UNL     1      39.285 -15.123  -1.524  1.00  0.00     0.188 HD
HETATM   24  C   UNL     1      40.214 -14.991   0.406  1.00  0.00     0.123 A 
ENDBRANCH   3  19
TORSDOF 5
ENDMDL
MODEL 8
REMARK VINA RESULT:      -7.3      2.962      7.518
REMARK  5 active torsions:
REMARK  status: ('A' for Active; 'I' for Inactive)
REMARK    1  A    between atoms: C_4  and  S_5 
REMARK    2  A    between atoms: S_5  and  C_6 
REMARK    3  A    between atoms: C_6  and  C_7 
REMARK       I    between atoms: C_7  and  N_8 
REMARK    4  A    between atoms: N_8  and  C_9 
REMARK    5  A    between atoms: C_11  and  C_12 
ROOT
HETATM    1  C   UNL     1      42.178 -17.198   3.344  1.00  0.00     0.035 A 
HETATM    2  C   UNL     1      42.557 -18.461   2.881  1.00  0.00     0.042 A 
HETATM    3  C   UNL     1      43.579 -19.195   3.509  1.00  0.00    -0.021 A 
HETATM    4  C   UNL     1      44.215 -18.638   4.625  1.00  0.00     0.012 A 
HETATM    5  C   UNL     1      43.839 -17.382   5.103  1.00  0.00     0.003 A 
HETATM    6  C   UNL     1      42.824 -16.667   4.465  1.00  0.00     0.029 A 
ENDROOT
BRANCH   1   7
HETATM    7  N   UNL     1      41.169 -16.411   2.750  1.00  0.00    -0.327 N 
HETATM    8  C   UNL     1      41.316 -15.418   1.800  1.00  0.00     0.231 C 
HETATM    9  O   UNL     1      42.379 -15.059   1.295  1.00  0.00    -0.272 OA
HETATM   10  H   UNL     1      40.228 -16.527   3.112  1.00  0.00     0.169 HD
BRANCH   8  11
HETATM   11  C   UNL     1      40.013 -14.799   1.309  1.00  0.00     0.182 C 
BRANCH  11  12
HETATM   12  S   UNL     1      40.265 -13.418   0.142  1.00  0.00    -0.121 SA
BRANCH  12  13
HETATM   13  C   UNL     1      39.919 -14.281  -1.380  1.00  0.00     0.001 A 
HETATM   14  C   UNL     1      38.722 -14.037  -2.060  1.00  0.00     0.018 A 
HETATM   15  C   UNL     1      38.438 -14.715  -3.248  1.00  0.00     0.001 A 
HETATM   16  C   UNL     1      39.352 -15.633  -3.765  1.00  0.00     0.000 A 
HETATM   17  C   UNL     1      40.554 -15.867  -3.100  1.00  0.00     0.001 A 
HETATM   18  C   UNL     1      40.839 -15.190  -1.913  1.00  0.00     0.018 A 
ENDBRANCH  12  13
ENDBRANCH  11  12
ENDBRANCH   8  11
ENDBRANCH   1   7
BRANCH   3  19
HETATM   19  C   UNL     1      43.960 -20.502   2.988  1.00  0.00     0.010 A 
HETATM   20  C   UNL     1      44.578 -21.606   3.626  1.00  0.00     0.152 A 
HETATM   21  N   UNL     1      44.776 -22.640   2.804  1.00  0.00    -0.187 NA
HETATM   22  N   UNL     1      44.295 -22.202   1.632  1.00  0.00    -0.289 N 
HETATM   23  H   UNL     1      44.340 -22.823   0.832  1.00  0.00     0.188 HD
HETATM   24  C   UNL     1      43.796 -20.932   1.688  1.00  0.00     0.123 A 
ENDBRANCH   3  19
TORSDOF 5
ENDMDL
MODEL 9
REMARK VINA RESULT:      -7.2      2.958      7.976
REMARK  5 active torsions:
REMARK  status: ('A' for Active; 'I' for Inactive)
REMARK    1  A    between atoms: C_4  and  S_5 
REMARK    2  A    between atoms: S_5  and  C_6 
REMARK    3  A    between atoms: C_6  and  C_7 
REMARK       I    between atoms: C_7  and  N_8 
REMARK    4  A    between atoms: N_8  and  C_9 
REMARK    5  A    between atoms: C_11  and  C_12 
ROOT
HETATM    1  C   UNL     1      43.587 -17.283   3.933  1.00  0.00     0.035 A 
HETATM    2  C   UNL     1      43.799 -18.618   3.574  1.00  0.00     0.042 A 
HETATM    3  C   UNL     1      44.276 -19.559   4.504  1.00  0.00    -0.021 A 
HETATM    4  C   UNL     1      44.532 -19.136   5.814  1.00  0.00     0.012 A 
HETATM    5  C   UNL     1      44.315 -17.809   6.187  1.00  0.00     0.003 A 
HETATM    6  C   UNL     1      43.843 -16.889   5.250  1.00  0.00     0.029 A 
ENDROOT
BRANCH   1   7
HETATM    7  N   UNL     1      43.122 -16.293   3.043  1.00  0.00    -0.327 N 
HETATM    8  C   UNL     1      41.853 -15.750   2.965  1.00  0.00     0.231 C 
HETATM    9  O   UNL     1      40.902 -16.040   3.689  1.00  0.00    -0.272 OA
HETATM   10  H   UNL     1      43.766 -15.993   2.319  1.00  0.00     0.169 HD
BRANCH   8  11
HETATM   11  C   UNL     1      41.691 -14.643   1.930  1.00  0.00     0.182 C 
BRANCH  11  12
HETATM   12  S   UNL     1      40.443 -15.028   0.654  1.00  0.00    -0.121 SA
BRANCH  12  13
HETATM   13  C   UNL     1      41.205 -14.201  -0.731  1.00  0.00     0.001 A 
HETATM   14  C   UNL     1      41.026 -14.704  -2.023  1.00  0.00     0.018 A 
HETATM   15  C   UNL     1      41.627 -14.069  -3.113  1.00  0.00     0.001 A 
HETATM   16  C   UNL     1      42.401 -12.925  -2.916  1.00  0.00     0.000 A 
HETATM   17  C   UNL     1      42.569 -12.411  -1.631  1.00  0.00     0.001 A 
HETATM   18  C   UNL     1      41.968 -13.045  -0.542  1.00  0.00     0.018 A 
ENDBRANCH  12  13
ENDBRANCH  11  12
ENDBRANCH   8  11
ENDBRANCH   1   7
BRANCH   3  19
HETATM   19  C   UNL     1      44.502 -20.938   4.090  1.00  0.00     0.010 A 
HETATM   20  C   UNL     1      44.451 -21.538   2.807  1.00  0.00     0.152 A 
HETATM   21  N   UNL     1      44.713 -22.847   2.832  1.00  0.00    -0.187 NA
HETATM   22  N   UNL     1      44.926 -23.097   4.132  1.00  0.00    -0.289 N 
HETATM   23  H   UNL     1      45.144 -24.048   4.409  1.00  0.00     0.188 HD
HETATM   24  C   UNL     1      44.812 -21.991   4.925  1.00  0.00     0.123 A 
ENDBRANCH   3  19
TORSDOF 5
ENDMDL
MODEL 10
REMARK VINA RESULT:      -7.2      2.971      8.084
REMARK  5 active torsions:
REMARK  status: ('A' for Active; 'I' for Inactive)
REMARK    1  A    between atoms: C_4  and  S_5 
REMARK    2  A    between atoms: S_5  and  C_6 
REMARK    3  A    between atoms: C_6  and  C_7 
REMARK       I    between atoms: C_7  and  N_8 
REMARK    4  A    between atoms: N_8  and  C_9 
REMARK    5  A    between atoms: C_11  and  C_12 
ROOT
HETATM    1  C   UNL     1      43.700 -17.319   4.172  1.00  0.00     0.035 A 
HETATM    2  C   UNL     1      43.890 -18.634   3.736  1.00  0.00     0.042 A 
HETATM    3  C   UNL     1      44.338 -19.639   4.612  1.00  0.00    -0.021 A 
HETATM    4  C   UNL     1      44.588 -19.301   5.947  1.00  0.00     0.012 A 
HETATM    5  C   UNL     1      44.392 -17.994   6.397  1.00  0.00     0.003 A 
HETATM    6  C   UNL     1      43.949 -17.010   5.513  1.00  0.00     0.029 A 
ENDROOT
BRANCH   1   7
HETATM    7  N   UNL     1      43.263 -16.268   3.339  1.00  0.00    -0.327 N 
HETATM    8  C   UNL     1      41.965 -15.861   3.094  1.00  0.00     0.231 C 
HETATM    9  O   UNL     1      40.953 -16.355   3.590  1.00  0.00    -0.272 OA
HETATM   10  H   UNL     1      43.975 -15.799   2.788  1.00  0.00     0.169 HD
BRANCH   8  11
HETATM   11  C   UNL     1      41.833 -14.642   2.190  1.00  0.00     0.182 C 
BRANCH  11  12
HETATM   12  S   UNL     1      41.622 -15.071   0.428  1.00  0.00    -0.121 SA
BRANCH  12  13
HETATM   13  C   UNL     1      39.975 -14.431   0.187  1.00  0.00     0.001 A 
HETATM   14  C   UNL     1      39.637 -13.823  -1.026  1.00  0.00     0.018 A 
HETATM   15  C   UNL     1      38.352 -13.310  -1.220  1.00  0.00     0.001 A 
HETATM   16  C   UNL     1      37.399 -13.411  -0.208  1.00  0.00     0.000 A 
HETATM   17  C   UNL     1      37.726 -14.030   0.997  1.00  0.00     0.001 A 
HETATM   18  C   UNL     1      39.009 -14.544   1.192  1.00  0.00     0.018 A 
ENDBRANCH  12  13
ENDBRANCH  11  12
ENDBRANCH   8  11
ENDBRANCH   1   7
BRANCH   3  19
HETATM   19  C   UNL     1      44.542 -20.995   4.118  1.00  0.00     0.010 A 
HETATM   20  C   UNL     1      44.453 -21.523   2.806  1.00  0.00     0.152 A 
HETATM   21  N   UNL     1      44.705 -22.833   2.753  1.00  0.00    -0.187 NA
HETATM   22  N   UNL     1      44.949 -23.156   4.031  1.00  0.00    -0.289 N 
HETATM   23  H   UNL     1      45.166 -24.122   4.250  1.00  0.00     0.188 HD
HETATM   24  C   UNL     1      44.865 -22.094   4.886  1.00  0.00     0.123 A 
ENDBRANCH   3  19
TORSDOF 5
ENDMDL
