MODEL 1
REMARK VINA RESULT:      -8.4      0.000      0.000
REMARK  3 active torsions:
REMARK  status: ('A' for Active; 'I' for Inactive)
REMARK    1  A    between atoms: C_2  and  C_3 
REMARK    2  A    between atoms: C_8  and  C_9 
REMARK    3  A    between atoms: C_9  and  N_10 
ROOT
HETATM    1  C   UNL     1      43.679 -18.077   6.774  1.00  0.00     0.096 A 
HETATM    2  N   UNL     1      43.773 -18.793   7.902  1.00  0.00    -0.174 NA
HETATM    3  N   UNL     1      43.646 -17.913   8.896  1.00  0.00    -0.288 N 
HETATM    4  H   UNL     1      43.642 -18.265   9.852  1.00  0.00     0.188 HD
HETATM    5  C   UNL     1      43.548 -16.625   8.459  1.00  0.00     0.120 A 
HETATM    6  C   UNL     1      43.584 -16.678   7.076  1.00  0.00     0.016 A 
ENDROOT
BRANCH   6   7
HETATM    7  C   UNL     1      43.516 -15.539   6.123  1.00  0.00     0.277 C 
BRANCH   7   8
HETATM    8  N   UNL     1      42.300 -14.657   6.305  1.00  0.00    -0.067 N 
HETATM    9  H   UNL     1      42.328 -14.420   7.304  1.00  0.00     0.280 HD
HETATM   10  C   UNL     1      42.346 -13.328   5.589  1.00  0.00     0.242 C 
HETATM   11  C   UNL     1      41.953 -13.406   4.110  1.00  0.00     0.041 C 
HETATM   12  C   UNL     1      40.720 -14.282   3.881  1.00  0.00     0.128 C 
HETATM   13  C   UNL     1      43.116 -13.712   3.150  1.00  0.00     0.011 C 
HETATM   14  O   UNL     1      40.473 -14.454   2.496  1.00  0.00    -0.385 OA
HETATM   15  C   UNL     1      40.722 -15.608   4.637  1.00  0.00     0.060 C 
HETATM   16  C   UNL     1      41.504 -15.047   1.713  1.00  0.00     0.168 C 
HETATM   17  C   UNL     1      42.906 -14.954   2.301  1.00  0.00     0.027 C 
HETATM   18  C   UNL     1      40.993 -15.379   6.110  1.00  0.00     0.237 C 
ENDBRANCH   7   8
ENDBRANCH   6   7
BRANCH   1  19
HETATM   19  C   UNL     1      43.721 -18.747   5.472  1.00  0.00    -0.002 A 
HETATM   20  C   UNL     1      43.113 -18.147   4.358  1.00  0.00     0.017 A 
HETATM   21  C   UNL     1      43.118 -18.783   3.112  1.00  0.00     0.040 A 
HETATM   22  C   UNL     1      43.729 -20.026   2.973  1.00  0.00     0.102 A 
HETATM   23  C   UNL     1      44.326 -20.636   4.077  1.00  0.00     0.103 A 
HETATM   24  O   UNL     1      43.703 -20.592   1.727  1.00  0.00    -0.346 OA
HETATM   25  C   UNL     1      44.356 -19.985   5.311  1.00  0.00     0.053 A 
HETATM   26  O   UNL     1      44.906 -21.879   4.030  1.00  0.00    -0.346 OA
HETATM   27  C   UNL     1      44.556 -22.577   2.825  1.00  0.00     0.202 C 
HETATM   28  C   UNL     1      44.654 -21.658   1.618  1.00  0.00     0.202 C 
ENDBRANCH   1  19
TORSDOF 3
ENDMDL
MODEL 2
REMARK VINA RESULT:      -8.3      2.480      4.969
REMARK  3 active torsions:
REMARK  status: ('A' for Active; 'I' for Inactive)
REMARK    1  A    between atoms: C_2  and  C_3 
REMARK    2  A    between atoms: C_8  and  C_9 
REMARK    3  A    between atoms: C_9  and  N_10 
ROOT
HETATM    1  C   UNL     1      44.068 -19.799   3.146  1.00  0.00     0.096 A 
HETATM    2  N   UNL     1      44.032 -20.975   2.505  1.00  0.00    -0.174 NA
HETATM    3  N   UNL     1      44.592 -21.854   3.338  1.00  0.00    -0.288 N 
HETATM    4  H   UNL     1      44.621 -22.832   3.056  1.00  0.00     0.188 HD
HETATM    5  C   UNL     1      45.068 -21.279   4.479  1.00  0.00     0.120 A 
HETATM    6  C   UNL     1      44.767 -19.930   4.392  1.00  0.00     0.016 A 
ENDROOT
BRANCH   6   7
HETATM    7  C   UNL     1      45.077 -18.865   5.383  1.00  0.00     0.277 C 
BRANCH   7   8
HETATM    8  N   UNL     1      44.277 -18.965   6.664  1.00  0.00    -0.067 N 
HETATM    9  H   UNL     1      44.706 -19.761   7.149  1.00  0.00     0.280 HD
HETATM   10  C   UNL     1      44.426 -17.802   7.616  1.00  0.00     0.242 C 
HETATM   11  C   UNL     1      43.545 -16.598   7.267  1.00  0.00     0.041 C 
HETATM   12  C   UNL     1      42.123 -17.008   6.882  1.00  0.00     0.128 C 
HETATM   13  C   UNL     1      44.185 -15.593   6.294  1.00  0.00     0.011 C 
HETATM   14  O   UNL     1      41.382 -15.891   6.423  1.00  0.00    -0.385 OA
HETATM   15  C   UNL     1      42.032 -18.195   5.925  1.00  0.00     0.060 C 
HETATM   16  C   UNL     1      41.887 -15.184   5.294  1.00  0.00     0.168 C 
HETATM   17  C   UNL     1      43.376 -15.358   5.029  1.00  0.00     0.027 C 
HETATM   18  C   UNL     1      42.840 -19.363   6.450  1.00  0.00     0.237 C 
ENDBRANCH   7   8
ENDBRANCH   6   7
BRANCH   1  19
HETATM   19  C   UNL     1      43.477 -18.608   2.532  1.00  0.00    -0.002 A 
HETATM   20  C   UNL     1      44.300 -17.677   1.879  1.00  0.00     0.017 A 
HETATM   21  C   UNL     1      43.759 -16.519   1.311  1.00  0.00     0.040 A 
HETATM   22  C   UNL     1      42.389 -16.283   1.394  1.00  0.00     0.102 A 
HETATM   23  C   UNL     1      41.564 -17.198   2.051  1.00  0.00     0.103 A 
HETATM   24  O   UNL     1      41.922 -15.135   0.814  1.00  0.00    -0.346 OA
HETATM   25  C   UNL     1      42.097 -18.372   2.584  1.00  0.00     0.053 A 
HETATM   26  O   UNL     1      40.214 -17.013   2.215  1.00  0.00    -0.346 OA
HETATM   27  C   UNL     1      39.828 -15.664   1.912  1.00  0.00     0.202 C 
HETATM   28  C   UNL     1      40.501 -15.180   0.638  1.00  0.00     0.202 C 
ENDBRANCH   1  19
TORSDOF 3
ENDMDL
MODEL 3
REMARK VINA RESULT:      -8.3      1.905      5.677
REMARK  3 active torsions:
REMARK  status: ('A' for Active; 'I' for Inactive)
REMARK    1  A    between atoms: C_2  and  C_3 
REMARK    2  A    between atoms: C_8  and  C_9 
REMARK    3  A    between atoms: C_9  and  N_10 
ROOT
HETATM    1  C   UNL     1      43.670 -16.968   7.530  1.00  0.00     0.096 A 
HETATM    2  N   UNL     1      43.408 -16.985   8.844  1.00  0.00    -0.174 NA
HETATM    3  N   UNL     1      43.973 -18.101   9.306  1.00  0.00    -0.288 N 
HETATM    4  H   UNL     1      43.930 -18.283  10.307  1.00  0.00     0.188 HD
HETATM    5  C   UNL     1      44.534 -18.862   8.323  1.00  0.00     0.120 A 
HETATM    6  C   UNL     1      44.344 -18.172   7.138  1.00  0.00     0.016 A 
ENDROOT
BRANCH   6   7
HETATM    7  C   UNL     1      44.768 -18.579   5.773  1.00  0.00     0.277 C 
BRANCH   7   8
HETATM    8  N   UNL     1      43.903 -19.659   5.158  1.00  0.00    -0.067 N 
HETATM    9  H   UNL     1      43.721 -20.293   5.945  1.00  0.00     0.280 HD
HETATM   10  C   UNL     1      42.538 -19.213   4.692  1.00  0.00     0.242 C 
HETATM   11  C   UNL     1      42.539 -18.555   3.309  1.00  0.00     0.041 C 
HETATM   12  C   UNL     1      43.408 -19.312   2.304  1.00  0.00     0.128 C 
HETATM   13  C   UNL     1      42.785 -17.036   3.319  1.00  0.00     0.011 C 
HETATM   14  O   UNL     1      43.507 -18.599   1.083  1.00  0.00    -0.385 OA
HETATM   15  C   UNL     1      44.773 -19.747   2.831  1.00  0.00     0.060 C 
HETATM   16  C   UNL     1      44.050 -17.283   1.132  1.00  0.00     0.168 C 
HETATM   17  C   UNL     1      43.981 -16.599   2.490  1.00  0.00     0.027 C 
HETATM   18  C   UNL     1      44.622 -20.501   4.136  1.00  0.00     0.237 C 
ENDBRANCH   7   8
ENDBRANCH   6   7
BRANCH   1  19
HETATM   19  C   UNL     1      43.236 -15.835   6.709  1.00  0.00    -0.002 A 
HETATM   20  C   UNL     1      44.176 -14.885   6.276  1.00  0.00     0.017 A 
HETATM   21  C   UNL     1      43.778 -13.782   5.515  1.00  0.00     0.040 A 
HETATM   22  C   UNL     1      42.436 -13.618   5.183  1.00  0.00     0.102 A 
HETATM   23  C   UNL     1      41.493 -14.551   5.617  1.00  0.00     0.103 A 
HETATM   24  O   UNL     1      42.114 -12.520   4.432  1.00  0.00    -0.346 OA
HETATM   25  C   UNL     1      41.894 -15.673   6.343  1.00  0.00     0.053 A 
HETATM   26  O   UNL     1      40.148 -14.434   5.370  1.00  0.00    -0.346 OA
HETATM   27  C   UNL     1      39.812 -13.121   4.897  1.00  0.00     0.202 C 
HETATM   28  C   UNL     1      40.810 -12.649   3.851  1.00  0.00     0.202 C 
ENDBRANCH   1  19
TORSDOF 3
ENDMDL
MODEL 4
REMARK VINA RESULT:      -8.1      2.542      4.541
REMARK  3 active torsions:
REMARK  status: ('A' for Active; 'I' for Inactive)
REMARK    1  A    between atoms: C_2  and  C_3 
REMARK    2  A    between atoms: C_8  and  C_9 
REMARK    3  A    between atoms: C_9  and  N_10 
ROOT
HETATM    1  C   UNL     1      42.280 -17.074   1.234  1.00  0.00     0.096 A 
HETATM    2  N   UNL     1      42.595 -16.922  -0.059  1.00  0.00    -0.174 NA
HETATM    3  N   UNL     1      41.842 -15.912  -0.495  1.00  0.00    -0.288 N 
HETATM    4  H   UNL     1      41.965 -15.601  -1.457  1.00  0.00     0.188 HD
HETATM    5  C   UNL     1      40.981 -15.441   0.452  1.00  0.00     0.120 A 
HETATM    6  C   UNL     1      41.216 -16.183   1.597  1.00  0.00     0.016 A 
ENDROOT
BRANCH   6   7
HETATM    7  C   UNL     1      40.532 -16.062   2.912  1.00  0.00     0.277 C 
BRANCH   7   8
HETATM    8  N   UNL     1      40.626 -14.683   3.530  1.00  0.00    -0.067 N 
HETATM    9  H   UNL     1      40.056 -14.104   2.902  1.00  0.00     0.280 HD
HETATM   10  C   UNL     1      39.984 -14.534   4.888  1.00  0.00     0.242 C 
HETATM   11  C   UNL     1      40.866 -15.012   6.047  1.00  0.00     0.041 C 
HETATM   12  C   UNL     1      42.317 -14.550   5.904  1.00  0.00     0.128 C 
HETATM   13  C   UNL     1      40.723 -16.505   6.391  1.00  0.00     0.011 C 
HETATM   14  O   UNL     1      43.133 -15.131   6.906  1.00  0.00    -0.385 OA
HETATM   15  C   UNL     1      42.911 -14.715   4.507  1.00  0.00     0.060 C 
HETATM   16  C   UNL     1      43.196 -16.553   6.961  1.00  0.00     0.168 C 
HETATM   17  C   UNL     1      42.025 -17.284   6.317  1.00  0.00     0.027 C 
HETATM   18  C   UNL     1      42.007 -14.085   3.468  1.00  0.00     0.237 C 
ENDBRANCH   7   8
ENDBRANCH   6   7
BRANCH   1  19
HETATM   19  C   UNL     1      42.972 -18.075   2.048  1.00  0.00    -0.002 A 
HETATM   20  C   UNL     1      43.692 -17.676   3.186  1.00  0.00     0.017 A 
HETATM   21  C   UNL     1      44.383 -18.613   3.960  1.00  0.00     0.040 A 
HETATM   22  C   UNL     1      44.362 -19.957   3.600  1.00  0.00     0.102 A 
HETATM   23  C   UNL     1      43.658 -20.363   2.465  1.00  0.00     0.103 A 
HETATM   24  O   UNL     1      45.054 -20.824   4.403  1.00  0.00    -0.346 OA
HETATM   25  C   UNL     1      42.936 -19.435   1.714  1.00  0.00     0.053 A 
HETATM   26  O   UNL     1      43.629 -21.661   2.021  1.00  0.00    -0.346 OA
HETATM   27  C   UNL     1      44.629 -22.462   2.668  1.00  0.00     0.202 C 
HETATM   28  C   UNL     1      44.666 -22.182   4.161  1.00  0.00     0.202 C 
ENDBRANCH   1  19
TORSDOF 3
ENDMDL
MODEL 5
REMARK VINA RESULT:      -8.0      1.911      3.129
REMARK  3 active torsions:
REMARK  status: ('A' for Active; 'I' for Inactive)
REMARK    1  A    between atoms: C_2  and  C_3 
REMARK    2  A    between atoms: C_8  and  C_9 
REMARK    3  A    between atoms: C_9  and  N_10 
ROOT
HETATM    1  C   UNL     1      43.735 -15.619   6.661  1.00  0.00     0.096 A 
HETATM    2  N   UNL     1      44.622 -14.909   7.371  1.00  0.00    -0.174 NA
HETATM    3  N   UNL     1      44.227 -13.639   7.269  1.00  0.00    -0.288 N 
HETATM    4  H   UNL     1      44.747 -12.931   7.784  1.00  0.00     0.188 HD
HETATM    5  C   UNL     1      43.150 -13.479   6.448  1.00  0.00     0.120 A 
HETATM    6  C   UNL     1      42.802 -14.746   6.009  1.00  0.00     0.016 A 
ENDROOT
BRANCH   6   7
HETATM    7  C   UNL     1      41.695 -15.114   5.088  1.00  0.00     0.277 C 
BRANCH   7   8
HETATM    8  N   UNL     1      41.486 -14.133   3.954  1.00  0.00    -0.067 N 
HETATM    9  H   UNL     1      41.529 -13.220   4.421  1.00  0.00     0.280 HD
HETATM   10  C   UNL     1      42.584 -14.093   2.918  1.00  0.00     0.242 C 
HETATM   11  C   UNL     1      42.479 -15.197   1.860  1.00  0.00     0.041 C 
HETATM   12  C   UNL     1      41.048 -15.386   1.356  1.00  0.00     0.128 C 
HETATM   13  C   UNL     1      43.184 -16.514   2.231  1.00  0.00     0.011 C 
HETATM   14  O   UNL     1      40.960 -16.508   0.494  1.00  0.00    -0.385 OA
HETATM   15  C   UNL     1      39.979 -15.409   2.445  1.00  0.00     0.060 C 
HETATM   16  C   UNL     1      41.342 -17.775   1.022  1.00  0.00     0.168 C 
HETATM   17  C   UNL     1      42.268 -17.726   2.230  1.00  0.00     0.027 C 
HETATM   18  C   UNL     1      40.110 -14.197   3.344  1.00  0.00     0.237 C 
ENDBRANCH   7   8
ENDBRANCH   6   7
BRANCH   1  19
HETATM   19  C   UNL     1      43.838 -17.079   6.605  1.00  0.00    -0.002 A 
HETATM   20  C   UNL     1      43.568 -17.843   7.752  1.00  0.00     0.017 A 
HETATM   21  C   UNL     1      43.687 -19.236   7.727  1.00  0.00     0.040 A 
HETATM   22  C   UNL     1      44.081 -19.875   6.555  1.00  0.00     0.102 A 
HETATM   23  C   UNL     1      44.362 -19.124   5.412  1.00  0.00     0.103 A 
HETATM   24  O   UNL     1      44.174 -21.240   6.596  1.00  0.00    -0.346 OA
HETATM   25  C   UNL     1      44.206 -17.738   5.425  1.00  0.00     0.053 A 
HETATM   26  O   UNL     1      44.800 -19.677   4.235  1.00  0.00    -0.346 OA
HETATM   27  C   UNL     1      45.216 -21.039   4.416  1.00  0.00     0.202 C 
HETATM   28  C   UNL     1      44.220 -21.800   5.277  1.00  0.00     0.202 C 
ENDBRANCH   1  19
TORSDOF 3
ENDMDL
MODEL 6
REMARK VINA RESULT:      -7.9      2.265      3.861
REMARK  3 active torsions:
REMARK  status: ('A' for Active; 'I' for Inactive)
REMARK    1  A    between atoms: C_2  and  C_3 
REMARK    2  A    between atoms: C_8  and  C_9 
REMARK    3  A    between atoms: C_9  and  N_10 
ROOT
HETATM    1  C   UNL     1      41.599 -16.151   5.161  1.00  0.00     0.096 A 
HETATM    2  N   UNL     1      41.057 -16.052   6.382  1.00  0.00    -0.174 NA
HETATM    3  N   UNL     1      40.259 -14.985   6.334  1.00  0.00    -0.288 N 
HETATM    4  H   UNL     1      39.708 -14.759   7.159  1.00  0.00     0.188 HD
HETATM    5  C   UNL     1      40.317 -14.329   5.139  1.00  0.00     0.120 A 
HETATM    6  C   UNL     1      41.197 -15.043   4.344  1.00  0.00     0.016 A 
ENDROOT
BRANCH   6   7
HETATM    7  C   UNL     1      41.609 -14.739   2.948  1.00  0.00     0.277 C 
BRANCH   7   8
HETATM    8  N   UNL     1      40.902 -15.575   1.902  1.00  0.00    -0.067 N 
HETATM    9  H   UNL     1      41.072 -16.538   2.215  1.00  0.00     0.280 HD
HETATM   10  C   UNL     1      39.399 -15.437   1.867  1.00  0.00     0.242 C 
HETATM   11  C   UNL     1      38.906 -14.212   1.088  1.00  0.00     0.041 C 
HETATM   12  C   UNL     1      39.658 -14.018  -0.230  1.00  0.00     0.128 C 
HETATM   13  C   UNL     1      38.781 -12.926   1.924  1.00  0.00     0.011 C 
HETATM   14  O   UNL     1      39.285 -12.800  -0.850  1.00  0.00    -0.385 OA
HETATM   15  C   UNL     1      41.173 -14.179  -0.136  1.00  0.00     0.060 C 
HETATM   16  C   UNL     1      39.497 -11.597  -0.118  1.00  0.00     0.168 C 
HETATM   17  C   UNL     1      39.601 -11.762   1.393  1.00  0.00     0.027 C 
HETATM   18  C   UNL     1      41.528 -15.490   0.535  1.00  0.00     0.237 C 
ENDBRANCH   7   8
ENDBRANCH   6   7
BRANCH   1  19
HETATM   19  C   UNL     1      42.498 -17.264   4.843  1.00  0.00    -0.002 A 
HETATM   20  C   UNL     1      43.627 -17.501   5.643  1.00  0.00     0.017 A 
HETATM   21  C   UNL     1      44.512 -18.540   5.339  1.00  0.00     0.040 A 
HETATM   22  C   UNL     1      44.276 -19.349   4.232  1.00  0.00     0.102 A 
HETATM   23  C   UNL     1      43.161 -19.115   3.424  1.00  0.00     0.103 A 
HETATM   24  O   UNL     1      45.177 -20.351   3.993  1.00  0.00    -0.346 OA
HETATM   25  C   UNL     1      42.257 -18.103   3.748  1.00  0.00     0.053 A 
HETATM   26  O   UNL     1      42.886 -19.838   2.291  1.00  0.00    -0.346 OA
HETATM   27  C   UNL     1      44.014 -20.629   1.885  1.00  0.00     0.202 C 
HETATM   28  C   UNL     1      44.649 -21.321   3.080  1.00  0.00     0.202 C 
ENDBRANCH   1  19
TORSDOF 3
ENDMDL
MODEL 7
REMARK VINA RESULT:      -7.9      1.619      2.154
REMARK  3 active torsions:
REMARK  status: ('A' for Active; 'I' for Inactive)
REMARK    1  A    between atoms: C_2  and  C_3 
REMARK    2  A    between atoms: C_8  and  C_9 
REMARK    3  A    between atoms: C_9  and  N_10 
ROOT
HETATM    1  C   UNL     1      43.532 -16.554   5.274  1.00  0.00     0.096 A 
HETATM    2  N   UNL     1      43.991 -16.701   6.524  1.00  0.00    -0.174 NA
HETATM    3  N   UNL     1      43.786 -15.527   7.122  1.00  0.00    -0.288 N 
HETATM    4  H   UNL     1      44.026 -15.440   8.107  1.00  0.00     0.188 HD
HETATM    5  C   UNL     1      43.275 -14.582   6.280  1.00  0.00     0.120 A 
HETATM    6  C   UNL     1      43.109 -15.201   5.053  1.00  0.00     0.016 A 
ENDROOT
BRANCH   6   7
HETATM    7  C   UNL     1      42.586 -14.600   3.798  1.00  0.00     0.277 C 
BRANCH   7   8
HETATM    8  N   UNL     1      41.328 -13.780   3.986  1.00  0.00    -0.067 N 
HETATM    9  H   UNL     1      41.398 -13.460   4.959  1.00  0.00     0.280 HD
HETATM   10  C   UNL     1      41.246 -12.516   3.165  1.00  0.00     0.242 C 
HETATM   11  C   UNL     1      40.773 -12.741   1.725  1.00  0.00     0.041 C 
HETATM   12  C   UNL     1      39.588 -13.705   1.645  1.00  0.00     0.128 C 
HETATM   13  C   UNL     1      41.895 -13.055   0.720  1.00  0.00     0.011 C 
HETATM   14  O   UNL     1      39.272 -14.007   0.297  1.00  0.00    -0.385 OA
HETATM   15  C   UNL     1      39.720 -14.960   2.503  1.00  0.00     0.060 C 
HETATM   16  C   UNL     1      40.292 -14.600  -0.501  1.00  0.00     0.168 C 
HETATM   17  C   UNL     1      41.717 -14.375  -0.012  1.00  0.00     0.027 C 
HETATM   18  C   UNL     1      40.061 -14.593   3.933  1.00  0.00     0.237 C 
ENDBRANCH   7   8
ENDBRANCH   6   7
BRANCH   1  19
HETATM   19  C   UNL     1      43.551 -17.686   4.345  1.00  0.00    -0.002 A 
HETATM   20  C   UNL     1      42.831 -17.615   3.142  1.00  0.00     0.017 A 
HETATM   21  C   UNL     1      42.814 -18.695   2.254  1.00  0.00     0.040 A 
HETATM   22  C   UNL     1      43.515 -19.857   2.565  1.00  0.00     0.102 A 
HETATM   23  C   UNL     1      44.225 -19.942   3.764  1.00  0.00     0.103 A 
HETATM   24  O   UNL     1      43.462 -20.875   1.652  1.00  0.00    -0.346 OA
HETATM   25  C   UNL     1      44.275 -18.851   4.632  1.00  0.00     0.053 A 
HETATM   26  O   UNL     1      44.900 -21.068   4.162  1.00  0.00    -0.346 OA
HETATM   27  C   UNL     1      44.539 -22.207   3.367  1.00  0.00     0.202 C 
HETATM   28  C   UNL     1      44.489 -21.845   1.891  1.00  0.00     0.202 C 
ENDBRANCH   1  19
TORSDOF 3
ENDMDL
MODEL 8
REMARK VINA RESULT:      -7.8      2.361      3.971
REMARK  3 active torsions:
REMARK  status: ('A' for Active; 'I' for Inactive)
REMARK    1  A    between atoms: C_2  and  C_3 
REMARK    2  A    between atoms: C_8  and  C_9 
REMARK    3  A    between atoms: C_9  and  N_10 
ROOT
HETATM    1  C   UNL     1      42.558 -17.212   1.789  1.00  0.00     0.096 A 
HETATM    2  N   UNL     1      42.906 -17.066   0.504  1.00  0.00    -0.174 NA
HETATM    3  N   UNL     1      42.217 -16.013   0.063  1.00  0.00    -0.288 N 
HETATM    4  H   UNL     1      42.376 -15.700  -0.892  1.00  0.00     0.188 HD
HETATM    5  C   UNL     1      41.364 -15.504   0.998  1.00  0.00     0.120 A 
HETATM    6  C   UNL     1      41.536 -16.268   2.140  1.00  0.00     0.016 A 
ENDROOT
BRANCH   6   7
HETATM    7  C   UNL     1      40.834 -16.123   3.443  1.00  0.00     0.277 C 
BRANCH   7   8
HETATM    8  N   UNL     1      41.702 -15.564   4.550  1.00  0.00    -0.067 N 
HETATM    9  H   UNL     1      42.402 -16.301   4.696  1.00  0.00     0.280 HD
HETATM   10  C   UNL     1      42.500 -14.333   4.193  1.00  0.00     0.242 C 
HETATM   11  C   UNL     1      41.703 -13.028   4.285  1.00  0.00     0.041 C 
HETATM   12  C   UNL     1      40.839 -12.960   5.546  1.00  0.00     0.128 C 
HETATM   13  C   UNL     1      40.951 -12.640   2.999  1.00  0.00     0.011 C 
HETATM   14  O   UNL     1      40.006 -11.814   5.526  1.00  0.00    -0.385 OA
HETATM   15  C   UNL     1      40.063 -14.235   5.864  1.00  0.00     0.060 C 
HETATM   16  C   UNL     1      39.093 -11.683   4.440  1.00  0.00     0.168 C 
HETATM   17  C   UNL     1      39.453 -12.469   3.187  1.00  0.00     0.027 C 
HETATM   18  C   UNL     1      40.989 -15.434   5.871  1.00  0.00     0.237 C 
ENDBRANCH   7   8
ENDBRANCH   6   7
BRANCH   1  19
HETATM   19  C   UNL     1      43.179 -18.257   2.606  1.00  0.00    -0.002 A 
HETATM   20  C   UNL     1      43.763 -17.925   3.840  1.00  0.00     0.017 A 
HETATM   21  C   UNL     1      44.385 -18.902   4.621  1.00  0.00     0.040 A 
HETATM   22  C   UNL     1      44.432 -20.220   4.174  1.00  0.00     0.102 A 
HETATM   23  C   UNL     1      43.864 -20.558   2.944  1.00  0.00     0.103 A 
HETATM   24  O   UNL     1      45.052 -21.129   4.989  1.00  0.00    -0.346 OA
HETATM   25  C   UNL     1      43.209 -19.591   2.182  1.00  0.00     0.053 A 
HETATM   26  O   UNL     1      43.911 -21.823   2.414  1.00  0.00    -0.346 OA
HETATM   27  C   UNL     1      44.853 -22.651   3.113  1.00  0.00     0.202 C 
HETATM   28  C   UNL     1      44.721 -22.473   4.617  1.00  0.00     0.202 C 
ENDBRANCH   1  19
TORSDOF 3
ENDMDL
MODEL 9
REMARK VINA RESULT:      -7.7      1.942      3.358
REMARK  3 active torsions:
REMARK  status: ('A' for Active; 'I' for Inactive)
REMARK    1  A    between atoms: C_2  and  C_3 
REMARK    2  A    between atoms: C_8  and  C_9 
REMARK    3  A    between atoms: C_9  and  N_10 
ROOT
HETATM    1  C   UNL     1      43.696 -15.896   6.571  1.00  0.00     0.096 A 
HETATM    2  N   UNL     1      44.346 -15.213   7.522  1.00  0.00    -0.174 NA
HETATM    3  N   UNL     1      43.991 -13.938   7.353  1.00  0.00    -0.288 N 
HETATM    4  H   UNL     1      44.344 -13.250   8.015  1.00  0.00     0.188 HD
HETATM    5  C   UNL     1      43.186 -13.748   6.269  1.00  0.00     0.120 A 
HETATM    6  C   UNL     1      42.980 -14.998   5.711  1.00  0.00     0.016 A 
ENDROOT
BRANCH   6   7
HETATM    7  C   UNL     1      42.176 -15.333   4.506  1.00  0.00     0.277 C 
BRANCH   7   8
HETATM    8  N   UNL     1      42.989 -15.437   3.234  1.00  0.00    -0.067 N 
HETATM    9  H   UNL     1      43.919 -15.713   3.570  1.00  0.00     0.280 HD
HETATM   10  C   UNL     1      42.575 -16.536   2.285  1.00  0.00     0.242 C 
HETATM   11  C   UNL     1      41.389 -16.167   1.387  1.00  0.00     0.041 C 
HETATM   12  C   UNL     1      41.512 -14.755   0.812  1.00  0.00     0.128 C 
HETATM   13  C   UNL     1      40.007 -16.472   1.989  1.00  0.00     0.011 C 
HETATM   14  O   UNL     1      40.335 -14.390   0.111  1.00  0.00    -0.385 OA
HETATM   15  C   UNL     1      41.943 -13.686   1.813  1.00  0.00     0.060 C 
HETATM   16  C   UNL     1      39.110 -14.394   0.838  1.00  0.00     0.168 C 
HETATM   17  C   UNL     1      39.097 -15.259   2.091  1.00  0.00     0.027 C 
HETATM   18  C   UNL     1      43.200 -14.116   2.540  1.00  0.00     0.237 C 
ENDBRANCH   7   8
ENDBRANCH   6   7
BRANCH   1  19
HETATM   19  C   UNL     1      43.816 -17.354   6.500  1.00  0.00    -0.002 A 
HETATM   20  C   UNL     1      43.462 -18.139   7.609  1.00  0.00     0.017 A 
HETATM   21  C   UNL     1      43.596 -19.530   7.572  1.00  0.00     0.040 A 
HETATM   22  C   UNL     1      44.088 -20.148   6.425  1.00  0.00     0.102 A 
HETATM   23  C   UNL     1      44.453 -19.375   5.321  1.00  0.00     0.103 A 
HETATM   24  O   UNL     1      44.189 -21.512   6.452  1.00  0.00    -0.346 OA
HETATM   25  C   UNL     1      44.283 -17.991   5.343  1.00  0.00     0.053 A 
HETATM   26  O   UNL     1      44.988 -19.905   4.174  1.00  0.00    -0.346 OA
HETATM   27  C   UNL     1      45.400 -21.267   4.366  1.00  0.00     0.202 C 
HETATM   28  C   UNL     1      44.346 -22.050   5.132  1.00  0.00     0.202 C 
ENDBRANCH   1  19
TORSDOF 3
ENDMDL
MODEL 10
REMARK VINA RESULT:      -7.6      2.811      5.064
REMARK  3 active torsions:
REMARK  status: ('A' for Active; 'I' for Inactive)
REMARK    1  A    between atoms: C_2  and  C_3 
REMARK    2  A    between atoms: C_8  and  C_9 
REMARK    3  A    between atoms: C_9  and  N_10 
ROOT
HETATM    1  C   UNL     1      41.188 -14.060   4.999  1.00  0.00     0.096 A 
HETATM    2  N   UNL     1      40.314 -13.392   5.764  1.00  0.00    -0.174 NA
HETATM    3  N   UNL     1      39.571 -12.677   4.918  1.00  0.00    -0.288 N 
HETATM    4  H   UNL     1      38.804 -12.126   5.299  1.00  0.00     0.188 HD
HETATM    5  C   UNL     1      39.978 -12.792   3.621  1.00  0.00     0.120 A 
HETATM    6  C   UNL     1      41.047 -13.672   3.625  1.00  0.00     0.016 A 
ENDROOT
BRANCH   6   7
HETATM    7  C   UNL     1      41.851 -14.128   2.459  1.00  0.00     0.277 C 
BRANCH   7   8
HETATM    8  N   UNL     1      41.042 -14.843   1.397  1.00  0.00    -0.067 N 
HETATM    9  H   UNL     1      40.518 -14.083   0.949  1.00  0.00     0.280 HD
HETATM   10  C   UNL     1      41.844 -15.473   0.284  1.00  0.00     0.242 C 
HETATM   11  C   UNL     1      42.423 -16.848   0.638  1.00  0.00     0.041 C 
HETATM   12  C   UNL     1      41.410 -17.737   1.362  1.00  0.00     0.128 C 
HETATM   13  C   UNL     1      43.806 -16.810   1.310  1.00  0.00     0.011 C 
HETATM   14  O   UNL     1      42.019 -18.938   1.805  1.00  0.00    -0.385 OA
HETATM   15  C   UNL     1      40.622 -17.045   2.470  1.00  0.00     0.060 C 
HETATM   16  C   UNL     1      43.124 -18.824   2.697  1.00  0.00     0.168 C 
HETATM   17  C   UNL     1      43.850 -17.486   2.670  1.00  0.00     0.027 C 
HETATM   18  C   UNL     1      39.992 -15.767   1.956  1.00  0.00     0.237 C 
ENDBRANCH   7   8
ENDBRANCH   6   7
BRANCH   1  19
HETATM   19  C   UNL     1      42.133 -14.998   5.609  1.00  0.00    -0.002 A 
HETATM   20  C   UNL     1      43.335 -14.522   6.156  1.00  0.00     0.017 A 
HETATM   21  C   UNL     1      44.263 -15.404   6.717  1.00  0.00     0.040 A 
HETATM   22  C   UNL     1      43.997 -16.770   6.733  1.00  0.00     0.102 A 
HETATM   23  C   UNL     1      42.810 -17.254   6.182  1.00  0.00     0.103 A 
HETATM   24  O   UNL     1      44.944 -17.579   7.302  1.00  0.00    -0.346 OA
HETATM   25  C   UNL     1      41.866 -16.372   5.657  1.00  0.00     0.053 A 
HETATM   26  O   UNL     1      42.498 -18.589   6.118  1.00  0.00    -0.346 OA
HETATM   27  C   UNL     1      43.642 -19.411   6.395  1.00  0.00     0.202 C 
HETATM   28  C   UNL     1      44.415 -18.879   7.591  1.00  0.00     0.202 C 
ENDBRANCH   1  19
TORSDOF 3
ENDMDL
