MODEL 1
REMARK VINA RESULT:      -8.1      0.000      0.000
REMARK  6 active torsions:
REMARK  status: ('A' for Active; 'I' for Inactive)
REMARK    1  A    between atoms: C_2  and  C_3 
REMARK    2  A    between atoms: C_3  and  O_4 
REMARK    3  A    between atoms: O_4  and  C_5 
REMARK    4  A    between atoms: C_7  and  N_8 
REMARK       I    between atoms: N_8  and  C_9 
REMARK       I    between atoms: C_9  and  N_10 
REMARK    5  A    between atoms: N_10  and  C_11 
REMARK    6  A    between atoms: C_11  and  C_12 
ROOT
HETATM    1  N   UNL     1      43.655 -14.604   6.632  1.00  0.00    -0.309 N 
HETATM    2  C   UNL     1      44.694 -13.846   7.123  1.00  0.00     0.320 C 
HETATM    3  N   UNL     1      44.426 -13.439   8.412  1.00  0.00    -0.339 N 
HETATM    4  O   UNL     1      45.697 -13.498   6.518  1.00  0.00    -0.247 OA
HETATM    5  H   UNL     1      42.812 -14.587   7.185  1.00  0.00     0.170 HD
HETATM    6  H   UNL     1      43.841 -14.031   8.980  1.00  0.00     0.164 HD
ENDROOT
BRANCH   1   7
HETATM    7  C   UNL     1      43.535 -15.144   5.336  1.00  0.00     0.039 A 
HETATM    8  C   UNL     1      43.563 -16.538   5.221  1.00  0.00     0.066 A 
HETATM    9  C   UNL     1      43.389 -17.162   3.981  1.00  0.00     0.070 A 
HETATM   10  C   UNL     1      43.248 -16.384   2.834  1.00  0.00     0.037 A 
HETATM   11  C   UNL     1      43.246 -14.992   2.938  1.00  0.00     0.005 A 
HETATM   12  C   UNL     1      43.381 -14.373   4.184  1.00  0.00     0.030 A 
BRANCH   9  13
HETATM   13  O   UNL     1      43.384 -18.528   4.027  1.00  0.00    -0.351 OA
BRANCH  13  14
HETATM   14  C   UNL     1      43.442 -19.208   2.771  1.00  0.00     0.179 C 
BRANCH  14  15
HETATM   15  C   UNL     1      44.538 -20.286   2.821  1.00  0.00     0.002 C 
HETATM   16  C   UNL     1      44.106 -21.545   2.066  1.00  0.00     0.011 C 
HETATM   17  C   UNL     1      44.911 -20.641   4.260  1.00  0.00     0.011 C 
ENDBRANCH  14  15
ENDBRANCH  13  14
ENDBRANCH   9  13
ENDBRANCH   1   7
BRANCH   3  18
HETATM   18  C   UNL     1      45.260 -12.471   9.094  1.00  0.00     0.164 C 
BRANCH  18  19
HETATM   19  C   UNL     1      44.562 -11.824  10.262  1.00  0.00    -0.023 A 
HETATM   20  C   UNL     1      44.033 -12.629  11.270  1.00  0.00     0.127 A 
HETATM   21  N   UNL     1      43.412 -12.163  12.377  1.00  0.00    -0.248 NA
HETATM   22  C   UNL     1      43.325 -10.824  12.493  1.00  0.00     0.125 A 
HETATM   23 CL   UNL     1      42.539 -10.275  13.916  1.00  0.00    -0.063 Cl
HETATM   24  C   UNL     1      43.820  -9.926  11.567  1.00  0.00     0.045 A 
HETATM   25  C   UNL     1      44.454 -10.439  10.437  1.00  0.00     0.013 A 
ENDBRANCH  18  19
ENDBRANCH   3  18
TORSDOF 6
ENDMDL
MODEL 2
REMARK VINA RESULT:      -8.0      1.677      1.837
REMARK  6 active torsions:
REMARK  status: ('A' for Active; 'I' for Inactive)
REMARK    1  A    between atoms: C_2  and  C_3 
REMARK    2  A    between atoms: C_3  and  O_4 
REMARK    3  A    between atoms: O_4  and  C_5 
REMARK    4  A    between atoms: C_7  and  N_8 
REMARK       I    between atoms: N_8  and  C_9 
REMARK       I    between atoms: C_9  and  N_10 
REMARK    5  A    between atoms: N_10  and  C_11 
REMARK    6  A    between atoms: C_11  and  C_12 
ROOT
HETATM    1  N   UNL     1      43.549 -15.491   7.455  1.00  0.00    -0.309 N 
HETATM    2  C   UNL     1      44.258 -14.332   7.223  1.00  0.00     0.320 C 
HETATM    3  N   UNL     1      44.607 -13.735   8.415  1.00  0.00    -0.339 N 
HETATM    4  O   UNL     1      44.505 -13.829   6.137  1.00  0.00    -0.247 OA
HETATM    5  H   UNL     1      43.238 -15.621   8.404  1.00  0.00     0.170 HD
HETATM    6  H   UNL     1      44.743 -14.330   9.218  1.00  0.00     0.164 HD
ENDROOT
BRANCH   1   7
HETATM    7  C   UNL     1      42.970 -16.340   6.491  1.00  0.00     0.039 A 
HETATM    8  C   UNL     1      43.842 -17.121   5.724  1.00  0.00     0.066 A 
HETATM    9  C   UNL     1      43.353 -18.037   4.787  1.00  0.00     0.070 A 
HETATM   10  C   UNL     1      41.981 -18.129   4.568  1.00  0.00     0.037 A 
HETATM   11  C   UNL     1      41.106 -17.333   5.310  1.00  0.00     0.005 A 
HETATM   12  C   UNL     1      41.597 -16.447   6.273  1.00  0.00     0.030 A 
BRANCH   9  13
HETATM   13  O   UNL     1      44.316 -18.771   4.152  1.00  0.00    -0.351 OA
BRANCH  13  14
HETATM   14  C   UNL     1      43.916 -19.453   2.961  1.00  0.00     0.179 C 
BRANCH  14  15
HETATM   15  C   UNL     1      44.680 -20.783   2.850  1.00  0.00     0.002 C 
HETATM   16  C   UNL     1      44.001 -21.725   1.852  1.00  0.00     0.011 C 
HETATM   17  C   UNL     1      44.813 -21.470   4.209  1.00  0.00     0.011 C 
ENDBRANCH  14  15
ENDBRANCH  13  14
ENDBRANCH   9  13
ENDBRANCH   1   7
BRANCH   3  18
HETATM   18  C   UNL     1      45.185 -12.408   8.461  1.00  0.00     0.164 C 
BRANCH  18  19
HETATM   19  C   UNL     1      44.461 -11.492   9.413  1.00  0.00    -0.023 A 
HETATM   20  C   UNL     1      43.217 -10.978   9.049  1.00  0.00     0.127 A 
HETATM   21  N   UNL     1      42.462 -10.172   9.829  1.00  0.00    -0.248 NA
HETATM   22  C   UNL     1      42.967  -9.872  11.042  1.00  0.00     0.125 A 
HETATM   23 CL   UNL     1      41.975  -8.855  12.002  1.00  0.00    -0.063 Cl
HETATM   24  C   UNL     1      44.182 -10.330  11.517  1.00  0.00     0.045 A 
HETATM   25  C   UNL     1      44.935 -11.158  10.687  1.00  0.00     0.013 A 
ENDBRANCH  18  19
ENDBRANCH   3  18
TORSDOF 6
ENDMDL
MODEL 3
REMARK VINA RESULT:      -7.9      1.824      2.684
REMARK  6 active torsions:
REMARK  status: ('A' for Active; 'I' for Inactive)
REMARK    1  A    between atoms: C_2  and  C_3 
REMARK    2  A    between atoms: C_3  and  O_4 
REMARK    3  A    between atoms: O_4  and  C_5 
REMARK    4  A    between atoms: C_7  and  N_8 
REMARK       I    between atoms: N_8  and  C_9 
REMARK       I    between atoms: C_9  and  N_10 
REMARK    5  A    between atoms: N_10  and  C_11 
REMARK    6  A    between atoms: C_11  and  C_12 
ROOT
HETATM    1  N   UNL     1      43.899 -15.173   7.597  1.00  0.00    -0.309 N 
HETATM    2  C   UNL     1      44.679 -14.038   7.601  1.00  0.00     0.320 C 
HETATM    3  N   UNL     1      44.348 -13.231   8.668  1.00  0.00    -0.339 N 
HETATM    4  O   UNL     1      45.508 -13.715   6.763  1.00  0.00    -0.247 OA
HETATM    5  H   UNL     1      43.112 -15.156   8.225  1.00  0.00     0.170 HD
HETATM    6  H   UNL     1      43.989 -13.674   9.500  1.00  0.00     0.164 HD
ENDROOT
BRANCH   1   7
HETATM    7  C   UNL     1      43.900 -16.201   6.633  1.00  0.00     0.039 A 
HETATM    8  C   UNL     1      43.051 -16.043   5.532  1.00  0.00     0.066 A 
HETATM    9  C   UNL     1      43.031 -16.983   4.497  1.00  0.00     0.070 A 
HETATM   10  C   UNL     1      43.823 -18.125   4.591  1.00  0.00     0.037 A 
HETATM   11  C   UNL     1      44.652 -18.303   5.699  1.00  0.00     0.005 A 
HETATM   12  C   UNL     1      44.697 -17.342   6.713  1.00  0.00     0.030 A 
BRANCH   9  13
HETATM   13  O   UNL     1      42.196 -16.671   3.460  1.00  0.00    -0.351 OA
BRANCH  13  14
HETATM   14  C   UNL     1      42.756 -15.890   2.403  1.00  0.00     0.179 C 
BRANCH  14  15
HETATM   15  C   UNL     1      42.649 -16.666   1.079  1.00  0.00     0.002 C 
HETATM   16  C   UNL     1      41.282 -17.342   0.946  1.00  0.00     0.011 C 
HETATM   17  C   UNL     1      43.762 -17.706   0.948  1.00  0.00     0.011 C 
ENDBRANCH  14  15
ENDBRANCH  13  14
ENDBRANCH   9  13
ENDBRANCH   1   7
BRANCH   3  18
HETATM   18  C   UNL     1      44.876 -11.889   8.800  1.00  0.00     0.164 C 
BRANCH  18  19
HETATM   19  C   UNL     1      44.117 -11.063   9.806  1.00  0.00    -0.023 A 
HETATM   20  C   UNL     1      42.876 -10.534   9.455  1.00  0.00     0.127 A 
HETATM   21  N   UNL     1      42.092  -9.803  10.281  1.00  0.00    -0.248 NA
HETATM   22  C   UNL     1      42.564  -9.601  11.527  1.00  0.00     0.125 A 
HETATM   23 CL   UNL     1      41.536  -8.679  12.544  1.00  0.00    -0.063 Cl
HETATM   24  C   UNL     1      43.773 -10.084  11.992  1.00  0.00     0.045 A 
HETATM   25  C   UNL     1      44.556 -10.832  11.116  1.00  0.00     0.013 A 
ENDBRANCH  18  19
ENDBRANCH   3  18
TORSDOF 6
ENDMDL
MODEL 4
REMARK VINA RESULT:      -7.6      6.085      8.864
REMARK  6 active torsions:
REMARK  status: ('A' for Active; 'I' for Inactive)
REMARK    1  A    between atoms: C_2  and  C_3 
REMARK    2  A    between atoms: C_3  and  O_4 
REMARK    3  A    between atoms: O_4  and  C_5 
REMARK    4  A    between atoms: C_7  and  N_8 
REMARK       I    between atoms: N_8  and  C_9 
REMARK       I    between atoms: C_9  and  N_10 
REMARK    5  A    between atoms: N_10  and  C_11 
REMARK    6  A    between atoms: C_11  and  C_12 
ROOT
HETATM    1  N   UNL     1      43.098 -17.329   0.724  1.00  0.00    -0.309 N 
HETATM    2  C   UNL     1      42.001 -16.499   0.656  1.00  0.00     0.320 C 
HETATM    3  N   UNL     1      41.969 -15.841  -0.554  1.00  0.00    -0.339 N 
HETATM    4  O   UNL     1      41.184 -16.289   1.541  1.00  0.00    -0.247 OA
HETATM    5  H   UNL     1      43.784 -17.194  -0.001  1.00  0.00     0.170 HD
HETATM    6  H   UNL     1      42.380 -16.302  -1.352  1.00  0.00     0.164 HD
ENDROOT
BRANCH   1   7
HETATM    7  C   UNL     1      43.502 -18.115   1.822  1.00  0.00     0.039 A 
HETATM    8  C   UNL     1      43.645 -17.464   3.052  1.00  0.00     0.066 A 
HETATM    9  C   UNL     1      43.983 -18.175   4.208  1.00  0.00     0.070 A 
HETATM   10  C   UNL     1      44.242 -19.541   4.123  1.00  0.00     0.037 A 
HETATM   11  C   UNL     1      44.128 -20.192   2.893  1.00  0.00     0.005 A 
HETATM   12  C   UNL     1      43.752 -19.485   1.748  1.00  0.00     0.030 A 
BRANCH   9  13
HETATM   13  O   UNL     1      44.033 -17.421   5.347  1.00  0.00    -0.351 OA
BRANCH  13  14
HETATM   14  C   UNL     1      43.153 -16.297   5.406  1.00  0.00     0.179 C 
BRANCH  14  15
HETATM   15  C   UNL     1      42.264 -16.405   6.657  1.00  0.00     0.002 C 
HETATM   16  C   UNL     1      42.843 -17.408   7.658  1.00  0.00     0.011 C 
HETATM   17  C   UNL     1      40.831 -16.797   6.295  1.00  0.00     0.011 C 
ENDBRANCH  14  15
ENDBRANCH  13  14
ENDBRANCH   9  13
ENDBRANCH   1   7
BRANCH   3  18
HETATM   18  C   UNL     1      41.034 -14.765  -0.813  1.00  0.00     0.164 C 
BRANCH  18  19
HETATM   19  C   UNL     1      41.717 -13.435  -0.997  1.00  0.00    -0.023 A 
HETATM   20  C   UNL     1      42.035 -12.672   0.125  1.00  0.00     0.127 A 
HETATM   21  N   UNL     1      42.671 -11.479   0.086  1.00  0.00    -0.248 NA
HETATM   22  C   UNL     1      43.021 -11.028  -1.135  1.00  0.00     0.125 A 
HETATM   23 CL   UNL     1      43.833  -9.518  -1.139  1.00  0.00    -0.063 Cl
HETATM   24  C   UNL     1      42.769 -11.701  -2.316  1.00  0.00     0.045 A 
HETATM   25  C   UNL     1      42.111 -12.926  -2.241  1.00  0.00     0.013 A 
ENDBRANCH  18  19
ENDBRANCH   3  18
TORSDOF 6
ENDMDL
MODEL 5
REMARK VINA RESULT:      -7.5      3.961      9.595
REMARK  6 active torsions:
REMARK  status: ('A' for Active; 'I' for Inactive)
REMARK    1  A    between atoms: C_2  and  C_3 
REMARK    2  A    between atoms: C_3  and  O_4 
REMARK    3  A    between atoms: O_4  and  C_5 
REMARK    4  A    between atoms: C_7  and  N_8 
REMARK       I    between atoms: N_8  and  C_9 
REMARK       I    between atoms: C_9  and  N_10 
REMARK    5  A    between atoms: N_10  and  C_11 
REMARK    6  A    between atoms: C_11  and  C_12 
ROOT
HETATM    1  N   UNL     1      44.190 -14.421   7.355  1.00  0.00    -0.309 N 
HETATM    2  C   UNL     1      43.483 -14.449   6.174  1.00  0.00     0.320 C 
HETATM    3  N   UNL     1      42.969 -15.708   5.950  1.00  0.00    -0.339 N 
HETATM    4  O   UNL     1      43.359 -13.536   5.371  1.00  0.00    -0.247 OA
HETATM    5  H   UNL     1      44.384 -15.322   7.761  1.00  0.00     0.170 HD
HETATM    6  H   UNL     1      42.751 -16.277   6.754  1.00  0.00     0.164 HD
ENDROOT
BRANCH   1   7
HETATM    7  C   UNL     1      44.911 -13.333   7.888  1.00  0.00     0.039 A 
HETATM    8  C   UNL     1      44.310 -12.621   8.932  1.00  0.00     0.066 A 
HETATM    9  C   UNL     1      44.978 -11.566   9.562  1.00  0.00     0.070 A 
HETATM   10  C   UNL     1      46.234 -11.177   9.103  1.00  0.00     0.037 A 
HETATM   11  C   UNL     1      46.829 -11.865   8.044  1.00  0.00     0.005 A 
HETATM   12  C   UNL     1      46.174 -12.944   7.443  1.00  0.00     0.030 A 
BRANCH   9  13
HETATM   13  O   UNL     1      44.295 -10.999  10.601  1.00  0.00    -0.351 OA
BRANCH  13  14
HETATM   14  C   UNL     1      43.864 -11.882  11.639  1.00  0.00     0.179 C 
BRANCH  14  15
HETATM   15  C   UNL     1      42.771 -11.196  12.475  1.00  0.00     0.002 C 
HETATM   16  C   UNL     1      41.528 -10.911  11.629  1.00  0.00     0.011 C 
HETATM   17  C   UNL     1      43.278  -9.902  13.110  1.00  0.00     0.011 C 
ENDBRANCH  14  15
ENDBRANCH  13  14
ENDBRANCH   9  13
ENDBRANCH   1   7
BRANCH   3  18
HETATM   18  C   UNL     1      42.350 -16.066   4.691  1.00  0.00     0.164 C 
BRANCH  18  19
HETATM   19  C   UNL     1      42.873 -17.366   4.136  1.00  0.00    -0.023 A 
HETATM   20  C   UNL     1      42.393 -17.824   2.910  1.00  0.00     0.127 A 
HETATM   21  N   UNL     1      42.807 -18.958   2.300  1.00  0.00    -0.248 NA
HETATM   22  C   UNL     1      43.759 -19.666   2.939  1.00  0.00     0.125 A 
HETATM   23 CL   UNL     1      44.263 -21.090   2.127  1.00  0.00    -0.063 Cl
HETATM   24  C   UNL     1      44.318 -19.306   4.151  1.00  0.00     0.045 A 
HETATM   25  C   UNL     1      43.869 -18.133   4.753  1.00  0.00     0.013 A 
ENDBRANCH  18  19
ENDBRANCH   3  18
TORSDOF 6
ENDMDL
MODEL 6
REMARK VINA RESULT:      -7.5      7.691     10.570
REMARK  6 active torsions:
REMARK  status: ('A' for Active; 'I' for Inactive)
REMARK    1  A    between atoms: C_2  and  C_3 
REMARK    2  A    between atoms: C_3  and  O_4 
REMARK    3  A    between atoms: O_4  and  C_5 
REMARK    4  A    between atoms: C_7  and  N_8 
REMARK       I    between atoms: N_8  and  C_9 
REMARK       I    between atoms: C_9  and  N_10 
REMARK    5  A    between atoms: N_10  and  C_11 
REMARK    6  A    between atoms: C_11  and  C_12 
ROOT
HETATM    1  N   UNL     1      41.154 -17.316   0.759  1.00  0.00    -0.309 N 
HETATM    2  C   UNL     1      41.282 -16.142   0.051  1.00  0.00     0.320 C 
HETATM    3  N   UNL     1      40.764 -16.287  -1.218  1.00  0.00    -0.339 N 
HETATM    4  O   UNL     1      41.830 -15.116   0.425  1.00  0.00    -0.247 OA
HETATM    5  H   UNL     1      40.895 -18.122   0.212  1.00  0.00     0.170 HD
HETATM    6  H   UNL     1      40.013 -16.947  -1.348  1.00  0.00     0.164 HD
ENDROOT
BRANCH   1   7
HETATM    7  C   UNL     1      41.620 -17.577   2.063  1.00  0.00     0.039 A 
HETATM    8  C   UNL     1      42.641 -18.524   2.198  1.00  0.00     0.066 A 
HETATM    9  C   UNL     1      43.206 -18.801   3.446  1.00  0.00     0.070 A 
HETATM   10  C   UNL     1      42.705 -18.171   4.583  1.00  0.00     0.037 A 
HETATM   11  C   UNL     1      41.668 -17.244   4.460  1.00  0.00     0.005 A 
HETATM   12  C   UNL     1      41.132 -16.942   3.205  1.00  0.00     0.030 A 
BRANCH   9  13
HETATM   13  O   UNL     1      44.231 -19.706   3.420  1.00  0.00    -0.351 OA
BRANCH  13  14
HETATM   14  C   UNL     1      44.871 -19.981   4.667  1.00  0.00     0.179 C 
BRANCH  14  15
HETATM   15  C   UNL     1      44.311 -21.287   5.255  1.00  0.00     0.002 C 
HETATM   16  C   UNL     1      43.903 -21.101   6.719  1.00  0.00     0.011 C 
HETATM   17  C   UNL     1      45.316 -22.433   5.135  1.00  0.00     0.011 C 
ENDBRANCH  14  15
ENDBRANCH  13  14
ENDBRANCH   9  13
ENDBRANCH   1   7
BRANCH   3  18
HETATM   18  C   UNL     1      40.944 -15.271  -2.235  1.00  0.00     0.164 C 
BRANCH  18  19
HETATM   19  C   UNL     1      39.652 -14.891  -2.910  1.00  0.00    -0.023 A 
HETATM   20  C   UNL     1      39.071 -15.777  -3.816  1.00  0.00     0.127 A 
HETATM   21  N   UNL     1      37.902 -15.558  -4.460  1.00  0.00    -0.248 NA
HETATM   22  C   UNL     1      37.272 -14.401  -4.177  1.00  0.00     0.125 A 
HETATM   23 CL   UNL     1      35.790 -14.168  -5.007  1.00  0.00    -0.063 Cl
HETATM   24  C   UNL     1      37.744 -13.452  -3.289  1.00  0.00     0.045 A 
HETATM   25  C   UNL     1      38.951 -13.708  -2.643  1.00  0.00     0.013 A 
ENDBRANCH  18  19
ENDBRANCH   3  18
TORSDOF 6
ENDMDL
MODEL 7
REMARK VINA RESULT:      -7.3      6.149      8.423
REMARK  6 active torsions:
REMARK  status: ('A' for Active; 'I' for Inactive)
REMARK    1  A    between atoms: C_2  and  C_3 
REMARK    2  A    between atoms: C_3  and  O_4 
REMARK    3  A    between atoms: O_4  and  C_5 
REMARK    4  A    between atoms: C_7  and  N_8 
REMARK       I    between atoms: N_8  and  C_9 
REMARK       I    between atoms: C_9  and  N_10 
REMARK    5  A    between atoms: N_10  and  C_11 
REMARK    6  A    between atoms: C_11  and  C_12 
ROOT
HETATM    1  N   UNL     1      40.983 -16.958   4.751  1.00  0.00    -0.309 N 
HETATM    2  C   UNL     1      40.917 -15.689   4.221  1.00  0.00     0.320 C 
HETATM    3  N   UNL     1      39.827 -15.572   3.387  1.00  0.00    -0.339 N 
HETATM    4  O   UNL     1      41.722 -14.784   4.382  1.00  0.00    -0.247 OA
HETATM    5  H   UNL     1      40.373 -17.635   4.322  1.00  0.00     0.170 HD
HETATM    6  H   UNL     1      39.021 -16.147   3.582  1.00  0.00     0.164 HD
ENDROOT
BRANCH   1   7
HETATM    7  C   UNL     1      41.988 -17.476   5.594  1.00  0.00     0.039 A 
HETATM    8  C   UNL     1      42.908 -18.360   5.021  1.00  0.00     0.066 A 
HETATM    9  C   UNL     1      43.973 -18.874   5.766  1.00  0.00     0.070 A 
HETATM   10  C   UNL     1      44.086 -18.551   7.116  1.00  0.00     0.037 A 
HETATM   11  C   UNL     1      43.156 -17.690   7.702  1.00  0.00     0.005 A 
HETATM   12  C   UNL     1      42.115 -17.148   6.943  1.00  0.00     0.030 A 
BRANCH   9  13
HETATM   13  O   UNL     1      44.824 -19.681   5.063  1.00  0.00    -0.351 OA
BRANCH  13  14
HETATM   14  C   UNL     1      44.455 -19.974   3.714  1.00  0.00     0.179 C 
BRANCH  14  15
HETATM   15  C   UNL     1      44.195 -21.482   3.567  1.00  0.00     0.002 C 
HETATM   16  C   UNL     1      44.901 -22.272   4.673  1.00  0.00     0.011 C 
HETATM   17  C   UNL     1      44.635 -21.998   2.197  1.00  0.00     0.011 C 
ENDBRANCH  14  15
ENDBRANCH  13  14
ENDBRANCH   9  13
ENDBRANCH   1   7
BRANCH   3  18
HETATM   18  C   UNL     1      39.629 -14.407   2.549  1.00  0.00     0.164 C 
BRANCH  18  19
HETATM   19  C   UNL     1      39.996 -14.659   1.110  1.00  0.00    -0.023 A 
HETATM   20  C   UNL     1      39.365 -13.922   0.108  1.00  0.00     0.127 A 
HETATM   21  N   UNL     1      39.631 -14.039  -1.213  1.00  0.00    -0.248 NA
HETATM   22  C   UNL     1      40.586 -14.927  -1.553  1.00  0.00     0.125 A 
HETATM   23 CL   UNL     1      40.899 -15.037  -3.235  1.00  0.00    -0.063 Cl
HETATM   24  C   UNL     1      41.287 -15.704  -0.649  1.00  0.00     0.045 A 
HETATM   25  C   UNL     1      40.988 -15.560   0.704  1.00  0.00     0.013 A 
ENDBRANCH  18  19
ENDBRANCH   3  18
TORSDOF 6
ENDMDL
MODEL 8
REMARK VINA RESULT:      -7.3      7.121      9.512
REMARK  6 active torsions:
REMARK  status: ('A' for Active; 'I' for Inactive)
REMARK    1  A    between atoms: C_2  and  C_3 
REMARK    2  A    between atoms: C_3  and  O_4 
REMARK    3  A    between atoms: O_4  and  C_5 
REMARK    4  A    between atoms: C_7  and  N_8 
REMARK       I    between atoms: N_8  and  C_9 
REMARK       I    between atoms: C_9  and  N_10 
REMARK    5  A    between atoms: N_10  and  C_11 
REMARK    6  A    between atoms: C_11  and  C_12 
ROOT
HETATM    1  N   UNL     1      41.358 -15.182   1.089  1.00  0.00    -0.309 N 
HETATM    2  C   UNL     1      41.797 -16.484   0.995  1.00  0.00     0.320 C 
HETATM    3  N   UNL     1      43.117 -16.576   1.380  1.00  0.00    -0.339 N 
HETATM    4  O   UNL     1      41.167 -17.442   0.571  1.00  0.00    -0.247 OA
HETATM    5  H   UNL     1      42.081 -14.494   1.230  1.00  0.00     0.170 HD
HETATM    6  H   UNL     1      43.456 -15.912   2.059  1.00  0.00     0.164 HD
ENDROOT
BRANCH   1   7
HETATM    7  C   UNL     1      40.091 -14.684   0.724  1.00  0.00     0.039 A 
HETATM    8  C   UNL     1      39.983 -14.075  -0.530  1.00  0.00     0.066 A 
HETATM    9  C   UNL     1      38.752 -13.607  -1.000  1.00  0.00     0.070 A 
HETATM   10  C   UNL     1      37.627 -13.693  -0.183  1.00  0.00     0.037 A 
HETATM   11  C   UNL     1      37.733 -14.276   1.081  1.00  0.00     0.005 A 
HETATM   12  C   UNL     1      38.957 -14.777   1.531  1.00  0.00     0.030 A 
BRANCH   9  13
HETATM   13  O   UNL     1      38.785 -13.085  -2.264  1.00  0.00    -0.351 OA
BRANCH  13  14
HETATM   14  C   UNL     1      39.257 -13.950  -3.298  1.00  0.00     0.179 C 
BRANCH  14  15
HETATM   15  C   UNL     1      38.251 -15.094  -3.510  1.00  0.00     0.002 C 
HETATM   16  C   UNL     1      38.866 -16.219  -4.346  1.00  0.00     0.011 C 
HETATM   17  C   UNL     1      36.965 -14.596  -4.169  1.00  0.00     0.011 C 
ENDBRANCH  14  15
ENDBRANCH  13  14
ENDBRANCH   9  13
ENDBRANCH   1   7
BRANCH   3  18
HETATM   18  C   UNL     1      43.882 -17.791   1.193  1.00  0.00     0.164 C 
BRANCH  18  19
HETATM   19  C   UNL     1      43.983 -18.614   2.452  1.00  0.00    -0.023 A 
HETATM   20  C   UNL     1      44.339 -19.958   2.360  1.00  0.00     0.127 A 
HETATM   21  N   UNL     1      44.489 -20.786   3.419  1.00  0.00    -0.248 NA
HETATM   22  C   UNL     1      44.286 -20.242   4.635  1.00  0.00     0.125 A 
HETATM   23 CL   UNL     1      44.495 -21.323   5.950  1.00  0.00    -0.063 Cl
HETATM   24  C   UNL     1      43.940 -18.921   4.851  1.00  0.00     0.045 A 
HETATM   25  C   UNL     1      43.794 -18.096   3.739  1.00  0.00     0.013 A 
ENDBRANCH  18  19
ENDBRANCH   3  18
TORSDOF 6
ENDMDL
MODEL 9
REMARK VINA RESULT:      -7.1      5.381      7.453
REMARK  6 active torsions:
REMARK  status: ('A' for Active; 'I' for Inactive)
REMARK    1  A    between atoms: C_2  and  C_3 
REMARK    2  A    between atoms: C_3  and  O_4 
REMARK    3  A    between atoms: O_4  and  C_5 
REMARK    4  A    between atoms: C_7  and  N_8 
REMARK       I    between atoms: N_8  and  C_9 
REMARK       I    between atoms: C_9  and  N_10 
REMARK    5  A    between atoms: N_10  and  C_11 
REMARK    6  A    between atoms: C_11  and  C_12 
ROOT
HETATM    1  N   UNL     1      41.527 -16.800   4.677  1.00  0.00    -0.309 N 
HETATM    2  C   UNL     1      41.382 -16.263   3.417  1.00  0.00     0.320 C 
HETATM    3  N   UNL     1      40.048 -16.132   3.100  1.00  0.00    -0.339 N 
HETATM    4  O   UNL     1      42.276 -15.991   2.629  1.00  0.00    -0.247 OA
HETATM    5  H   UNL     1      40.687 -17.180   5.081  1.00  0.00     0.170 HD
HETATM    6  H   UNL     1      39.397 -15.985   3.857  1.00  0.00     0.164 HD
ENDROOT
BRANCH   1   7
HETATM    7  C   UNL     1      42.734 -17.140   5.322  1.00  0.00     0.039 A 
HETATM    8  C   UNL     1      43.419 -18.262   4.842  1.00  0.00     0.066 A 
HETATM    9  C   UNL     1      44.653 -18.637   5.381  1.00  0.00     0.070 A 
HETATM   10  C   UNL     1      45.181 -17.921   6.452  1.00  0.00     0.037 A 
HETATM   11  C   UNL     1      44.490 -16.816   6.954  1.00  0.00     0.005 A 
HETATM   12  C   UNL     1      43.275 -16.422   6.387  1.00  0.00     0.030 A 
BRANCH   9  13
HETATM   13  O   UNL     1      45.233 -19.719   4.778  1.00  0.00    -0.351 OA
BRANCH  13  14
HETATM   14  C   UNL     1      44.349 -20.653   4.157  1.00  0.00     0.179 C 
BRANCH  14  15
HETATM   15  C   UNL     1      44.592 -20.660   2.639  1.00  0.00     0.002 C 
HETATM   16  C   UNL     1      43.608 -19.733   1.920  1.00  0.00     0.011 C 
HETATM   17  C   UNL     1      44.495 -22.073   2.061  1.00  0.00     0.011 C 
ENDBRANCH  14  15
ENDBRANCH  13  14
ENDBRANCH   9  13
ENDBRANCH   1   7
BRANCH   3  18
HETATM   18  C   UNL     1      39.613 -15.776   1.766  1.00  0.00     0.164 C 
BRANCH  18  19
HETATM   19  C   UNL     1      38.922 -14.438   1.718  1.00  0.00    -0.023 A 
HETATM   20  C   UNL     1      39.388 -13.402   2.526  1.00  0.00     0.127 A 
HETATM   21  N   UNL     1      38.868 -12.154   2.548  1.00  0.00    -0.248 NA
HETATM   22  C   UNL     1      37.839 -11.921   1.711  1.00  0.00     0.125 A 
HETATM   23 CL   UNL     1      37.217 -10.323   1.763  1.00  0.00    -0.063 Cl
HETATM   24  C   UNL     1      37.300 -12.863   0.856  1.00  0.00     0.045 A 
HETATM   25  C   UNL     1      37.858 -14.140   0.858  1.00  0.00     0.013 A 
ENDBRANCH  18  19
ENDBRANCH   3  18
TORSDOF 6
ENDMDL
MODEL 10
REMARK VINA RESULT:      -7.0      2.547      2.791
REMARK  6 active torsions:
REMARK  status: ('A' for Active; 'I' for Inactive)
REMARK    1  A    between atoms: C_2  and  C_3 
REMARK    2  A    between atoms: C_3  and  O_4 
REMARK    3  A    between atoms: O_4  and  C_5 
REMARK    4  A    between atoms: C_7  and  N_8 
REMARK       I    between atoms: N_8  and  C_9 
REMARK       I    between atoms: C_9  and  N_10 
REMARK    5  A    between atoms: N_10  and  C_11 
REMARK    6  A    between atoms: C_11  and  C_12 
ROOT
HETATM    1  N   UNL     1      41.002 -14.154   5.446  1.00  0.00    -0.309 N 
HETATM    2  C   UNL     1      41.554 -12.893   5.471  1.00  0.00     0.320 C 
HETATM    3  N   UNL     1      41.456 -12.350   6.734  1.00  0.00    -0.339 N 
HETATM    4  O   UNL     1      42.012 -12.274   4.522  1.00  0.00    -0.247 OA
HETATM    5  H   UNL     1      40.462 -14.403   6.259  1.00  0.00     0.170 HD
HETATM    6  H   UNL     1      41.453 -12.983   7.519  1.00  0.00     0.164 HD
ENDROOT
BRANCH   1   7
HETATM    7  C   UNL     1      40.859 -14.997   4.325  1.00  0.00     0.039 A 
HETATM    8  C   UNL     1      41.648 -16.152   4.291  1.00  0.00     0.066 A 
HETATM    9  C   UNL     1      41.527 -17.075   3.247  1.00  0.00     0.070 A 
HETATM   10  C   UNL     1      40.654 -16.813   2.195  1.00  0.00     0.037 A 
HETATM   11  C   UNL     1      39.883 -15.649   2.208  1.00  0.00     0.005 A 
HETATM   12  C   UNL     1      39.979 -14.747   3.272  1.00  0.00     0.030 A 
BRANCH   9  13
HETATM   13  O   UNL     1      42.319 -18.183   3.373  1.00  0.00    -0.351 OA
BRANCH  13  14
HETATM   14  C   UNL     1      42.718 -18.823   2.159  1.00  0.00     0.179 C 
BRANCH  14  15
HETATM   15  C   UNL     1      43.965 -19.684   2.417  1.00  0.00     0.002 C 
HETATM   16  C   UNL     1      43.767 -21.110   1.897  1.00  0.00     0.011 C 
HETATM   17  C   UNL     1      44.327 -19.716   3.902  1.00  0.00     0.011 C 
ENDBRANCH  14  15
ENDBRANCH  13  14
ENDBRANCH   9  13
ENDBRANCH   1   7
BRANCH   3  18
HETATM   18  C   UNL     1      41.780 -10.963   6.994  1.00  0.00     0.164 C 
BRANCH  18  19
HETATM   19  C   UNL     1      42.380 -10.753   8.361  1.00  0.00    -0.023 A 
HETATM   20  C   UNL     1      41.745  -9.896   9.258  1.00  0.00     0.127 A 
HETATM   21  N   UNL     1      42.172  -9.652  10.518  1.00  0.00    -0.248 NA
HETATM   22  C   UNL     1      43.283 -10.307  10.909  1.00  0.00     0.125 A 
HETATM   23 CL   UNL     1      43.785  -9.977  12.515  1.00  0.00    -0.063 Cl
HETATM   24  C   UNL     1      43.990 -11.188  10.113  1.00  0.00     0.045 A 
HETATM   25  C   UNL     1      43.524 -11.417   8.820  1.00  0.00     0.013 A 
ENDBRANCH  18  19
ENDBRANCH   3  18
TORSDOF 6
ENDMDL
