MODEL 1
REMARK VINA RESULT:      -8.5      0.000      0.000
REMARK  5 active torsions:
REMARK  status: ('A' for Active; 'I' for Inactive)
REMARK    1  A    between atoms: C_7  and  C_8 
REMARK       I    between atoms: C_8  and  N_9 
REMARK    2  A    between atoms: N_9  and  C_10 
REMARK    3  A    between atoms: C_10  and  C_11 
REMARK    4  A    between atoms: C_11  and  O_12 
REMARK    5  A    between atoms: C_11  and  C_13 
ROOT
HETATM    1  C   UNL     1      43.214 -17.027   3.121  1.00  0.00     0.254 C 
HETATM    2  N   UNL     1      41.898 -16.755   3.424  1.00  0.00    -0.354 N 
HETATM    3  O   UNL     1      43.874 -16.309   2.375  1.00  0.00    -0.268 OA
HETATM    4  H   UNL     1      41.520 -17.190   4.256  1.00  0.00     0.162 HD
ENDROOT
BRANCH   2   5
HETATM    5  C   UNL     1      41.286 -15.493   3.037  1.00  0.00     0.159 C 
BRANCH   5   6
HETATM    6  C   UNL     1      40.038 -15.689   2.155  1.00  0.00     0.175 C 
BRANCH   6   7
HETATM    7  O   UNL     1      39.731 -17.090   2.096  1.00  0.00    -0.389 OA
HETATM    8  H   UNL     1      39.234 -17.263   1.278  1.00  0.00     0.210 HD
ENDBRANCH   6   7
BRANCH   6   9
HETATM    9  C   UNL     1      40.184 -15.034   0.802  1.00  0.00     0.049 A 
HETATM   10  C   UNL     1      39.445 -13.882   0.516  1.00  0.00     0.128 A 
HETATM   11  F   UNL     1      38.591 -13.399   1.429  1.00  0.00    -0.205 F 
HETATM   12  C   UNL     1      39.566 -13.212  -0.702  1.00  0.00     0.043 A 
HETATM   13  C   UNL     1      40.452 -13.684  -1.666  1.00  0.00     0.006 A 
HETATM   14  C   UNL     1      41.207 -14.826  -1.402  1.00  0.00     0.043 A 
HETATM   15  C   UNL     1      41.068 -15.484  -0.179  1.00  0.00     0.128 A 
HETATM   16  F   UNL     1      41.793 -16.592   0.031  1.00  0.00    -0.205 F 
ENDBRANCH   6   9
ENDBRANCH   5   6
ENDBRANCH   2   5
BRANCH   1  17
HETATM   17  C   UNL     1      43.784 -18.193   3.802  1.00  0.00     0.066 A 
HETATM   18  C   UNL     1      44.284 -18.274   5.102  1.00  0.00     0.022 A 
HETATM   19  C   UNL     1      44.358 -17.283   6.209  1.00  0.00     0.069 C 
HETATM   20  N   UNL     1      44.728 -19.559   5.299  1.00  0.00    -0.358 N 
HETATM   21  H   UNL     1      45.143 -19.907   6.153  1.00  0.00     0.166 HD
HETATM   22  C   UNL     1      44.500 -20.333   4.190  1.00  0.00     0.043 A 
HETATM   23  C   UNL     1      43.900 -19.512   3.237  1.00  0.00     0.008 A 
HETATM   24  C   UNL     1      44.772 -21.689   3.966  1.00  0.00     0.030 A 
HETATM   25  C   UNL     1      43.558 -20.081   1.991  1.00  0.00     0.015 A 
HETATM   26  C   UNL     1      43.821 -21.434   1.748  1.00  0.00     0.001 A 
HETATM   27  C   UNL     1      44.421 -22.225   2.724  1.00  0.00     0.002 A 
ENDBRANCH   1  17
TORSDOF 5
ENDMDL
MODEL 2
REMARK VINA RESULT:      -8.1      1.934      2.747
REMARK  5 active torsions:
REMARK  status: ('A' for Active; 'I' for Inactive)
REMARK    1  A    between atoms: C_7  and  C_8 
REMARK       I    between atoms: C_8  and  N_9 
REMARK    2  A    between atoms: N_9  and  C_10 
REMARK    3  A    between atoms: C_10  and  C_11 
REMARK    4  A    between atoms: C_11  and  O_12 
REMARK    5  A    between atoms: C_11  and  C_13 
ROOT
HETATM    1  C   UNL     1      43.165 -17.677   2.198  1.00  0.00     0.254 C 
HETATM    2  N   UNL     1      41.805 -17.775   2.002  1.00  0.00    -0.354 N 
HETATM    3  O   UNL     1      43.861 -16.890   1.563  1.00  0.00    -0.268 OA
HETATM    4  H   UNL     1      41.265 -18.200   2.745  1.00  0.00     0.162 HD
ENDROOT
BRANCH   2   5
HETATM    5  C   UNL     1      41.096 -16.808   1.179  1.00  0.00     0.159 C 
BRANCH   5   6
HETATM    6  C   UNL     1      40.216 -15.857   2.012  1.00  0.00     0.175 C 
BRANCH   6   7
HETATM    7  O   UNL     1      39.239 -15.257   1.148  1.00  0.00    -0.389 OA
HETATM    8  H   UNL     1      38.501 -15.880   1.036  1.00  0.00     0.210 HD
ENDBRANCH   6   7
BRANCH   6   9
HETATM    9  C   UNL     1      41.035 -14.860   2.798  1.00  0.00     0.049 A 
HETATM   10  C   UNL     1      40.959 -14.861   4.194  1.00  0.00     0.128 A 
HETATM   11  F   UNL     1      40.132 -15.717   4.811  1.00  0.00    -0.205 F 
HETATM   12  C   UNL     1      41.719 -13.990   4.975  1.00  0.00     0.043 A 
HETATM   13  C   UNL     1      42.593 -13.097   4.361  1.00  0.00     0.006 A 
HETATM   14  C   UNL     1      42.695 -13.082   2.972  1.00  0.00     0.043 A 
HETATM   15  C   UNL     1      41.922 -13.958   2.209  1.00  0.00     0.128 A 
HETATM   16  F   UNL     1      42.028 -13.900   0.874  1.00  0.00    -0.205 F 
ENDBRANCH   6   9
ENDBRANCH   5   6
ENDBRANCH   2   5
BRANCH   1  17
HETATM   17  C   UNL     1      43.707 -18.530   3.260  1.00  0.00     0.066 A 
HETATM   18  C   UNL     1      44.004 -18.184   4.578  1.00  0.00     0.022 A 
HETATM   19  C   UNL     1      43.832 -16.920   5.344  1.00  0.00     0.069 C 
HETATM   20  N   UNL     1      44.506 -19.302   5.200  1.00  0.00    -0.358 N 
HETATM   21  H   UNL     1      44.807 -19.345   6.164  1.00  0.00     0.166 HD
HETATM   22  C   UNL     1      44.509 -20.378   4.349  1.00  0.00     0.043 A 
HETATM   23  C   UNL     1      44.006 -19.933   3.129  1.00  0.00     0.008 A 
HETATM   24  C   UNL     1      44.913 -21.701   4.571  1.00  0.00     0.030 A 
HETATM   25  C   UNL     1      43.904 -20.865   2.073  1.00  0.00     0.015 A 
HETATM   26  C   UNL     1      44.301 -22.192   2.275  1.00  0.00     0.001 A 
HETATM   27  C   UNL     1      44.798 -22.602   3.509  1.00  0.00     0.002 A 
ENDBRANCH   1  17
TORSDOF 5
ENDMDL
MODEL 3
REMARK VINA RESULT:      -8.0      1.910      2.460
REMARK  5 active torsions:
REMARK  status: ('A' for Active; 'I' for Inactive)
REMARK    1  A    between atoms: C_7  and  C_8 
REMARK       I    between atoms: C_8  and  N_9 
REMARK    2  A    between atoms: N_9  and  C_10 
REMARK    3  A    between atoms: C_10  and  C_11 
REMARK    4  A    between atoms: C_11  and  O_12 
REMARK    5  A    between atoms: C_11  and  C_13 
ROOT
HETATM    1  C   UNL     1      41.924 -17.270   1.918  1.00  0.00     0.254 C 
HETATM    2  N   UNL     1      42.492 -16.707   0.796  1.00  0.00    -0.354 N 
HETATM    3  O   UNL     1      40.712 -17.255   2.114  1.00  0.00    -0.268 OA
HETATM    4  H   UNL     1      43.424 -17.015   0.551  1.00  0.00     0.162 HD
ENDROOT
BRANCH   2   5
HETATM    5  C   UNL     1      41.667 -16.247  -0.310  1.00  0.00     0.159 C 
BRANCH   5   6
HETATM    6  C   UNL     1      41.112 -14.828  -0.081  1.00  0.00     0.175 C 
BRANCH   6   7
HETATM    7  O   UNL     1      39.708 -14.923   0.206  1.00  0.00    -0.389 OA
HETATM    8  H   UNL     1      39.536 -15.784   0.624  1.00  0.00     0.210 HD
ENDBRANCH   6   7
BRANCH   6   9
HETATM    9  C   UNL     1      41.444 -13.892  -1.219  1.00  0.00     0.049 A 
HETATM   10  C   UNL     1      42.160 -12.720  -0.955  1.00  0.00     0.128 A 
HETATM   11  F   UNL     1      42.505 -12.425   0.306  1.00  0.00    -0.205 F 
HETATM   12  C   UNL     1      42.529 -11.837  -1.970  1.00  0.00     0.043 A 
HETATM   13  C   UNL     1      42.192 -12.122  -3.290  1.00  0.00     0.006 A 
HETATM   14  C   UNL     1      41.486 -13.288  -3.581  1.00  0.00     0.043 A 
HETATM   15  C   UNL     1      41.123 -14.156  -2.551  1.00  0.00     0.128 A 
HETATM   16  F   UNL     1      40.425 -15.257  -2.865  1.00  0.00    -0.205 F 
ENDBRANCH   6   9
ENDBRANCH   5   6
ENDBRANCH   2   5
BRANCH   1  17
HETATM   17  C   UNL     1      42.861 -17.941   2.824  1.00  0.00     0.066 A 
HETATM   18  C   UNL     1      43.441 -17.441   3.990  1.00  0.00     0.022 A 
HETATM   19  C   UNL     1      43.280 -16.152   4.715  1.00  0.00     0.069 C 
HETATM   20  N   UNL     1      44.264 -18.417   4.498  1.00  0.00    -0.358 N 
HETATM   21  H   UNL     1      44.816 -18.332   5.341  1.00  0.00     0.166 HD
HETATM   22  C   UNL     1      44.212 -19.553   3.730  1.00  0.00     0.043 A 
HETATM   23  C   UNL     1      43.336 -19.293   2.679  1.00  0.00     0.008 A 
HETATM   24  C   UNL     1      44.867 -20.781   3.891  1.00  0.00     0.030 A 
HETATM   25  C   UNL     1      43.106 -20.319   1.737  1.00  0.00     0.015 A 
HETATM   26  C   UNL     1      43.749 -21.554   1.881  1.00  0.00     0.001 A 
HETATM   27  C   UNL     1      44.619 -21.779   2.944  1.00  0.00     0.002 A 
ENDBRANCH   1  17
TORSDOF 5
ENDMDL
MODEL 4
REMARK VINA RESULT:      -8.0      2.503      3.489
REMARK  5 active torsions:
REMARK  status: ('A' for Active; 'I' for Inactive)
REMARK    1  A    between atoms: C_7  and  C_8 
REMARK       I    between atoms: C_8  and  N_9 
REMARK    2  A    between atoms: N_9  and  C_10 
REMARK    3  A    between atoms: C_10  and  C_11 
REMARK    4  A    between atoms: C_11  and  O_12 
REMARK    5  A    between atoms: C_11  and  C_13 
ROOT
HETATM    1  C   UNL     1      42.700 -17.117   3.481  1.00  0.00     0.254 C 
HETATM    2  N   UNL     1      43.412 -16.024   3.040  1.00  0.00    -0.354 N 
HETATM    3  O   UNL     1      41.474 -17.167   3.420  1.00  0.00    -0.268 OA
HETATM    4  H   UNL     1      44.393 -16.168   2.837  1.00  0.00     0.162 HD
ENDROOT
BRANCH   2   5
HETATM    5  C   UNL     1      42.761 -14.959   2.292  1.00  0.00     0.159 C 
BRANCH   5   6
HETATM    6  C   UNL     1      42.914 -13.584   2.970  1.00  0.00     0.175 C 
BRANCH   6   7
HETATM    7  O   UNL     1      44.155 -13.561   3.690  1.00  0.00    -0.389 OA
HETATM    8  H   UNL     1      44.614 -14.405   3.543  1.00  0.00     0.210 HD
ENDBRANCH   6   7
BRANCH   6   9
HETATM    9  C   UNL     1      41.709 -13.222   3.808  1.00  0.00     0.049 A 
HETATM   10  C   UNL     1      40.755 -12.342   3.289  1.00  0.00     0.128 A 
HETATM   11  F   UNL     1      40.941 -11.803   2.076  1.00  0.00    -0.205 F 
HETATM   12  C   UNL     1      39.604 -12.000   4.000  1.00  0.00     0.043 A 
HETATM   13  C   UNL     1      39.380 -12.552   5.259  1.00  0.00     0.006 A 
HETATM   14  C   UNL     1      40.312 -13.438   5.794  1.00  0.00     0.043 A 
HETATM   15  C   UNL     1      41.459 -13.764   5.068  1.00  0.00     0.128 A 
HETATM   16  F   UNL     1      42.345 -14.603   5.624  1.00  0.00    -0.205 F 
ENDBRANCH   6   9
ENDBRANCH   5   6
ENDBRANCH   2   5
BRANCH   1  17
HETATM   17  C   UNL     1      43.510 -18.237   3.968  1.00  0.00     0.066 A 
HETATM   18  C   UNL     1      44.225 -18.330   5.162  1.00  0.00     0.022 A 
HETATM   19  C   UNL     1      44.364 -17.406   6.319  1.00  0.00     0.069 C 
HETATM   20  N   UNL     1      44.846 -19.556   5.182  1.00  0.00    -0.358 N 
HETATM   21  H   UNL     1      45.436 -19.897   5.930  1.00  0.00     0.166 HD
HETATM   22  C   UNL     1      44.530 -20.286   4.065  1.00  0.00     0.043 A 
HETATM   23  C   UNL     1      43.687 -19.495   3.287  1.00  0.00     0.008 A 
HETATM   24  C   UNL     1      44.921 -21.578   3.692  1.00  0.00     0.030 A 
HETATM   25  C   UNL     1      43.212 -20.028   2.070  1.00  0.00     0.015 A 
HETATM   26  C   UNL     1      43.590 -21.318   1.680  1.00  0.00     0.001 A 
HETATM   27  C   UNL     1      44.433 -22.081   2.482  1.00  0.00     0.002 A 
ENDBRANCH   1  17
TORSDOF 5
ENDMDL
MODEL 5
REMARK VINA RESULT:      -7.8      1.514      2.013
REMARK  5 active torsions:
REMARK  status: ('A' for Active; 'I' for Inactive)
REMARK    1  A    between atoms: C_7  and  C_8 
REMARK       I    between atoms: C_8  and  N_9 
REMARK    2  A    between atoms: N_9  and  C_10 
REMARK    3  A    between atoms: C_10  and  C_11 
REMARK    4  A    between atoms: C_11  and  O_12 
REMARK    5  A    between atoms: C_11  and  C_13 
ROOT
HETATM    1  C   UNL     1      42.708 -16.586   3.731  1.00  0.00     0.254 C 
HETATM    2  N   UNL     1      43.189 -15.942   2.613  1.00  0.00    -0.354 N 
HETATM    3  O   UNL     1      41.662 -16.249   4.280  1.00  0.00    -0.268 OA
HETATM    4  H   UNL     1      43.861 -16.445   2.048  1.00  0.00     0.162 HD
ENDROOT
BRANCH   2   5
HETATM    5  C   UNL     1      42.378 -14.962   1.907  1.00  0.00     0.159 C 
BRANCH   5   6
HETATM    6  C   UNL     1      41.358 -15.616   0.955  1.00  0.00     0.175 C 
BRANCH   6   7
HETATM    7  O   UNL     1      42.053 -16.099  -0.205  1.00  0.00    -0.389 OA
HETATM    8  H   UNL     1      42.979 -15.806  -0.154  1.00  0.00     0.210 HD
ENDBRANCH   6   7
BRANCH   6   9
HETATM    9  C   UNL     1      40.199 -14.700   0.640  1.00  0.00     0.049 A 
HETATM   10  C   UNL     1      40.357 -13.705  -0.329  1.00  0.00     0.128 A 
HETATM   11  F   UNL     1      41.544 -13.552  -0.935  1.00  0.00    -0.205 F 
HETATM   12  C   UNL     1      39.312 -12.853  -0.689  1.00  0.00     0.043 A 
HETATM   13  C   UNL     1      38.067 -12.994  -0.084  1.00  0.00     0.006 A 
HETATM   14  C   UNL     1      37.880 -13.984   0.878  1.00  0.00     0.043 A 
HETATM   15  C   UNL     1      38.940 -14.822   1.228  1.00  0.00     0.128 A 
HETATM   16  F   UNL     1      38.730 -15.749   2.174  1.00  0.00    -0.205 F 
ENDBRANCH   6   9
ENDBRANCH   5   6
ENDBRANCH   2   5
BRANCH   1  17
HETATM   17  C   UNL     1      43.498 -17.737   4.178  1.00  0.00     0.066 A 
HETATM   18  C   UNL     1      44.215 -17.882   5.365  1.00  0.00     0.022 A 
HETATM   19  C   UNL     1      44.376 -16.999   6.552  1.00  0.00     0.069 C 
HETATM   20  N   UNL     1      44.811 -19.121   5.344  1.00  0.00    -0.358 N 
HETATM   21  H   UNL     1      45.396 -19.497   6.078  1.00  0.00     0.166 HD
HETATM   22  C   UNL     1      44.476 -19.808   4.205  1.00  0.00     0.043 A 
HETATM   23  C   UNL     1      43.646 -18.975   3.457  1.00  0.00     0.008 A 
HETATM   24  C   UNL     1      44.839 -21.095   3.790  1.00  0.00     0.030 A 
HETATM   25  C   UNL     1      43.156 -19.460   2.225  1.00  0.00     0.015 A 
HETATM   26  C   UNL     1      43.506 -20.744   1.792  1.00  0.00     0.001 A 
HETATM   27  C   UNL     1      44.337 -21.549   2.566  1.00  0.00     0.002 A 
ENDBRANCH   1  17
TORSDOF 5
ENDMDL
MODEL 6
REMARK VINA RESULT:      -7.8      2.216      3.359
REMARK  5 active torsions:
REMARK  status: ('A' for Active; 'I' for Inactive)
REMARK    1  A    between atoms: C_7  and  C_8 
REMARK       I    between atoms: C_8  and  N_9 
REMARK    2  A    between atoms: N_9  and  C_10 
REMARK    3  A    between atoms: C_10  and  C_11 
REMARK    4  A    between atoms: C_11  and  O_12 
REMARK    5  A    between atoms: C_11  and  C_13 
ROOT
HETATM    1  C   UNL     1      42.075 -16.303   5.778  1.00  0.00     0.254 C 
HETATM    2  N   UNL     1      42.641 -15.053   5.898  1.00  0.00    -0.354 N 
HETATM    3  O   UNL     1      40.889 -16.459   5.502  1.00  0.00    -0.268 OA
HETATM    4  H   UNL     1      43.648 -14.996   5.821  1.00  0.00     0.162 HD
ENDROOT
BRANCH   2   5
HETATM    5  C   UNL     1      41.909 -13.859   5.503  1.00  0.00     0.159 C 
BRANCH   5   6
HETATM    6  C   UNL     1      42.369 -13.309   4.140  1.00  0.00     0.175 C 
BRANCH   6   7
HETATM    7  O   UNL     1      42.074 -11.905   4.086  1.00  0.00    -0.389 OA
HETATM    8  H   UNL     1      42.574 -11.456   4.789  1.00  0.00     0.210 HD
ENDBRANCH   6   7
BRANCH   6   9
HETATM    9  C   UNL     1      41.807 -14.100   2.983  1.00  0.00     0.049 A 
HETATM   10  C   UNL     1      42.635 -14.994   2.297  1.00  0.00     0.128 A 
HETATM   11  F   UNL     1      43.924 -15.106   2.651  1.00  0.00    -0.205 F 
HETATM   12  C   UNL     1      42.163 -15.779   1.245  1.00  0.00     0.043 A 
HETATM   13  C   UNL     1      40.827 -15.690   0.863  1.00  0.00     0.006 A 
HETATM   14  C   UNL     1      39.978 -14.813   1.535  1.00  0.00     0.043 A 
HETATM   15  C   UNL     1      40.472 -14.034   2.582  1.00  0.00     0.128 A 
HETATM   16  F   UNL     1      39.632 -13.185   3.192  1.00  0.00    -0.205 F 
ENDBRANCH   6   9
ENDBRANCH   5   6
ENDBRANCH   2   5
BRANCH   1  17
HETATM   17  C   UNL     1      43.002 -17.427   5.939  1.00  0.00     0.066 A 
HETATM   18  C   UNL     1      43.619 -17.875   7.107  1.00  0.00     0.022 A 
HETATM   19  C   UNL     1      43.519 -17.434   8.525  1.00  0.00     0.069 C 
HETATM   20  N   UNL     1      44.415 -18.945   6.775  1.00  0.00    -0.358 N 
HETATM   21  H   UNL     1      44.984 -19.471   7.425  1.00  0.00     0.166 HD
HETATM   22  C   UNL     1      44.308 -19.241   5.440  1.00  0.00     0.043 A 
HETATM   23  C   UNL     1      43.424 -18.316   4.888  1.00  0.00     0.008 A 
HETATM   24  C   UNL     1      44.920 -20.253   4.689  1.00  0.00     0.030 A 
HETATM   25  C   UNL     1      43.140 -18.411   3.508  1.00  0.00     0.015 A 
HETATM   26  C   UNL     1      43.740 -19.415   2.741  1.00  0.00     0.001 A 
HETATM   27  C   UNL     1      44.619 -20.323   3.326  1.00  0.00     0.002 A 
ENDBRANCH   1  17
TORSDOF 5
ENDMDL
MODEL 7
REMARK VINA RESULT:      -7.6      2.540      3.234
REMARK  5 active torsions:
REMARK  status: ('A' for Active; 'I' for Inactive)
REMARK    1  A    between atoms: C_7  and  C_8 
REMARK       I    between atoms: C_8  and  N_9 
REMARK    2  A    between atoms: N_9  and  C_10 
REMARK    3  A    between atoms: C_10  and  C_11 
REMARK    4  A    between atoms: C_11  and  O_12 
REMARK    5  A    between atoms: C_11  and  C_13 
ROOT
HETATM    1  C   UNL     1      43.684 -16.207   5.919  1.00  0.00     0.254 C 
HETATM    2  N   UNL     1      42.485 -15.763   5.407  1.00  0.00    -0.354 N 
HETATM    3  O   UNL     1      44.439 -15.471   6.548  1.00  0.00    -0.268 OA
HETATM    4  H   UNL     1      41.795 -16.468   5.180  1.00  0.00     0.162 HD
ENDROOT
BRANCH   2   5
HETATM    5  C   UNL     1      41.959 -14.454   5.763  1.00  0.00     0.159 C 
BRANCH   5   6
HETATM    6  C   UNL     1      40.418 -14.424   5.785  1.00  0.00     0.175 C 
BRANCH   6   7
HETATM    7  O   UNL     1      39.935 -15.752   6.035  1.00  0.00    -0.389 OA
HETATM    8  H   UNL     1      40.302 -16.060   6.882  1.00  0.00     0.210 HD
ENDBRANCH   6   7
BRANCH   6   9
HETATM    9  C   UNL     1      39.840 -13.783   4.545  1.00  0.00     0.049 A 
HETATM   10  C   UNL     1      39.355 -12.473   4.614  1.00  0.00     0.128 A 
HETATM   11  F   UNL     1      39.373 -11.821   5.786  1.00  0.00    -0.205 F 
HETATM   12  C   UNL     1      38.844 -11.816   3.495  1.00  0.00     0.043 A 
HETATM   13  C   UNL     1      38.821 -12.465   2.263  1.00  0.00     0.006 A 
HETATM   14  C   UNL     1      39.307 -13.767   2.166  1.00  0.00     0.043 A 
HETATM   15  C   UNL     1      39.810 -14.409   3.299  1.00  0.00     0.128 A 
HETATM   16  F   UNL     1      40.248 -15.669   3.172  1.00  0.00    -0.205 F 
ENDBRANCH   6   9
ENDBRANCH   5   6
ENDBRANCH   2   5
BRANCH   1  17
HETATM   17  C   UNL     1      43.963 -17.632   5.713  1.00  0.00     0.066 A 
HETATM   18  C   UNL     1      44.200 -18.612   6.676  1.00  0.00     0.022 A 
HETATM   19  C   UNL     1      44.198 -18.575   8.164  1.00  0.00     0.069 C 
HETATM   20  N   UNL     1      44.429 -19.797   6.019  1.00  0.00    -0.358 N 
HETATM   21  H   UNL     1      44.630 -20.681   6.466  1.00  0.00     0.166 HD
HETATM   22  C   UNL     1      44.308 -19.637   4.662  1.00  0.00     0.043 A 
HETATM   23  C   UNL     1      44.007 -18.295   4.436  1.00  0.00     0.008 A 
HETATM   24  C   UNL     1      44.438 -20.574   3.629  1.00  0.00     0.030 A 
HETATM   25  C   UNL     1      43.828 -17.871   3.101  1.00  0.00     0.015 A 
HETATM   26  C   UNL     1      43.952 -18.792   2.055  1.00  0.00     0.001 A 
HETATM   27  C   UNL     1      44.253 -20.125   2.318  1.00  0.00     0.002 A 
ENDBRANCH   1  17
TORSDOF 5
ENDMDL
MODEL 8
REMARK VINA RESULT:      -7.6      1.517      2.480
REMARK  5 active torsions:
REMARK  status: ('A' for Active; 'I' for Inactive)
REMARK    1  A    between atoms: C_7  and  C_8 
REMARK       I    between atoms: C_8  and  N_9 
REMARK    2  A    between atoms: N_9  and  C_10 
REMARK    3  A    between atoms: C_10  and  C_11 
REMARK    4  A    between atoms: C_11  and  O_12 
REMARK    5  A    between atoms: C_11  and  C_13 
ROOT
HETATM    1  C   UNL     1      41.698 -16.771   3.812  1.00  0.00     0.254 C 
HETATM    2  N   UNL     1      42.097 -15.472   4.036  1.00  0.00    -0.354 N 
HETATM    3  O   UNL     1      40.703 -17.044   3.145  1.00  0.00    -0.268 OA
HETATM    4  H   UNL     1      43.059 -15.330   4.317  1.00  0.00     0.162 HD
ENDROOT
BRANCH   2   5
HETATM    5  C   UNL     1      41.477 -14.366   3.323  1.00  0.00     0.159 C 
BRANCH   5   6
HETATM    6  C   UNL     1      42.304 -13.912   2.104  1.00  0.00     0.175 C 
BRANCH   6   7
HETATM    7  O   UNL     1      42.730 -12.558   2.315  1.00  0.00    -0.389 OA
HETATM    8  H   UNL     1      42.019 -11.961   2.023  1.00  0.00     0.210 HD
ENDBRANCH   6   7
BRANCH   6   9
HETATM    9  C   UNL     1      41.571 -14.131   0.801  1.00  0.00     0.049 A 
HETATM   10  C   UNL     1      41.757 -15.328   0.104  1.00  0.00     0.128 A 
HETATM   11  F   UNL     1      42.610 -16.246   0.581  1.00  0.00    -0.205 F 
HETATM   12  C   UNL     1      41.079 -15.603  -1.084  1.00  0.00     0.043 A 
HETATM   13  C   UNL     1      40.181 -14.672  -1.598  1.00  0.00     0.006 A 
HETATM   14  C   UNL     1      39.971 -13.474  -0.918  1.00  0.00     0.043 A 
HETATM   15  C   UNL     1      40.662 -13.217   0.267  1.00  0.00     0.128 A 
HETATM   16  F   UNL     1      40.452 -12.045   0.883  1.00  0.00    -0.205 F 
ENDBRANCH   6   9
ENDBRANCH   5   6
ENDBRANCH   2   5
BRANCH   1  17
HETATM   17  C   UNL     1      42.578 -17.801   4.372  1.00  0.00     0.066 A 
HETATM   18  C   UNL     1      42.962 -17.977   5.702  1.00  0.00     0.022 A 
HETATM   19  C   UNL     1      42.593 -17.263   6.953  1.00  0.00     0.069 C 
HETATM   20  N   UNL     1      43.807 -19.060   5.751  1.00  0.00    -0.358 N 
HETATM   21  H   UNL     1      44.242 -19.420   6.590  1.00  0.00     0.166 HD
HETATM   22  C   UNL     1      43.957 -19.624   4.510  1.00  0.00     0.043 A 
HETATM   23  C   UNL     1      43.192 -18.867   3.625  1.00  0.00     0.008 A 
HETATM   24  C   UNL     1      44.701 -20.742   4.112  1.00  0.00     0.030 A 
HETATM   25  C   UNL     1      43.176 -19.251   2.266  1.00  0.00     0.015 A 
HETATM   26  C   UNL     1      43.912 -20.366   1.848  1.00  0.00     0.001 A 
HETATM   27  C   UNL     1      44.664 -21.100   2.761  1.00  0.00     0.002 A 
ENDBRANCH   1  17
TORSDOF 5
ENDMDL
MODEL 9
REMARK VINA RESULT:      -7.3      1.588      2.482
REMARK  5 active torsions:
REMARK  status: ('A' for Active; 'I' for Inactive)
REMARK    1  A    between atoms: C_7  and  C_8 
REMARK       I    between atoms: C_8  and  N_9 
REMARK    2  A    between atoms: N_9  and  C_10 
REMARK    3  A    between atoms: C_10  and  C_11 
REMARK    4  A    between atoms: C_11  and  O_12 
REMARK    5  A    between atoms: C_11  and  C_13 
ROOT
HETATM    1  C   UNL     1      41.180 -17.134   2.147  1.00  0.00     0.254 C 
HETATM    2  N   UNL     1      40.284 -16.323   2.807  1.00  0.00    -0.354 N 
HETATM    3  O   UNL     1      41.076 -17.384   0.949  1.00  0.00    -0.268 OA
HETATM    4  H   UNL     1      40.590 -15.920   3.684  1.00  0.00     0.162 HD
ENDROOT
BRANCH   2   5
HETATM    5  C   UNL     1      39.286 -15.559   2.075  1.00  0.00     0.159 C 
BRANCH   5   6
HETATM    6  C   UNL     1      39.849 -14.240   1.511  1.00  0.00     0.175 C 
BRANCH   6   7
HETATM    7  O   UNL     1      39.312 -13.148   2.272  1.00  0.00    -0.389 OA
HETATM    8  H   UNL     1      38.737 -12.619   1.692  1.00  0.00     0.210 HD
ENDBRANCH   6   7
BRANCH   6   9
HETATM    9  C   UNL     1      39.634 -14.116   0.021  1.00  0.00     0.049 A 
HETATM   10  C   UNL     1      40.712 -14.321  -0.845  1.00  0.00     0.128 A 
HETATM   11  F   UNL     1      41.926 -14.586  -0.341  1.00  0.00    -0.205 F 
HETATM   12  C   UNL     1      40.567 -14.256  -2.231  1.00  0.00     0.043 A 
HETATM   13  C   UNL     1      39.316 -13.993  -2.783  1.00  0.00     0.006 A 
HETATM   14  C   UNL     1      38.224 -13.793  -1.942  1.00  0.00     0.043 A 
HETATM   15  C   UNL     1      38.391 -13.857  -0.558  1.00  0.00     0.128 A 
HETATM   16  F   UNL     1      37.323 -13.638   0.222  1.00  0.00    -0.205 F 
ENDBRANCH   6   9
ENDBRANCH   5   6
ENDBRANCH   2   5
BRANCH   1  17
HETATM   17  C   UNL     1      42.299 -17.621   2.960  1.00  0.00     0.066 A 
HETATM   18  C   UNL     1      42.885 -17.017   4.072  1.00  0.00     0.022 A 
HETATM   19  C   UNL     1      42.566 -15.769   4.817  1.00  0.00     0.069 C 
HETATM   20  N   UNL     1      43.909 -17.829   4.496  1.00  0.00    -0.358 N 
HETATM   21  H   UNL     1      44.511 -17.640   5.287  1.00  0.00     0.166 HD
HETATM   22  C   UNL     1      43.988 -18.963   3.729  1.00  0.00     0.043 A 
HETATM   23  C   UNL     1      42.988 -18.871   2.763  1.00  0.00     0.008 A 
HETATM   24  C   UNL     1      44.860 -20.055   3.821  1.00  0.00     0.030 A 
HETATM   25  C   UNL     1      42.857 -19.930   1.839  1.00  0.00     0.015 A 
HETATM   26  C   UNL     1      43.718 -21.031   1.916  1.00  0.00     0.001 A 
HETATM   27  C   UNL     1      44.706 -21.090   2.895  1.00  0.00     0.002 A 
ENDBRANCH   1  17
TORSDOF 5
ENDMDL
MODEL 10
REMARK VINA RESULT:      -7.3      9.372     11.986
REMARK  5 active torsions:
REMARK  status: ('A' for Active; 'I' for Inactive)
REMARK    1  A    between atoms: C_7  and  C_8 
REMARK       I    between atoms: C_8  and  N_9 
REMARK    2  A    between atoms: N_9  and  C_10 
REMARK    3  A    between atoms: C_10  and  C_11 
REMARK    4  A    between atoms: C_11  and  O_12 
REMARK    5  A    between atoms: C_11  and  C_13 
ROOT
HETATM    1  C   UNL     1      41.041  -9.698   9.017  1.00  0.00     0.254 C 
HETATM    2  N   UNL     1      40.041 -10.218   9.807  1.00  0.00    -0.354 N 
HETATM    3  O   UNL     1      41.120  -8.497   8.769  1.00  0.00    -0.268 OA
HETATM    4  H   UNL     1      40.205 -11.131  10.212  1.00  0.00     0.162 HD
ENDROOT
BRANCH   2   5
HETATM    5  C   UNL     1      39.147  -9.346  10.554  1.00  0.00     0.159 C 
BRANCH   5   6
HETATM    6  C   UNL     1      39.171  -9.635  12.067  1.00  0.00     0.175 C 
BRANCH   6   7
HETATM    7  O   UNL     1      38.210  -8.787  12.714  1.00  0.00    -0.389 OA
HETATM    8  H   UNL     1      37.391  -9.294  12.849  1.00  0.00     0.210 HD
ENDBRANCH   6   7
BRANCH   6   9
HETATM    9  C   UNL     1      40.563  -9.540  12.646  1.00  0.00     0.049 A 
HETATM   10  C   UNL     1      41.128 -10.663  13.257  1.00  0.00     0.128 A 
HETATM   11  F   UNL     1      40.414 -11.794  13.355  1.00  0.00    -0.205 F 
HETATM   12  C   UNL     1      42.423 -10.648  13.777  1.00  0.00     0.043 A 
HETATM   13  C   UNL     1      43.191  -9.490  13.681  1.00  0.00     0.006 A 
HETATM   14  C   UNL     1      42.654  -8.360  13.070  1.00  0.00     0.043 A 
HETATM   15  C   UNL     1      41.355  -8.395  12.560  1.00  0.00     0.128 A 
HETATM   16  F   UNL     1      40.863  -7.282  11.999  1.00  0.00    -0.205 F 
ENDBRANCH   6   9
ENDBRANCH   5   6
ENDBRANCH   2   5
BRANCH   1  17
HETATM   17  C   UNL     1      42.036 -10.667   8.547  1.00  0.00     0.066 A 
HETATM   18  C   UNL     1      42.005 -11.442   7.389  1.00  0.00     0.022 A 
HETATM   19  C   UNL     1      41.039 -11.516   6.259  1.00  0.00     0.069 C 
HETATM   20  N   UNL     1      43.141 -12.215   7.373  1.00  0.00    -0.358 N 
HETATM   21  H   UNL     1      43.384 -12.878   6.649  1.00  0.00     0.166 HD
HETATM   22  C   UNL     1      43.935 -11.943   8.458  1.00  0.00     0.043 A 
HETATM   23  C   UNL     1      43.279 -10.970   9.209  1.00  0.00     0.008 A 
HETATM   24  C   UNL     1      45.178 -12.478   8.822  1.00  0.00     0.030 A 
HETATM   25  C   UNL     1      43.901 -10.511  10.390  1.00  0.00     0.015 A 
HETATM   26  C   UNL     1      45.143 -11.032  10.771  1.00  0.00     0.001 A 
HETATM   27  C   UNL     1      45.771 -12.003   9.995  1.00  0.00     0.002 A 
ENDBRANCH   1  17
TORSDOF 5
ENDMDL
