MODEL 1
REMARK VINA RESULT:      -7.6      0.000      0.000
REMARK  3 active torsions:
REMARK  status: ('A' for Active; 'I' for Inactive)
REMARK       I    between atoms: C_2  and  N_3 
REMARK    1  A    between atoms: N_3  and  C_4 
REMARK    2  A    between atoms: C_7  and  N_8 
REMARK       I    between atoms: N_8  and  C_9 
REMARK    3  A    between atoms: C_9  and  C_10 
ROOT
HETATM    1  C   UNL     1      40.122 -14.654   0.383  1.00  0.00     0.052 A 
HETATM    2  C   UNL     1      41.153 -15.323  -0.265  1.00  0.00     0.148 A 
HETATM    3  N   UNL     1      41.759 -16.441   0.219  1.00  0.00    -0.241 NA
HETATM    4  C   UNL     1      41.335 -16.924   1.404  1.00  0.00     0.130 A 
HETATM    5  C   UNL     1      40.315 -16.322   2.124  1.00  0.00     0.053 A 
HETATM    6  C   UNL     1      39.704 -15.178   1.603  1.00  0.00     0.035 A 
ENDROOT
BRANCH   4   7
HETATM    7  N   UNL     1      42.018 -18.072   1.806  1.00  0.00    -0.307 N 
HETATM    8  C   UNL     1      43.265 -18.176   2.369  1.00  0.00     0.259 C 
HETATM    9  O   UNL     1      44.000 -17.221   2.610  1.00  0.00    -0.267 OA
HETATM   10  H   UNL     1      41.483 -18.908   1.608  1.00  0.00     0.170 HD
BRANCH   8  11
HETATM   11  C   UNL     1      43.752 -19.552   2.739  1.00  0.00     0.054 A 
HETATM   12  C   UNL     1      44.399 -19.921   3.930  1.00  0.00     0.049 A 
HETATM   13 CL   UNL     1      44.731 -18.846   5.243  1.00  0.00    -0.083 Cl
HETATM   14  C   UNL     1      44.806 -21.252   4.130  1.00  0.00     0.025 A 
HETATM   15  C   UNL     1      44.569 -22.226   3.161  1.00  0.00     0.002 A 
HETATM   16  C   UNL     1      43.922 -21.879   1.983  1.00  0.00     0.001 A 
HETATM   17  C   UNL     1      43.519 -20.557   1.776  1.00  0.00     0.019 A 
ENDBRANCH   8  11
ENDBRANCH   4   7
BRANCH   1  18
HETATM   18  N   UNL     1      39.469 -13.501  -0.098  1.00  0.00    -0.326 N 
HETATM   19  C   UNL     1      38.509 -13.449  -1.092  1.00  0.00     0.218 C 
HETATM   20  C   UNL     1      38.021 -12.045  -1.339  1.00  0.00     0.117 C 
HETATM   21  O   UNL     1      38.079 -14.396  -1.738  1.00  0.00    -0.274 OA
HETATM   22  H   UNL     1      39.734 -12.623   0.330  1.00  0.00     0.169 HD
ENDBRANCH   1  18
TORSDOF 3
ENDMDL
MODEL 2
REMARK VINA RESULT:      -7.5      2.985      3.373
REMARK  3 active torsions:
REMARK  status: ('A' for Active; 'I' for Inactive)
REMARK       I    between atoms: C_2  and  N_3 
REMARK    1  A    between atoms: N_3  and  C_4 
REMARK    2  A    between atoms: C_7  and  N_8 
REMARK       I    between atoms: N_8  and  C_9 
REMARK    3  A    between atoms: C_9  and  C_10 
ROOT
HETATM    1  C   UNL     1      40.642 -13.678   3.853  1.00  0.00     0.052 A 
HETATM    2  C   UNL     1      41.755 -14.151   4.537  1.00  0.00     0.148 A 
HETATM    3  N   UNL     1      42.252 -15.410   4.408  1.00  0.00    -0.241 NA
HETATM    4  C   UNL     1      41.619 -16.254   3.568  1.00  0.00     0.130 A 
HETATM    5  C   UNL     1      40.500 -15.873   2.845  1.00  0.00     0.053 A 
HETATM    6  C   UNL     1      40.011 -14.571   2.990  1.00  0.00     0.035 A 
ENDROOT
BRANCH   4   7
HETATM    7  N   UNL     1      42.211 -17.516   3.507  1.00  0.00    -0.307 N 
HETATM    8  C   UNL     1      43.309 -17.915   2.787  1.00  0.00     0.259 C 
HETATM    9  O   UNL     1      43.961 -17.179   2.050  1.00  0.00    -0.267 OA
HETATM   10  H   UNL     1      41.705 -18.188   4.069  1.00  0.00     0.170 HD
BRANCH   8  11
HETATM   11  C   UNL     1      43.757 -19.345   2.931  1.00  0.00     0.054 A 
HETATM   12  C   UNL     1      44.461 -19.899   4.013  1.00  0.00     0.049 A 
HETATM   13 CL   UNL     1      44.922 -19.030   5.434  1.00  0.00    -0.083 Cl
HETATM   14  C   UNL     1      44.821 -21.259   4.000  1.00  0.00     0.025 A 
HETATM   15  C   UNL     1      44.480 -22.078   2.926  1.00  0.00     0.002 A 
HETATM   16  C   UNL     1      43.775 -21.548   1.854  1.00  0.00     0.001 A 
HETATM   17  C   UNL     1      43.419 -20.197   1.858  1.00  0.00     0.019 A 
ENDBRANCH   8  11
ENDBRANCH   4   7
BRANCH   1  18
HETATM   18  N   UNL     1      40.110 -12.377   3.958  1.00  0.00    -0.326 N 
HETATM   19  C   UNL     1      39.221 -11.923   4.914  1.00  0.00     0.218 C 
HETATM   20  C   UNL     1      38.876 -10.468   4.726  1.00  0.00     0.117 C 
HETATM   21  O   UNL     1      38.728 -12.582   5.822  1.00  0.00    -0.274 OA
HETATM   22  H   UNL     1      40.412 -11.711   3.259  1.00  0.00     0.169 HD
ENDBRANCH   1  18
TORSDOF 3
ENDMDL
MODEL 3
REMARK VINA RESULT:      -7.4      6.596      8.834
REMARK  3 active torsions:
REMARK  status: ('A' for Active; 'I' for Inactive)
REMARK       I    between atoms: C_2  and  N_3 
REMARK    1  A    between atoms: N_3  and  C_4 
REMARK    2  A    between atoms: C_7  and  N_8 
REMARK       I    between atoms: N_8  and  C_9 
REMARK    3  A    between atoms: C_9  and  C_10 
ROOT
HETATM    1  C   UNL     1      43.582 -17.799   4.868  1.00  0.00     0.052 A 
HETATM    2  C   UNL     1      42.908 -16.588   4.774  1.00  0.00     0.148 A 
HETATM    3  N   UNL     1      43.035 -15.573   5.670  1.00  0.00    -0.241 NA
HETATM    4  C   UNL     1      43.863 -15.758   6.718  1.00  0.00     0.130 A 
HETATM    5  C   UNL     1      44.576 -16.933   6.896  1.00  0.00     0.053 A 
HETATM    6  C   UNL     1      44.433 -17.960   5.958  1.00  0.00     0.035 A 
ENDROOT
BRANCH   4   7
HETATM    7  N   UNL     1      43.924 -14.656   7.572  1.00  0.00    -0.307 N 
HETATM    8  C   UNL     1      44.750 -13.563   7.506  1.00  0.00     0.259 C 
HETATM    9  O   UNL     1      45.604 -13.390   6.639  1.00  0.00    -0.267 OA
HETATM   10  H   UNL     1      43.265 -14.745   8.335  1.00  0.00     0.170 HD
BRANCH   8  11
HETATM   11  C   UNL     1      44.580 -12.493   8.552  1.00  0.00     0.054 A 
HETATM   12  C   UNL     1      43.548 -11.543   8.620  1.00  0.00     0.049 A 
HETATM   13 CL   UNL     1      42.226 -11.446   7.510  1.00  0.00    -0.083 Cl
HETATM   14  C   UNL     1      43.528 -10.595   9.659  1.00  0.00     0.025 A 
HETATM   15  C   UNL     1      44.520 -10.586  10.638  1.00  0.00     0.002 A 
HETATM   16  C   UNL     1      45.541 -11.525  10.590  1.00  0.00     0.001 A 
HETATM   17  C   UNL     1      45.569 -12.467   9.558  1.00  0.00     0.019 A 
ENDBRANCH   8  11
ENDBRANCH   4   7
BRANCH   1  18
HETATM   18  N   UNL     1      43.478 -18.864   3.951  1.00  0.00    -0.326 N 
HETATM   19  C   UNL     1      43.814 -18.835   2.610  1.00  0.00     0.218 C 
HETATM   20  C   UNL     1      43.582 -20.164   1.937  1.00  0.00     0.117 C 
HETATM   21  O   UNL     1      44.240 -17.872   1.987  1.00  0.00    -0.274 OA
HETATM   22  H   UNL     1      43.118 -19.737   4.315  1.00  0.00     0.169 HD
ENDBRANCH   1  18
TORSDOF 3
ENDMDL
MODEL 4
REMARK VINA RESULT:      -6.9      2.657      3.030
REMARK  3 active torsions:
REMARK  status: ('A' for Active; 'I' for Inactive)
REMARK       I    between atoms: C_2  and  N_3 
REMARK    1  A    between atoms: N_3  and  C_4 
REMARK    2  A    between atoms: C_7  and  N_8 
REMARK       I    between atoms: N_8  and  C_9 
REMARK    3  A    between atoms: C_9  and  C_10 
ROOT
HETATM    1  C   UNL     1      41.391 -14.297   2.719  1.00  0.00     0.052 A 
HETATM    2  C   UNL     1      42.579 -14.597   3.373  1.00  0.00     0.148 A 
HETATM    3  N   UNL     1      42.999 -15.860   3.651  1.00  0.00    -0.241 NA
HETATM    4  C   UNL     1      42.208 -16.884   3.273  1.00  0.00     0.130 A 
HETATM    5  C   UNL     1      41.004 -16.682   2.617  1.00  0.00     0.053 A 
HETATM    6  C   UNL     1      40.596 -15.375   2.338  1.00  0.00     0.035 A 
ENDROOT
BRANCH   4   7
HETATM    7  N   UNL     1      42.733 -18.135   3.601  1.00  0.00    -0.307 N 
HETATM    8  C   UNL     1      43.708 -18.852   2.956  1.00  0.00     0.259 C 
HETATM    9  O   UNL     1      44.288 -18.478   1.940  1.00  0.00    -0.267 OA
HETATM   10  H   UNL     1      42.277 -18.523   4.417  1.00  0.00     0.170 HD
BRANCH   8  11
HETATM   11  C   UNL     1      44.110 -20.176   3.551  1.00  0.00     0.054 A 
HETATM   12  C   UNL     1      44.248 -21.396   2.868  1.00  0.00     0.049 A 
HETATM   13 CL   UNL     1      44.012 -21.602   1.167  1.00  0.00    -0.083 Cl
HETATM   14  C   UNL     1      44.624 -22.558   3.565  1.00  0.00     0.025 A 
HETATM   15  C   UNL     1      44.875 -22.520   4.935  1.00  0.00     0.002 A 
HETATM   16  C   UNL     1      44.753 -21.320   5.623  1.00  0.00     0.001 A 
HETATM   17  C   UNL     1      44.375 -20.162   4.937  1.00  0.00     0.019 A 
ENDBRANCH   8  11
ENDBRANCH   4   7
BRANCH   1  18
HETATM   18  N   UNL     1      40.934 -13.000   2.409  1.00  0.00    -0.326 N 
HETATM   19  C   UNL     1      41.511 -12.112   1.520  1.00  0.00     0.218 C 
HETATM   20  C   UNL     1      40.744 -10.817   1.431  1.00  0.00     0.117 C 
HETATM   21  O   UNL     1      42.530 -12.295   0.866  1.00  0.00    -0.274 OA
HETATM   22  H   UNL     1      40.099 -12.691   2.890  1.00  0.00     0.169 HD
ENDBRANCH   1  18
TORSDOF 3
ENDMDL
MODEL 5
REMARK VINA RESULT:      -6.8      4.496      5.110
REMARK  3 active torsions:
REMARK  status: ('A' for Active; 'I' for Inactive)
REMARK       I    between atoms: C_2  and  N_3 
REMARK    1  A    between atoms: N_3  and  C_4 
REMARK    2  A    between atoms: C_7  and  N_8 
REMARK       I    between atoms: N_8  and  C_9 
REMARK    3  A    between atoms: C_9  and  C_10 
ROOT
HETATM    1  C   UNL     1      41.624 -12.780   5.728  1.00  0.00     0.052 A 
HETATM    2  C   UNL     1      40.971 -13.583   4.801  1.00  0.00     0.148 A 
HETATM    3  N   UNL     1      41.465 -14.757   4.326  1.00  0.00    -0.241 NA
HETATM    4  C   UNL     1      42.668 -15.163   4.780  1.00  0.00     0.130 A 
HETATM    5  C   UNL     1      43.395 -14.428   5.703  1.00  0.00     0.053 A 
HETATM    6  C   UNL     1      42.863 -13.227   6.181  1.00  0.00     0.035 A 
ENDROOT
BRANCH   4   7
HETATM    7  N   UNL     1      43.081 -16.379   4.233  1.00  0.00    -0.307 N 
HETATM    8  C   UNL     1      42.849 -17.650   4.694  1.00  0.00     0.259 C 
HETATM    9  O   UNL     1      42.214 -17.914   5.713  1.00  0.00    -0.267 OA
HETATM   10  H   UNL     1      43.641 -16.238   3.402  1.00  0.00     0.170 HD
BRANCH   8  11
HETATM   11  C   UNL     1      43.389 -18.798   3.883  1.00  0.00     0.054 A 
HETATM   12  C   UNL     1      43.064 -19.112   2.554  1.00  0.00     0.049 A 
HETATM   13 CL   UNL     1      41.985 -18.193   1.562  1.00  0.00    -0.083 Cl
HETATM   14  C   UNL     1      43.647 -20.228   1.928  1.00  0.00     0.025 A 
HETATM   15  C   UNL     1      44.558 -21.034   2.608  1.00  0.00     0.002 A 
HETATM   16  C   UNL     1      44.897 -20.731   3.920  1.00  0.00     0.001 A 
HETATM   17  C   UNL     1      44.318 -19.625   4.548  1.00  0.00     0.019 A 
ENDBRANCH   8  11
ENDBRANCH   4   7
BRANCH   1  18
HETATM   18  N   UNL     1      41.133 -11.565   6.246  1.00  0.00    -0.326 N 
HETATM   19  C   UNL     1      39.914 -11.364   6.865  1.00  0.00     0.218 C 
HETATM   20  C   UNL     1      39.727  -9.934   7.304  1.00  0.00     0.117 C 
HETATM   21  O   UNL     1      39.044 -12.206   7.052  1.00  0.00    -0.274 OA
HETATM   22  H   UNL     1      41.738 -10.759   6.150  1.00  0.00     0.169 HD
ENDBRANCH   1  18
TORSDOF 3
ENDMDL
MODEL 6
REMARK VINA RESULT:      -6.8      3.467      7.819
REMARK  3 active torsions:
REMARK  status: ('A' for Active; 'I' for Inactive)
REMARK       I    between atoms: C_2  and  N_3 
REMARK    1  A    between atoms: N_3  and  C_4 
REMARK    2  A    between atoms: C_7  and  N_8 
REMARK       I    between atoms: N_8  and  C_9 
REMARK    3  A    between atoms: C_9  and  C_10 
ROOT
HETATM    1  C   UNL     1      43.288 -17.757   3.349  1.00  0.00     0.052 A 
HETATM    2  C   UNL     1      41.955 -17.369   3.375  1.00  0.00     0.148 A 
HETATM    3  N   UNL     1      41.258 -16.959   2.282  1.00  0.00    -0.241 NA
HETATM    4  C   UNL     1      41.906 -16.922   1.100  1.00  0.00     0.130 A 
HETATM    5  C   UNL     1      43.237 -17.288   0.977  1.00  0.00     0.053 A 
HETATM    6  C   UNL     1      43.930 -17.711   2.114  1.00  0.00     0.035 A 
ENDROOT
BRANCH   4   7
HETATM    7  N   UNL     1      41.101 -16.492   0.045  1.00  0.00    -0.307 N 
HETATM    8  C   UNL     1      41.111 -15.285  -0.607  1.00  0.00     0.259 C 
HETATM    9  O   UNL     1      41.870 -14.357  -0.337  1.00  0.00    -0.267 OA
HETATM   10  H   UNL     1      40.423 -17.199  -0.213  1.00  0.00     0.170 HD
BRANCH   8  11
HETATM   11  C   UNL     1      40.144 -15.096  -1.745  1.00  0.00     0.054 A 
HETATM   12  C   UNL     1      39.098 -14.161  -1.811  1.00  0.00     0.049 A 
HETATM   13 CL   UNL     1      38.742 -12.996  -0.584  1.00  0.00    -0.083 Cl
HETATM   14  C   UNL     1      38.267 -14.109  -2.944  1.00  0.00     0.025 A 
HETATM   15  C   UNL     1      38.468 -14.973  -4.019  1.00  0.00     0.002 A 
HETATM   16  C   UNL     1      39.503 -15.897  -3.973  1.00  0.00     0.001 A 
HETATM   17  C   UNL     1      40.330 -15.956  -2.848  1.00  0.00     0.019 A 
ENDBRANCH   8  11
ENDBRANCH   4   7
BRANCH   1  18
HETATM   18  N   UNL     1      44.033 -18.196   4.463  1.00  0.00    -0.326 N 
HETATM   19  C   UNL     1      44.230 -17.510   5.646  1.00  0.00     0.218 C 
HETATM   20  C   UNL     1      45.073 -18.290   6.623  1.00  0.00     0.117 C 
HETATM   21  O   UNL     1      43.807 -16.394   5.921  1.00  0.00    -0.274 OA
HETATM   22  H   UNL     1      44.468 -19.107   4.382  1.00  0.00     0.169 HD
ENDBRANCH   1  18
TORSDOF 3
ENDMDL
MODEL 7
REMARK VINA RESULT:      -6.7      2.909      8.144
REMARK  3 active torsions:
REMARK  status: ('A' for Active; 'I' for Inactive)
REMARK       I    between atoms: C_2  and  N_3 
REMARK    1  A    between atoms: N_3  and  C_4 
REMARK    2  A    between atoms: C_7  and  N_8 
REMARK       I    between atoms: N_8  and  C_9 
REMARK    3  A    between atoms: C_9  and  C_10 
ROOT
HETATM    1  C   UNL     1      43.356 -18.505   2.921  1.00  0.00     0.052 A 
HETATM    2  C   UNL     1      42.058 -18.067   3.153  1.00  0.00     0.148 A 
HETATM    3  N   UNL     1      41.330 -17.337   2.267  1.00  0.00    -0.241 NA
HETATM    4  C   UNL     1      41.907 -17.014   1.092  1.00  0.00     0.130 A 
HETATM    5  C   UNL     1      43.197 -17.405   0.773  1.00  0.00     0.053 A 
HETATM    6  C   UNL     1      43.924 -18.160   1.698  1.00  0.00     0.035 A 
ENDROOT
BRANCH   4   7
HETATM    7  N   UNL     1      41.074 -16.270   0.256  1.00  0.00    -0.307 N 
HETATM    8  C   UNL     1      41.044 -14.912   0.062  1.00  0.00     0.259 C 
HETATM    9  O   UNL     1      41.785 -14.113   0.630  1.00  0.00    -0.267 OA
HETATM   10  H   UNL     1      40.409 -16.863  -0.225  1.00  0.00     0.170 HD
BRANCH   8  11
HETATM   11  C   UNL     1      40.053 -14.370  -0.934  1.00  0.00     0.054 A 
HETATM   12  C   UNL     1      40.067 -14.566  -2.324  1.00  0.00     0.049 A 
HETATM   13 CL   UNL     1      41.233 -15.523  -3.170  1.00  0.00    -0.083 Cl
HETATM   14  C   UNL     1      39.073 -13.984  -3.130  1.00  0.00     0.025 A 
HETATM   15  C   UNL     1      38.056 -13.215  -2.568  1.00  0.00     0.002 A 
HETATM   16  C   UNL     1      38.022 -13.020  -1.194  1.00  0.00     0.001 A 
HETATM   17  C   UNL     1      39.010 -13.591  -0.388  1.00  0.00     0.019 A 
ENDBRANCH   8  11
ENDBRANCH   4   7
BRANCH   1  18
HETATM   18  N   UNL     1      44.132 -19.271   3.815  1.00  0.00    -0.326 N 
HETATM   19  C   UNL     1      44.498 -20.595   3.665  1.00  0.00     0.218 C 
HETATM   20  C   UNL     1      45.341 -21.086   4.814  1.00  0.00     0.117 C 
HETATM   21  O   UNL     1      44.194 -21.335   2.738  1.00  0.00    -0.274 OA
HETATM   22  H   UNL     1      44.449 -18.798   4.652  1.00  0.00     0.169 HD
ENDBRANCH   1  18
TORSDOF 3
ENDMDL
MODEL 8
REMARK VINA RESULT:      -6.6      2.972      8.085
REMARK  3 active torsions:
REMARK  status: ('A' for Active; 'I' for Inactive)
REMARK       I    between atoms: C_2  and  N_3 
REMARK    1  A    between atoms: N_3  and  C_4 
REMARK    2  A    between atoms: C_7  and  N_8 
REMARK       I    between atoms: N_8  and  C_9 
REMARK    3  A    between atoms: C_9  and  C_10 
ROOT
HETATM    1  C   UNL     1      43.473 -18.646   2.911  1.00  0.00     0.052 A 
HETATM    2  C   UNL     1      42.145 -18.237   2.905  1.00  0.00     0.148 A 
HETATM    3  N   UNL     1      41.594 -17.446   1.945  1.00  0.00    -0.241 NA
HETATM    4  C   UNL     1      42.390 -17.028   0.941  1.00  0.00     0.130 A 
HETATM    5  C   UNL     1      43.728 -17.382   0.864  1.00  0.00     0.053 A 
HETATM    6  C   UNL     1      44.270 -18.201   1.859  1.00  0.00     0.035 A 
ENDROOT
BRANCH   4   7
HETATM    7  N   UNL     1      41.727 -16.227   0.010  1.00  0.00    -0.307 N 
HETATM    8  C   UNL     1      41.520 -14.871   0.038  1.00  0.00     0.259 C 
HETATM    9  O   UNL     1      41.905 -14.128   0.937  1.00  0.00    -0.267 OA
HETATM   10  H   UNL     1      41.351 -16.780  -0.750  1.00  0.00     0.170 HD
BRANCH   8  11
HETATM   11  C   UNL     1      40.792 -14.252  -1.125  1.00  0.00     0.054 A 
HETATM   12  C   UNL     1      39.440 -13.873  -1.164  1.00  0.00     0.049 A 
HETATM   13 CL   UNL     1      38.341 -14.015   0.164  1.00  0.00    -0.083 Cl
HETATM   14  C   UNL     1      38.896 -13.311  -2.333  1.00  0.00     0.025 A 
HETATM   15  C   UNL     1      39.685 -13.113  -3.464  1.00  0.00     0.002 A 
HETATM   16  C   UNL     1      41.025 -13.472  -3.439  1.00  0.00     0.001 A 
HETATM   17  C   UNL     1      41.571 -14.035  -2.282  1.00  0.00     0.019 A 
ENDBRANCH   8  11
ENDBRANCH   4   7
BRANCH   1  18
HETATM   18  N   UNL     1      44.068 -19.473   3.885  1.00  0.00    -0.326 N 
HETATM   19  C   UNL     1      44.496 -20.776   3.712  1.00  0.00     0.218 C 
HETATM   20  C   UNL     1      45.096 -21.349   4.970  1.00  0.00     0.117 C 
HETATM   21  O   UNL     1      44.411 -21.440   2.687  1.00  0.00    -0.274 OA
HETATM   22  H   UNL     1      44.191 -19.067   4.804  1.00  0.00     0.169 HD
ENDBRANCH   1  18
TORSDOF 3
ENDMDL
MODEL 9
REMARK VINA RESULT:      -6.6      3.318      8.058
REMARK  3 active torsions:
REMARK  status: ('A' for Active; 'I' for Inactive)
REMARK       I    between atoms: C_2  and  N_3 
REMARK    1  A    between atoms: N_3  and  C_4 
REMARK    2  A    between atoms: C_7  and  N_8 
REMARK       I    between atoms: N_8  and  C_9 
REMARK    3  A    between atoms: C_9  and  C_10 
ROOT
HETATM    1  C   UNL     1      42.954 -18.072   3.797  1.00  0.00     0.052 A 
HETATM    2  C   UNL     1      43.224 -16.711   3.717  1.00  0.00     0.148 A 
HETATM    3  N   UNL     1      43.063 -15.967   2.591  1.00  0.00    -0.241 NA
HETATM    4  C   UNL     1      42.620 -16.591   1.481  1.00  0.00     0.130 A 
HETATM    5  C   UNL     1      42.327 -17.946   1.464  1.00  0.00     0.053 A 
HETATM    6  C   UNL     1      42.495 -18.689   2.636  1.00  0.00     0.035 A 
ENDROOT
BRANCH   4   7
HETATM    7  N   UNL     1      42.486 -15.738   0.385  1.00  0.00    -0.307 N 
HETATM    8  C   UNL     1      41.392 -15.008  -0.006  1.00  0.00     0.259 C 
HETATM    9  O   UNL     1      40.313 -15.005   0.582  1.00  0.00    -0.267 OA
HETATM   10  H   UNL     1      43.333 -15.714  -0.169  1.00  0.00     0.170 HD
BRANCH   8  11
HETATM   11  C   UNL     1      41.534 -14.134  -1.224  1.00  0.00     0.054 A 
HETATM   12  C   UNL     1      41.199 -14.474  -2.544  1.00  0.00     0.049 A 
HETATM   13 CL   UNL     1      40.506 -15.984  -3.025  1.00  0.00    -0.083 Cl
HETATM   14  C   UNL     1      41.397 -13.549  -3.585  1.00  0.00     0.025 A 
HETATM   15  C   UNL     1      41.919 -12.283  -3.326  1.00  0.00     0.002 A 
HETATM   16  C   UNL     1      42.246 -11.928  -2.025  1.00  0.00     0.001 A 
HETATM   17  C   UNL     1      42.055 -12.844  -0.987  1.00  0.00     0.019 A 
ENDBRANCH   8  11
ENDBRANCH   4   7
BRANCH   1  18
HETATM   18  N   UNL     1      43.101 -18.867   4.952  1.00  0.00    -0.326 N 
HETATM   19  C   UNL     1      44.152 -19.717   5.240  1.00  0.00     0.218 C 
HETATM   20  C   UNL     1      43.982 -20.401   6.572  1.00  0.00     0.117 C 
HETATM   21  O   UNL     1      45.125 -19.940   4.530  1.00  0.00    -0.274 OA
HETATM   22  H   UNL     1      42.358 -18.807   5.636  1.00  0.00     0.169 HD
ENDBRANCH   1  18
TORSDOF 3
ENDMDL
MODEL 10
REMARK VINA RESULT:      -6.5      6.300      7.710
REMARK  3 active torsions:
REMARK  status: ('A' for Active; 'I' for Inactive)
REMARK       I    between atoms: C_2  and  N_3 
REMARK    1  A    between atoms: N_3  and  C_4 
REMARK    2  A    between atoms: C_7  and  N_8 
REMARK       I    between atoms: N_8  and  C_9 
REMARK    3  A    between atoms: C_9  and  C_10 
ROOT
HETATM    1  C   UNL     1      44.022 -12.430   8.066  1.00  0.00     0.052 A 
HETATM    2  C   UNL     1      42.938 -12.518   7.202  1.00  0.00     0.148 A 
HETATM    3  N   UNL     1      42.820 -13.450   6.219  1.00  0.00    -0.241 NA
HETATM    4  C   UNL     1      43.822 -14.340   6.070  1.00  0.00     0.130 A 
HETATM    5  C   UNL     1      44.944 -14.328   6.883  1.00  0.00     0.053 A 
HETATM    6  C   UNL     1      45.040 -13.364   7.891  1.00  0.00     0.035 A 
ENDROOT
BRANCH   4   7
HETATM    7  N   UNL     1      43.599 -15.252   5.038  1.00  0.00    -0.307 N 
HETATM    8  C   UNL     1      43.095 -16.526   5.112  1.00  0.00     0.259 C 
HETATM    9  O   UNL     1      42.753 -17.077   6.156  1.00  0.00    -0.267 OA
HETATM   10  H   UNL     1      43.890 -14.876   4.145  1.00  0.00     0.170 HD
BRANCH   8  11
HETATM   11  C   UNL     1      42.929 -17.288   3.825  1.00  0.00     0.054 A 
HETATM   12  C   UNL     1      41.923 -17.101   2.863  1.00  0.00     0.049 A 
HETATM   13 CL   UNL     1      40.679 -15.903   2.961  1.00  0.00    -0.083 Cl
HETATM   14  C   UNL     1      41.892 -17.900   1.707  1.00  0.00     0.025 A 
HETATM   15  C   UNL     1      42.858 -18.882   1.491  1.00  0.00     0.002 A 
HETATM   16  C   UNL     1      43.864 -19.073   2.427  1.00  0.00     0.001 A 
HETATM   17  C   UNL     1      43.898 -18.284   3.580  1.00  0.00     0.019 A 
ENDBRANCH   8  11
ENDBRANCH   4   7
BRANCH   1  18
HETATM   18  N   UNL     1      44.168 -11.483   9.100  1.00  0.00    -0.326 N 
HETATM   19  C   UNL     1      44.308 -11.748  10.449  1.00  0.00     0.218 C 
HETATM   20  C   UNL     1      44.452 -10.489  11.264  1.00  0.00     0.117 C 
HETATM   21  O   UNL     1      44.309 -12.853  10.978  1.00  0.00    -0.274 OA
HETATM   22  H   UNL     1      44.168 -10.510   8.820  1.00  0.00     0.169 HD
ENDBRANCH   1  18
TORSDOF 3
ENDMDL
