MODEL 1
REMARK VINA RESULT:      -7.5      0.000      0.000
REMARK  6 active torsions:
REMARK  status: ('A' for Active; 'I' for Inactive)
REMARK    1  A    between atoms: C_2  and  N_3 
REMARK    2  A    between atoms: C_2  and  C_25 
REMARK    3  A    between atoms: C_7  and  N_8 
REMARK       I    between atoms: N_8  and  C_9 
REMARK       I    between atoms: C_9  and  N_10 
REMARK    4  A    between atoms: N_10  and  C_11 
REMARK    5  A    between atoms: C_11  and  C_12 
REMARK    6  A    between atoms: C_20  and  O_21 
ROOT
HETATM    1  N   UNL     1      42.100 -12.460   3.293  1.00  0.00    -0.293 N 
HETATM    2  C   UNL     1      41.490 -12.873   4.491  1.00  0.00     0.322 C 
HETATM    3  N   UNL     1      40.528 -13.832   4.433  1.00  0.00    -0.337 N 
HETATM    4  O   UNL     1      41.960 -12.363   5.492  1.00  0.00    -0.247 OA
HETATM    5  H   UNL     1      42.874 -11.840   3.498  1.00  0.00     0.172 HD
HETATM    6  H   UNL     1      40.435 -14.306   3.553  1.00  0.00     0.164 HD
ENDROOT
BRANCH   3   7
HETATM    7  C   UNL     1      40.253 -14.679   5.577  1.00  0.00     0.181 C 
BRANCH   7   8
HETATM    8  C   UNL     1      41.195 -15.816   5.786  1.00  0.00     0.028 A 
HETATM    9  N   UNL     1      42.316 -15.751   6.583  1.00  0.00    -0.357 N 
HETATM   10  H   UNL     1      42.582 -14.951   7.144  1.00  0.00     0.166 HD
HETATM   11  C   UNL     1      43.133 -16.835   6.381  1.00  0.00     0.043 A 
HETATM   12  C   UNL     1      42.499 -17.657   5.456  1.00  0.00    -0.005 A 
HETATM   13  C   UNL     1      44.390 -17.122   6.919  1.00  0.00     0.033 A 
HETATM   14  C   UNL     1      41.258 -17.036   5.132  1.00  0.00     0.040 A 
HETATM   15  C   UNL     1      43.171 -18.814   5.017  1.00  0.00     0.050 A 
HETATM   16  C   UNL     1      44.461 -19.092   5.495  1.00  0.00     0.069 A 
HETATM   17  C   UNL     1      45.046 -18.267   6.455  1.00  0.00     0.039 A 
BRANCH  16  18
HETATM   18  O   UNL     1      45.049 -20.204   4.949  1.00  0.00    -0.356 OA
HETATM   19  C   UNL     1      44.665 -20.520   3.615  1.00  0.00     0.210 C 
ENDBRANCH  16  18
ENDBRANCH   7   8
ENDBRANCH   3   7
BRANCH   1  20
HETATM   20  C   UNL     1      41.873 -12.779   1.972  1.00  0.00     0.129 A 
HETATM   21  N   UNL     1      42.058 -14.029   1.410  1.00  0.00    -0.249 N 
HETATM   22  N   UNL     1      41.781 -14.050   0.090  1.00  0.00    -0.183 NA
HETATM   23  C   UNL     1      41.455 -12.790  -0.198  1.00  0.00     0.142 A 
HETATM   24  C   UNL     1      41.499 -11.954   0.934  1.00  0.00     0.071 A 
BRANCH  21  25
HETATM   25  C   UNL     1      42.414 -15.297   2.059  1.00  0.00     0.111 C 
HETATM   26  C   UNL     1      43.707 -15.218   2.883  1.00  0.00     0.035 C 
BRANCH  25  27
HETATM   27  C   UNL     1      42.327 -16.510   1.089  1.00  0.00     0.002 C 
HETATM   28  C   UNL     1      43.555 -17.426   1.098  1.00  0.00     0.011 C 
HETATM   29  C   UNL     1      41.074 -17.353   1.352  1.00  0.00     0.011 C 
ENDBRANCH  25  27
ENDBRANCH  21  25
ENDBRANCH   1  20
TORSDOF 6
ENDMDL
MODEL 2
REMARK VINA RESULT:      -7.5      2.155      4.426
REMARK  6 active torsions:
REMARK  status: ('A' for Active; 'I' for Inactive)
REMARK    1  A    between atoms: C_2  and  N_3 
REMARK    2  A    between atoms: C_2  and  C_25 
REMARK    3  A    between atoms: C_7  and  N_8 
REMARK       I    between atoms: N_8  and  C_9 
REMARK       I    between atoms: C_9  and  N_10 
REMARK    4  A    between atoms: N_10  and  C_11 
REMARK    5  A    between atoms: C_11  and  C_12 
REMARK    6  A    between atoms: C_20  and  O_21 
ROOT
HETATM    1  N   UNL     1      39.579 -14.793   3.543  1.00  0.00    -0.293 N 
HETATM    2  C   UNL     1      40.113 -15.239   2.320  1.00  0.00     0.322 C 
HETATM    3  N   UNL     1      41.302 -14.728   1.906  1.00  0.00    -0.337 N 
HETATM    4  O   UNL     1      39.466 -16.122   1.786  1.00  0.00    -0.247 OA
HETATM    5  H   UNL     1      38.764 -15.343   3.782  1.00  0.00     0.172 HD
HETATM    6  H   UNL     1      41.807 -14.187   2.584  1.00  0.00     0.164 HD
ENDROOT
BRANCH   3   7
HETATM    7  C   UNL     1      42.162 -15.477   1.009  1.00  0.00     0.181 C 
BRANCH   7   8
HETATM    8  C   UNL     1      42.914 -16.608   1.624  1.00  0.00     0.028 A 
HETATM    9  N   UNL     1      43.068 -17.842   1.035  1.00  0.00    -0.357 N 
HETATM   10  H   UNL     1      42.735 -18.088   0.110  1.00  0.00     0.166 HD
HETATM   11  C   UNL     1      43.563 -18.761   1.925  1.00  0.00     0.043 A 
HETATM   12  C   UNL     1      43.784 -18.090   3.122  1.00  0.00    -0.005 A 
HETATM   13  C   UNL     1      43.793 -20.130   1.766  1.00  0.00     0.033 A 
HETATM   14  C   UNL     1      43.427 -16.728   2.906  1.00  0.00     0.040 A 
HETATM   15  C   UNL     1      44.228 -18.832   4.235  1.00  0.00     0.050 A 
HETATM   16  C   UNL     1      44.406 -20.219   4.118  1.00  0.00     0.069 A 
HETATM   17  C   UNL     1      44.217 -20.850   2.888  1.00  0.00     0.039 A 
BRANCH  16  18
HETATM   18  O   UNL     1      44.771 -20.852   5.278  1.00  0.00    -0.356 OA
HETATM   19  C   UNL     1      45.076 -22.238   5.163  1.00  0.00     0.210 C 
ENDBRANCH  16  18
ENDBRANCH   7   8
ENDBRANCH   3   7
BRANCH   1  20
HETATM   20  C   UNL     1      39.984 -13.830   4.441  1.00  0.00     0.129 A 
HETATM   21  N   UNL     1      40.972 -13.993   5.394  1.00  0.00    -0.249 N 
HETATM   22  N   UNL     1      41.145 -12.892   6.155  1.00  0.00    -0.183 NA
HETATM   23  C   UNL     1      40.229 -12.035   5.706  1.00  0.00     0.142 A 
HETATM   24  C   UNL     1      39.475 -12.566   4.643  1.00  0.00     0.071 A 
BRANCH  21  25
HETATM   25  C   UNL     1      41.876 -15.129   5.611  1.00  0.00     0.111 C 
HETATM   26  C   UNL     1      41.215 -16.302   6.348  1.00  0.00     0.035 C 
BRANCH  25  27
HETATM   27  C   UNL     1      43.259 -14.694   6.176  1.00  0.00     0.002 C 
HETATM   28  C   UNL     1      44.090 -15.830   6.779  1.00  0.00     0.011 C 
HETATM   29  C   UNL     1      44.098 -13.970   5.116  1.00  0.00     0.011 C 
ENDBRANCH  25  27
ENDBRANCH  21  25
ENDBRANCH   1  20
TORSDOF 6
ENDMDL
MODEL 3
REMARK VINA RESULT:      -7.4      1.892      3.456
REMARK  6 active torsions:
REMARK  status: ('A' for Active; 'I' for Inactive)
REMARK    1  A    between atoms: C_2  and  N_3 
REMARK    2  A    between atoms: C_2  and  C_25 
REMARK    3  A    between atoms: C_7  and  N_8 
REMARK       I    between atoms: N_8  and  C_9 
REMARK       I    between atoms: C_9  and  N_10 
REMARK    4  A    between atoms: N_10  and  C_11 
REMARK    5  A    between atoms: C_11  and  C_12 
REMARK    6  A    between atoms: C_20  and  O_21 
ROOT
HETATM    1  N   UNL     1      43.135 -13.929   5.556  1.00  0.00    -0.293 N 
HETATM    2  C   UNL     1      43.748 -14.761   6.511  1.00  0.00     0.322 C 
HETATM    3  N   UNL     1      43.029 -15.787   7.037  1.00  0.00    -0.337 N 
HETATM    4  O   UNL     1      44.922 -14.506   6.713  1.00  0.00    -0.247 OA
HETATM    5  H   UNL     1      43.819 -13.294   5.165  1.00  0.00     0.172 HD
HETATM    6  H   UNL     1      42.157 -15.989   6.582  1.00  0.00     0.164 HD
ENDROOT
BRANCH   3   7
HETATM    7  C   UNL     1      43.690 -16.964   7.566  1.00  0.00     0.181 C 
BRANCH   7   8
HETATM    8  C   UNL     1      43.693 -18.162   6.678  1.00  0.00     0.028 A 
HETATM    9  N   UNL     1      43.845 -19.454   7.128  1.00  0.00    -0.357 N 
HETATM   10  H   UNL     1      43.916 -19.724   8.102  1.00  0.00     0.166 HD
HETATM   11  C   UNL     1      44.078 -20.319   6.089  1.00  0.00     0.043 A 
HETATM   12  C   UNL     1      44.029 -19.572   4.918  1.00  0.00    -0.005 A 
HETATM   13  C   UNL     1      44.362 -21.687   6.108  1.00  0.00     0.033 A 
HETATM   14  C   UNL     1      43.730 -18.230   5.294  1.00  0.00     0.040 A 
HETATM   15  C   UNL     1      44.312 -20.217   3.698  1.00  0.00     0.050 A 
HETATM   16  C   UNL     1      44.660 -21.577   3.696  1.00  0.00     0.069 A 
HETATM   17  C   UNL     1      44.657 -22.303   4.886  1.00  0.00     0.039 A 
BRANCH  16  18
HETATM   18  O   UNL     1      44.984 -22.085   2.465  1.00  0.00    -0.356 OA
HETATM   19  C   UNL     1      44.035 -21.857   1.427  1.00  0.00     0.210 C 
ENDBRANCH  16  18
ENDBRANCH   7   8
ENDBRANCH   3   7
BRANCH   1  20
HETATM   20  C   UNL     1      41.853 -13.874   5.054  1.00  0.00     0.129 A 
HETATM   21  N   UNL     1      41.494 -14.164   3.750  1.00  0.00    -0.249 N 
HETATM   22  N   UNL     1      40.173 -14.004   3.529  1.00  0.00    -0.183 NA
HETATM   23  C   UNL     1      39.695 -13.569   4.694  1.00  0.00     0.142 A 
HETATM   24  C   UNL     1      40.696 -13.465   5.678  1.00  0.00     0.071 A 
BRANCH  21  25
HETATM   25  C   UNL     1      42.317 -14.688   2.654  1.00  0.00     0.111 C 
HETATM   26  C   UNL     1      41.872 -14.197   1.269  1.00  0.00     0.035 C 
BRANCH  25  27
HETATM   27  C   UNL     1      42.553 -16.222   2.762  1.00  0.00     0.002 C 
HETATM   28  C   UNL     1      41.357 -17.084   2.347  1.00  0.00     0.011 C 
HETATM   29  C   UNL     1      43.786 -16.661   1.963  1.00  0.00     0.011 C 
ENDBRANCH  25  27
ENDBRANCH  21  25
ENDBRANCH   1  20
TORSDOF 6
ENDMDL
MODEL 4
REMARK VINA RESULT:      -7.3      2.422      6.138
REMARK  6 active torsions:
REMARK  status: ('A' for Active; 'I' for Inactive)
REMARK    1  A    between atoms: C_2  and  N_3 
REMARK    2  A    between atoms: C_2  and  C_25 
REMARK    3  A    between atoms: C_7  and  N_8 
REMARK       I    between atoms: N_8  and  C_9 
REMARK       I    between atoms: C_9  and  N_10 
REMARK    4  A    between atoms: N_10  and  C_11 
REMARK    5  A    between atoms: C_11  and  C_12 
REMARK    6  A    between atoms: C_20  and  O_21 
ROOT
HETATM    1  N   UNL     1      43.630 -18.914   6.849  1.00  0.00    -0.293 N 
HETATM    2  C   UNL     1      43.885 -17.652   7.415  1.00  0.00     0.322 C 
HETATM    3  N   UNL     1      44.508 -16.713   6.656  1.00  0.00    -0.337 N 
HETATM    4  O   UNL     1      43.435 -17.510   8.538  1.00  0.00    -0.247 OA
HETATM    5  H   UNL     1      43.057 -19.463   7.477  1.00  0.00     0.172 HD
HETATM    6  H   UNL     1      44.595 -16.926   5.679  1.00  0.00     0.164 HD
ENDROOT
BRANCH   3   7
HETATM    7  C   UNL     1      44.325 -15.299   6.924  1.00  0.00     0.181 C 
BRANCH   7   8
HETATM    8  C   UNL     1      43.428 -14.570   5.983  1.00  0.00     0.028 A 
HETATM    9  N   UNL     1      42.055 -14.556   6.082  1.00  0.00    -0.357 N 
HETATM   10  H   UNL     1      41.524 -14.991   6.827  1.00  0.00     0.166 HD
HETATM   11  C   UNL     1      41.479 -14.042   4.948  1.00  0.00     0.043 A 
HETATM   12  C   UNL     1      42.514 -13.665   4.100  1.00  0.00    -0.005 A 
HETATM   13  C   UNL     1      40.130 -13.921   4.603  1.00  0.00     0.033 A 
HETATM   14  C   UNL     1      43.733 -13.947   4.783  1.00  0.00     0.040 A 
HETATM   15  C   UNL     1      42.188 -13.169   2.822  1.00  0.00     0.050 A 
HETATM   16  C   UNL     1      40.843 -13.096   2.429  1.00  0.00     0.069 A 
HETATM   17  C   UNL     1      39.830 -13.443   3.323  1.00  0.00     0.039 A 
BRANCH  16  18
HETATM   18  O   UNL     1      40.643 -12.667   1.142  1.00  0.00    -0.356 OA
HETATM   19  C   UNL     1      41.646 -13.032   0.200  1.00  0.00     0.210 C 
ENDBRANCH  16  18
ENDBRANCH   7   8
ENDBRANCH   3   7
BRANCH   1  20
HETATM   20  C   UNL     1      43.962 -19.475   5.635  1.00  0.00     0.129 A 
HETATM   21  N   UNL     1      43.514 -19.033   4.403  1.00  0.00    -0.249 N 
HETATM   22  N   UNL     1      43.979 -19.784   3.383  1.00  0.00    -0.183 NA
HETATM   23  C   UNL     1      44.696 -20.737   3.977  1.00  0.00     0.142 A 
HETATM   24  C   UNL     1      44.717 -20.597   5.377  1.00  0.00     0.071 A 
BRANCH  21  25
HETATM   25  C   UNL     1      42.709 -17.850   4.076  1.00  0.00     0.111 C 
HETATM   26  C   UNL     1      41.337 -17.837   4.765  1.00  0.00     0.035 C 
BRANCH  25  27
HETATM   27  C   UNL     1      42.680 -17.549   2.550  1.00  0.00     0.002 C 
HETATM   28  C   UNL     1      41.351 -16.991   2.033  1.00  0.00     0.011 C 
HETATM   29  C   UNL     1      43.812 -16.601   2.140  1.00  0.00     0.011 C 
ENDBRANCH  25  27
ENDBRANCH  21  25
ENDBRANCH   1  20
TORSDOF 6
ENDMDL
MODEL 5
REMARK VINA RESULT:      -7.3      3.418      4.938
REMARK  6 active torsions:
REMARK  status: ('A' for Active; 'I' for Inactive)
REMARK    1  A    between atoms: C_2  and  N_3 
REMARK    2  A    between atoms: C_2  and  C_25 
REMARK    3  A    between atoms: C_7  and  N_8 
REMARK       I    between atoms: N_8  and  C_9 
REMARK       I    between atoms: C_9  and  N_10 
REMARK    4  A    between atoms: N_10  and  C_11 
REMARK    5  A    between atoms: C_11  and  C_12 
REMARK    6  A    between atoms: C_20  and  O_21 
ROOT
HETATM    1  N   UNL     1      39.259 -14.222  -0.383  1.00  0.00    -0.293 N 
HETATM    2  C   UNL     1      39.292 -14.943   0.824  1.00  0.00     0.322 C 
HETATM    3  N   UNL     1      40.383 -15.706   1.096  1.00  0.00    -0.337 N 
HETATM    4  O   UNL     1      38.337 -14.738   1.553  1.00  0.00    -0.247 OA
HETATM    5  H   UNL     1      38.454 -13.609  -0.394  1.00  0.00     0.172 HD
HETATM    6  H   UNL     1      41.174 -15.571   0.493  1.00  0.00     0.164 HD
ENDROOT
BRANCH   3   7
HETATM    7  C   UNL     1      40.749 -16.019   2.464  1.00  0.00     0.181 C 
BRANCH   7   8
HETATM    8  C   UNL     1      41.855 -17.005   2.631  1.00  0.00     0.028 A 
HETATM    9  N   UNL     1      42.084 -18.059   1.776  1.00  0.00    -0.357 N 
HETATM   10  H   UNL     1      41.563 -18.238   0.926  1.00  0.00     0.166 HD
HETATM   11  C   UNL     1      42.983 -18.947   2.309  1.00  0.00     0.043 A 
HETATM   12  C   UNL     1      43.390 -18.430   3.534  1.00  0.00    -0.005 A 
HETATM   13  C   UNL     1      43.431 -20.176   1.815  1.00  0.00     0.033 A 
HETATM   14  C   UNL     1      42.719 -17.183   3.700  1.00  0.00     0.040 A 
HETATM   15  C   UNL     1      44.266 -19.196   4.328  1.00  0.00     0.050 A 
HETATM   16  C   UNL     1      44.681 -20.460   3.882  1.00  0.00     0.069 A 
HETATM   17  C   UNL     1      44.287 -20.926   2.628  1.00  0.00     0.039 A 
BRANCH  16  18
HETATM   18  O   UNL     1      45.475 -21.148   4.763  1.00  0.00    -0.356 OA
HETATM   19  C   UNL     1      44.944 -22.374   5.256  1.00  0.00     0.210 C 
ENDBRANCH  16  18
ENDBRANCH   7   8
ENDBRANCH   3   7
BRANCH   1  20
HETATM   20  C   UNL     1      40.115 -14.170  -1.461  1.00  0.00     0.129 A 
HETATM   21  N   UNL     1      39.832 -14.648  -2.728  1.00  0.00    -0.249 N 
HETATM   22  N   UNL     1      40.862 -14.488  -3.585  1.00  0.00    -0.183 NA
HETATM   23  C   UNL     1      41.824 -13.940  -2.843  1.00  0.00     0.142 A 
HETATM   24  C   UNL     1      41.417 -13.724  -1.513  1.00  0.00     0.071 A 
BRANCH  21  25
HETATM   25  C   UNL     1      38.577 -15.197  -3.255  1.00  0.00     0.111 C 
HETATM   26  C   UNL     1      38.773 -16.096  -4.484  1.00  0.00     0.035 C 
BRANCH  25  27
HETATM   27  C   UNL     1      37.466 -14.118  -3.402  1.00  0.00     0.002 C 
HETATM   28  C   UNL     1      37.982 -12.700  -3.666  1.00  0.00     0.011 C 
HETATM   29  C   UNL     1      36.456 -14.492  -4.494  1.00  0.00     0.011 C 
ENDBRANCH  25  27
ENDBRANCH  21  25
ENDBRANCH   1  20
TORSDOF 6
ENDMDL
MODEL 6
REMARK VINA RESULT:      -7.2      5.292      7.772
REMARK  6 active torsions:
REMARK  status: ('A' for Active; 'I' for Inactive)
REMARK    1  A    between atoms: C_2  and  N_3 
REMARK    2  A    between atoms: C_2  and  C_25 
REMARK    3  A    between atoms: C_7  and  N_8 
REMARK       I    between atoms: N_8  and  C_9 
REMARK       I    between atoms: C_9  and  N_10 
REMARK    4  A    between atoms: N_10  and  C_11 
REMARK    5  A    between atoms: C_11  and  C_12 
REMARK    6  A    between atoms: C_20  and  O_21 
ROOT
HETATM    1  N   UNL     1      44.055 -11.373   9.896  1.00  0.00    -0.293 N 
HETATM    2  C   UNL     1      44.747 -12.445   9.305  1.00  0.00     0.322 C 
HETATM    3  N   UNL     1      44.132 -13.151   8.320  1.00  0.00    -0.337 N 
HETATM    4  O   UNL     1      45.891 -12.579   9.702  1.00  0.00    -0.247 OA
HETATM    5  H   UNL     1      44.673 -10.866  10.517  1.00  0.00     0.172 HD
HETATM    6  H   UNL     1      43.284 -12.754   7.960  1.00  0.00     0.164 HD
ENDROOT
BRANCH   3   7
HETATM    7  C   UNL     1      44.906 -13.863   7.321  1.00  0.00     0.181 C 
BRANCH   7   8
HETATM    8  C   UNL     1      44.153 -14.855   6.501  1.00  0.00     0.028 A 
HETATM    9  N   UNL     1      44.291 -16.219   6.624  1.00  0.00    -0.357 N 
HETATM   10  H   UNL     1      44.871 -16.683   7.313  1.00  0.00     0.166 HD
HETATM   11  C   UNL     1      43.692 -16.876   5.579  1.00  0.00     0.043 A 
HETATM   12  C   UNL     1      43.103 -15.909   4.773  1.00  0.00    -0.005 A 
HETATM   13  C   UNL     1      43.663 -18.240   5.277  1.00  0.00     0.033 A 
HETATM   14  C   UNL     1      43.349 -14.648   5.391  1.00  0.00     0.040 A 
HETATM   15  C   UNL     1      42.479 -16.320   3.579  1.00  0.00     0.050 A 
HETATM   16  C   UNL     1      42.490 -17.677   3.222  1.00  0.00     0.069 A 
HETATM   17  C   UNL     1      43.053 -18.624   4.077  1.00  0.00     0.039 A 
BRANCH  16  18
HETATM   18  O   UNL     1      41.917 -17.956   2.008  1.00  0.00    -0.356 OA
HETATM   19  C   UNL     1      40.795 -17.155   1.649  1.00  0.00     0.210 C 
ENDBRANCH  16  18
ENDBRANCH   7   8
ENDBRANCH   3   7
BRANCH   1  20
HETATM   20  C   UNL     1      42.773 -10.892   9.741  1.00  0.00     0.129 A 
HETATM   21  N   UNL     1      41.805 -10.865  10.729  1.00  0.00    -0.249 N 
HETATM   22  N   UNL     1      40.632 -10.362  10.292  1.00  0.00    -0.183 NA
HETATM   23  C   UNL     1      40.845 -10.104   9.002  1.00  0.00     0.142 A 
HETATM   24  C   UNL     1      42.158 -10.418   8.603  1.00  0.00     0.071 A 
BRANCH  21  25
HETATM   25  C   UNL     1      41.918 -11.215  12.150  1.00  0.00     0.111 C 
HETATM   26  C   UNL     1      40.573 -11.564  12.801  1.00  0.00     0.035 C 
BRANCH  25  27
HETATM   27  C   UNL     1      42.791 -10.203  12.948  1.00  0.00     0.002 C 
HETATM   28  C   UNL     1      42.727  -8.761  12.437  1.00  0.00     0.011 C 
HETATM   29  C   UNL     1      42.448 -10.219  14.442  1.00  0.00     0.011 C 
ENDBRANCH  25  27
ENDBRANCH  21  25
ENDBRANCH   1  20
TORSDOF 6
ENDMDL
MODEL 7
REMARK VINA RESULT:      -7.2      2.840      4.643
REMARK  6 active torsions:
REMARK  status: ('A' for Active; 'I' for Inactive)
REMARK    1  A    between atoms: C_2  and  N_3 
REMARK    2  A    between atoms: C_2  and  C_25 
REMARK    3  A    between atoms: C_7  and  N_8 
REMARK       I    between atoms: N_8  and  C_9 
REMARK       I    between atoms: C_9  and  N_10 
REMARK    4  A    between atoms: N_10  and  C_11 
REMARK    5  A    between atoms: C_11  and  C_12 
REMARK    6  A    between atoms: C_20  and  O_21 
ROOT
HETATM    1  N   UNL     1      41.847 -14.101  -0.712  1.00  0.00    -0.293 N 
HETATM    2  C   UNL     1      41.460 -14.140   0.640  1.00  0.00     0.322 C 
HETATM    3  N   UNL     1      40.314 -14.792   0.970  1.00  0.00    -0.337 N 
HETATM    4  O   UNL     1      42.263 -13.633   1.403  1.00  0.00    -0.247 OA
HETATM    5  H   UNL     1      42.771 -13.696  -0.793  1.00  0.00     0.172 HD
HETATM    6  H   UNL     1      39.904 -15.351   0.244  1.00  0.00     0.164 HD
ENDROOT
BRANCH   3   7
HETATM    7  C   UNL     1      40.128 -15.345   2.297  1.00  0.00     0.181 C 
BRANCH   7   8
HETATM    8  C   UNL     1      40.923 -16.567   2.610  1.00  0.00     0.028 A 
HETATM    9  N   UNL     1      41.535 -16.800   3.821  1.00  0.00    -0.357 N 
HETATM   10  H   UNL     1      41.464 -16.196   4.631  1.00  0.00     0.166 HD
HETATM   11  C   UNL     1      42.409 -17.855   3.743  1.00  0.00     0.043 A 
HETATM   12  C   UNL     1      42.328 -18.356   2.449  1.00  0.00    -0.005 A 
HETATM   13  C   UNL     1      43.281 -18.369   4.706  1.00  0.00     0.033 A 
HETATM   14  C   UNL     1      41.351 -17.578   1.763  1.00  0.00     0.040 A 
HETATM   15  C   UNL     1      43.189 -19.409   2.083  1.00  0.00     0.050 A 
HETATM   16  C   UNL     1      44.117 -19.902   3.012  1.00  0.00     0.069 A 
HETATM   17  C   UNL     1      44.139 -19.403   4.314  1.00  0.00     0.039 A 
BRANCH  16  18
HETATM   18  O   UNL     1      44.952 -20.876   2.529  1.00  0.00    -0.356 OA
HETATM   19  C   UNL     1      44.325 -21.938   1.817  1.00  0.00     0.210 C 
ENDBRANCH  16  18
ENDBRANCH   7   8
ENDBRANCH   3   7
BRANCH   1  20
HETATM   20  C   UNL     1      41.241 -14.542  -1.868  1.00  0.00     0.129 A 
HETATM   21  N   UNL     1      40.746 -13.728  -2.870  1.00  0.00    -0.249 N 
HETATM   22  N   UNL     1      40.183 -14.429  -3.876  1.00  0.00    -0.183 NA
HETATM   23  C   UNL     1      40.286 -15.700  -3.489  1.00  0.00     0.142 A 
HETATM   24  C   UNL     1      40.931 -15.829  -2.245  1.00  0.00     0.071 A 
BRANCH  21  25
HETATM   25  C   UNL     1      40.835 -12.269  -3.012  1.00  0.00     0.111 C 
HETATM   26  C   UNL     1      39.702 -11.669  -3.856  1.00  0.00     0.035 C 
BRANCH  25  27
HETATM   27  C   UNL     1      42.265 -11.791  -3.397  1.00  0.00     0.002 C 
HETATM   28  C   UNL     1      42.356 -11.063  -4.741  1.00  0.00     0.011 C 
HETATM   29  C   UNL     1      42.874 -10.903  -2.306  1.00  0.00     0.011 C 
ENDBRANCH  25  27
ENDBRANCH  21  25
ENDBRANCH   1  20
TORSDOF 6
ENDMDL
MODEL 8
REMARK VINA RESULT:      -7.2      1.819      2.494
REMARK  6 active torsions:
REMARK  status: ('A' for Active; 'I' for Inactive)
REMARK    1  A    between atoms: C_2  and  N_3 
REMARK    2  A    between atoms: C_2  and  C_25 
REMARK    3  A    between atoms: C_7  and  N_8 
REMARK       I    between atoms: N_8  and  C_9 
REMARK       I    between atoms: C_9  and  N_10 
REMARK    4  A    between atoms: N_10  and  C_11 
REMARK    5  A    between atoms: C_11  and  C_12 
REMARK    6  A    between atoms: C_20  and  O_21 
ROOT
HETATM    1  N   UNL     1      42.677 -13.546   2.750  1.00  0.00    -0.293 N 
HETATM    2  C   UNL     1      43.351 -13.867   3.942  1.00  0.00     0.322 C 
HETATM    3  N   UNL     1      42.678 -14.547   4.906  1.00  0.00    -0.337 N 
HETATM    4  O   UNL     1      44.529 -13.555   3.947  1.00  0.00    -0.247 OA
HETATM    5  H   UNL     1      43.329 -13.156   2.081  1.00  0.00     0.172 HD
HETATM    6  H   UNL     1      41.789 -14.927   4.636  1.00  0.00     0.164 HD
ENDROOT
BRANCH   3   7
HETATM    7  C   UNL     1      43.386 -15.368   5.870  1.00  0.00     0.181 C 
BRANCH   7   8
HETATM    8  C   UNL     1      43.406 -16.832   5.586  1.00  0.00     0.028 A 
HETATM    9  N   UNL     1      43.412 -17.805   6.559  1.00  0.00    -0.357 N 
HETATM   10  H   UNL     1      43.350 -17.629   7.555  1.00  0.00     0.166 HD
HETATM   11  C   UNL     1      43.702 -19.037   6.029  1.00  0.00     0.043 A 
HETATM   12  C   UNL     1      43.842 -18.868   4.657  1.00  0.00    -0.005 A 
HETATM   13  C   UNL     1      43.883 -20.267   6.667  1.00  0.00     0.033 A 
HETATM   14  C   UNL     1      43.598 -17.491   4.382  1.00  0.00     0.040 A 
HETATM   15  C   UNL     1      44.218 -19.981   3.879  1.00  0.00     0.050 A 
HETATM   16  C   UNL     1      44.466 -21.212   4.503  1.00  0.00     0.069 A 
HETATM   17  C   UNL     1      44.273 -21.354   5.877  1.00  0.00     0.039 A 
BRANCH  16  18
HETATM   18  O   UNL     1      44.893 -22.207   3.662  1.00  0.00    -0.356 OA
HETATM   19  C   UNL     1      44.501 -22.082   2.298  1.00  0.00     0.210 C 
ENDBRANCH  16  18
ENDBRANCH   7   8
ENDBRANCH   3   7
BRANCH   1  20
HETATM   20  C   UNL     1      41.371 -13.714   2.343  1.00  0.00     0.129 A 
HETATM   21  N   UNL     1      40.957 -14.530   1.306  1.00  0.00    -0.249 N 
HETATM   22  N   UNL     1      39.623 -14.484   1.111  1.00  0.00    -0.183 NA
HETATM   23  C   UNL     1      39.190 -13.599   2.009  1.00  0.00     0.142 A 
HETATM   24  C   UNL     1      40.235 -13.084   2.799  1.00  0.00     0.071 A 
BRANCH  21  25
HETATM   25  C   UNL     1      41.740 -15.464   0.488  1.00  0.00     0.111 C 
HETATM   26  C   UNL     1      41.168 -15.670  -0.921  1.00  0.00     0.035 C 
BRANCH  25  27
HETATM   27  C   UNL     1      42.095 -16.774   1.250  1.00  0.00     0.002 C 
HETATM   28  C   UNL     1      41.048 -17.885   1.134  1.00  0.00     0.011 C 
HETATM   29  C   UNL     1      43.459 -17.326   0.819  1.00  0.00     0.011 C 
ENDBRANCH  25  27
ENDBRANCH  21  25
ENDBRANCH   1  20
TORSDOF 6
ENDMDL
MODEL 9
REMARK VINA RESULT:      -7.2      3.799      6.280
REMARK  6 active torsions:
REMARK  status: ('A' for Active; 'I' for Inactive)
REMARK    1  A    between atoms: C_2  and  N_3 
REMARK    2  A    between atoms: C_2  and  C_25 
REMARK    3  A    between atoms: C_7  and  N_8 
REMARK       I    between atoms: N_8  and  C_9 
REMARK       I    between atoms: C_9  and  N_10 
REMARK    4  A    between atoms: N_10  and  C_11 
REMARK    5  A    between atoms: C_11  and  C_12 
REMARK    6  A    between atoms: C_20  and  O_21 
ROOT
HETATM    1  N   UNL     1      43.271 -13.631   7.006  1.00  0.00    -0.293 N 
HETATM    2  C   UNL     1      42.735 -13.836   5.721  1.00  0.00     0.322 C 
HETATM    3  N   UNL     1      43.541 -13.646   4.644  1.00  0.00    -0.337 N 
HETATM    4  O   UNL     1      41.589 -14.248   5.720  1.00  0.00    -0.247 OA
HETATM    5  H   UNL     1      42.603 -13.926   7.707  1.00  0.00     0.172 HD
HETATM    6  H   UNL     1      44.519 -13.536   4.842  1.00  0.00     0.164 HD
ENDROOT
BRANCH   3   7
HETATM    7  C   UNL     1      43.280 -14.328   3.391  1.00  0.00     0.181 C 
BRANCH   7   8
HETATM    8  C   UNL     1      43.345 -15.817   3.435  1.00  0.00     0.028 A 
HETATM    9  N   UNL     1      43.530 -16.546   4.587  1.00  0.00    -0.357 N 
HETATM   10  H   UNL     1      43.586 -16.153   5.519  1.00  0.00     0.166 HD
HETATM   11  C   UNL     1      43.816 -17.858   4.305  1.00  0.00     0.043 A 
HETATM   12  C   UNL     1      43.770 -17.997   2.923  1.00  0.00    -0.005 A 
HETATM   13  C   UNL     1      44.146 -18.908   5.166  1.00  0.00     0.033 A 
HETATM   14  C   UNL     1      43.417 -16.724   2.389  1.00  0.00     0.040 A 
HETATM   15  C   UNL     1      44.103 -19.247   2.363  1.00  0.00     0.050 A 
HETATM   16  C   UNL     1      44.498 -20.300   3.202  1.00  0.00     0.069 A 
HETATM   17  C   UNL     1      44.491 -20.135   4.587  1.00  0.00     0.039 A 
BRANCH  16  18
HETATM   18  O   UNL     1      44.867 -21.447   2.548  1.00  0.00    -0.356 OA
HETATM   19  C   UNL     1      43.979 -21.899   1.530  1.00  0.00     0.210 C 
ENDBRANCH  16  18
ENDBRANCH   7   8
ENDBRANCH   3   7
BRANCH   1  20
HETATM   20  C   UNL     1      44.496 -13.177   7.444  1.00  0.00     0.129 A 
HETATM   21  N   UNL     1      44.694 -12.318   8.509  1.00  0.00    -0.249 N 
HETATM   22  N   UNL     1      45.996 -12.021   8.701  1.00  0.00    -0.183 NA
HETATM   23  C   UNL     1      46.628 -12.667   7.721  1.00  0.00     0.142 A 
HETATM   24  C   UNL     1      45.743 -13.399   6.906  1.00  0.00     0.071 A 
BRANCH  21  25
HETATM   25  C   UNL     1      43.718 -11.787   9.469  1.00  0.00     0.111 C 
HETATM   26  C   UNL     1      42.838 -10.671   8.890  1.00  0.00     0.035 C 
BRANCH  25  27
HETATM   27  C   UNL     1      44.353 -11.470  10.854  1.00  0.00     0.002 C 
HETATM   28  C   UNL     1      43.920 -10.135  11.466  1.00  0.00     0.011 C 
HETATM   29  C   UNL     1      44.087 -12.592  11.865  1.00  0.00     0.011 C 
ENDBRANCH  25  27
ENDBRANCH  21  25
ENDBRANCH   1  20
TORSDOF 6
ENDMDL
MODEL 10
REMARK VINA RESULT:      -7.1      2.630      6.165
REMARK  6 active torsions:
REMARK  status: ('A' for Active; 'I' for Inactive)
REMARK    1  A    between atoms: C_2  and  N_3 
REMARK    2  A    between atoms: C_2  and  C_25 
REMARK    3  A    between atoms: C_7  and  N_8 
REMARK       I    between atoms: N_8  and  C_9 
REMARK       I    between atoms: C_9  and  N_10 
REMARK    4  A    between atoms: N_10  and  C_11 
REMARK    5  A    between atoms: C_11  and  C_12 
REMARK    6  A    between atoms: C_20  and  O_21 
ROOT
HETATM    1  N   UNL     1      41.885 -17.436   5.553  1.00  0.00    -0.293 N 
HETATM    2  C   UNL     1      41.579 -16.067   5.668  1.00  0.00     0.322 C 
HETATM    3  N   UNL     1      42.580 -15.162   5.510  1.00  0.00    -0.337 N 
HETATM    4  O   UNL     1      40.394 -15.834   5.828  1.00  0.00    -0.247 OA
HETATM    5  H   UNL     1      41.032 -17.980   5.570  1.00  0.00     0.172 HD
HETATM    6  H   UNL     1      43.445 -15.523   5.151  1.00  0.00     0.164 HD
ENDROOT
BRANCH   3   7
HETATM    7  C   UNL     1      42.296 -13.808   5.075  1.00  0.00     0.181 C 
BRANCH   7   8
HETATM    8  C   UNL     1      41.836 -13.661   3.664  1.00  0.00     0.028 A 
HETATM    9  N   UNL     1      40.527 -13.796   3.262  1.00  0.00    -0.357 N 
HETATM   10  H   UNL     1      39.743 -13.953   3.885  1.00  0.00     0.166 HD
HETATM   11  C   UNL     1      40.431 -13.878   1.896  1.00  0.00     0.043 A 
HETATM   12  C   UNL     1      41.718 -13.745   1.389  1.00  0.00    -0.005 A 
HETATM   13  C   UNL     1      39.312 -14.095   1.088  1.00  0.00     0.033 A 
HETATM   14  C   UNL     1      42.586 -13.552   2.503  1.00  0.00     0.040 A 
HETATM   15  C   UNL     1      41.907 -13.869  -0.002  1.00  0.00     0.050 A 
HETATM   16  C   UNL     1      40.808 -14.149  -0.829  1.00  0.00     0.069 A 
HETATM   17  C   UNL     1      39.526 -14.233  -0.288  1.00  0.00     0.039 A 
BRANCH  16  18
HETATM   18  O   UNL     1      41.116 -14.319  -2.155  1.00  0.00    -0.356 OA
HETATM   19  C   UNL     1      40.715 -15.557  -2.734  1.00  0.00     0.210 C 
ENDBRANCH  16  18
ENDBRANCH   7   8
ENDBRANCH   3   7
BRANCH   1  20
HETATM   20  C   UNL     1      43.071 -18.114   5.376  1.00  0.00     0.129 A 
HETATM   21  N   UNL     1      43.440 -18.791   4.228  1.00  0.00    -0.249 N 
HETATM   22  N   UNL     1      44.646 -19.385   4.341  1.00  0.00    -0.183 NA
HETATM   23  C   UNL     1      45.029 -19.116   5.589  1.00  0.00     0.142 A 
HETATM   24  C   UNL     1      44.086 -18.332   6.281  1.00  0.00     0.071 A 
BRANCH  21  25
HETATM   25  C   UNL     1      42.756 -18.863   2.931  1.00  0.00     0.111 C 
HETATM   26  C   UNL     1      43.230 -20.031   2.056  1.00  0.00     0.035 C 
BRANCH  25  27
HETATM   27  C   UNL     1      42.694 -17.485   2.210  1.00  0.00     0.002 C 
HETATM   28  C   UNL     1      43.938 -17.137   1.388  1.00  0.00     0.011 C 
HETATM   29  C   UNL     1      41.456 -17.375   1.312  1.00  0.00     0.011 C 
ENDBRANCH  25  27
ENDBRANCH  21  25
ENDBRANCH   1  20
TORSDOF 6
ENDMDL
