MODEL 1
REMARK VINA RESULT:      -8.1      0.000      0.000
REMARK  9 active torsions:
REMARK  status: ('A' for Active; 'I' for Inactive)
REMARK    1  A    between atoms: C_2  and  C_3 
REMARK    2  A    between atoms: C_3  and  N_4 
REMARK    3  A    between atoms: N_4  and  C_7 
REMARK    4  A    between atoms: C_7  and  C_8 
REMARK       I    between atoms: C_8  and  N_9 
REMARK    5  A    between atoms: N_9  and  C_10 
REMARK    6  A    between atoms: C_16  and  C_17 
REMARK    7  A    between atoms: C_22  and  C_23 
REMARK       I    between atoms: C_23  and  N_24 
REMARK    8  A    between atoms: N_24  and  C_25 
REMARK    9  A    between atoms: C_28  and  O_29 
ROOT
HETATM    1  C   UNL     1      42.467 -14.202   2.517  1.00  0.00     0.093 A 
HETATM    2  S   UNL     1      41.413 -12.962   2.061  1.00  0.00    -0.075 SA
HETATM    3  C   UNL     1      40.971 -13.778   0.642  1.00  0.00    -0.008 A 
HETATM    4  C   UNL     1      41.575 -15.018   0.522  1.00  0.00    -0.026 A 
HETATM    5  C   UNL     1      41.291 -15.877  -0.680  1.00  0.00     0.041 C 
HETATM    6  C   UNL     1      40.689 -15.081  -1.848  1.00  0.00     0.010 C 
HETATM    7  C   UNL     1      39.524 -14.162  -1.392  1.00  0.00    -0.002 C 
HETATM    8  C   UNL     1      40.058 -13.132  -0.362  1.00  0.00     0.052 C 
HETATM    9  C   UNL     1      42.460 -15.287   1.642  1.00  0.00     0.073 A 
ENDROOT
BRANCH   1  10
HETATM   10  N   UNL     1      43.279 -14.081   3.637  1.00  0.00    -0.319 N 
HETATM   11  C   UNL     1      42.891 -14.081   4.954  1.00  0.00     0.248 C 
HETATM   12  O   UNL     1      41.778 -14.297   5.429  1.00  0.00    -0.271 OA
HETATM   13  H   UNL     1      44.275 -14.063   3.398  1.00  0.00     0.169 HD
BRANCH  11  14
HETATM   14  C   UNL     1      44.047 -13.867   5.932  1.00  0.00     0.335 C 
BRANCH  14  15
HETATM   15  N   UNL     1      43.855 -14.734   7.157  1.00  0.00    -0.067 N 
HETATM   16  H   UNL     1      42.833 -14.735   7.326  1.00  0.00     0.277 HD
HETATM   17  H   UNL     1      44.295 -14.298   7.976  1.00  0.00     0.277 HD
BRANCH  15  18
HETATM   18  C   UNL     1      44.315 -16.145   6.984  1.00  0.00     0.236 C 
BRANCH  18  19
HETATM   19  C   UNL     1      43.391 -17.111   7.733  1.00  0.00     0.003 C 
HETATM   20  C   UNL     1      44.102 -18.454   7.915  1.00  0.00     0.011 C 
HETATM   21  C   UNL     1      42.059 -17.324   7.012  1.00  0.00     0.011 C 
ENDBRANCH  18  19
ENDBRANCH  15  18
ENDBRANCH  14  15
ENDBRANCH  11  14
ENDBRANCH   1  10
BRANCH   9  22
HETATM   22  C   UNL     1      43.318 -16.460   1.927  1.00  0.00     0.259 C 
HETATM   23  N   UNL     1      42.730 -17.478   2.647  1.00  0.00    -0.323 N 
HETATM   24  H   UNL     1      41.819 -17.295   3.039  1.00  0.00     0.169 HD
HETATM   25  O   UNL     1      44.500 -16.436   1.578  1.00  0.00    -0.267 OA
BRANCH  23  26
HETATM   26  C   UNL     1      43.281 -18.739   2.960  1.00  0.00     0.035 A 
HETATM   27  C   UNL     1      43.941 -19.030   4.154  1.00  0.00     0.032 A 
HETATM   28  C   UNL     1      44.482 -20.302   4.371  1.00  0.00     0.039 A 
HETATM   29  C   UNL     1      44.385 -21.298   3.400  1.00  0.00     0.068 A 
HETATM   30  C   UNL     1      43.723 -21.016   2.207  1.00  0.00     0.039 A 
HETATM   31  C   UNL     1      43.174 -19.744   1.991  1.00  0.00     0.032 A 
BRANCH  29  32
HETATM   32  O   UNL     1      44.967 -22.486   3.739  1.00  0.00    -0.356 OA
HETATM   33  C   UNL     1      45.251 -22.695   5.117  1.00  0.00     0.210 C 
ENDBRANCH  29  32
ENDBRANCH  23  26
ENDBRANCH   9  22
BRANCH   7  34
HETATM   34  C   UNL     1      38.744 -13.502  -2.591  1.00  0.00    -0.047 C 
HETATM   35  C   UNL     1      37.706 -12.497  -2.045  1.00  0.00     0.015 C 
HETATM   36  C   UNL     1      39.703 -12.714  -3.509  1.00  0.00     0.015 C 
HETATM   37  C   UNL     1      37.999 -14.541  -3.453  1.00  0.00     0.015 C 
ENDBRANCH   7  34
TORSDOF 9
ENDMDL
MODEL 2
REMARK VINA RESULT:      -8.0      2.523      3.453
REMARK  9 active torsions:
REMARK  status: ('A' for Active; 'I' for Inactive)
REMARK    1  A    between atoms: C_2  and  C_3 
REMARK    2  A    between atoms: C_3  and  N_4 
REMARK    3  A    between atoms: N_4  and  C_7 
REMARK    4  A    between atoms: C_7  and  C_8 
REMARK       I    between atoms: C_8  and  N_9 
REMARK    5  A    between atoms: N_9  and  C_10 
REMARK    6  A    between atoms: C_16  and  C_17 
REMARK    7  A    between atoms: C_22  and  C_23 
REMARK       I    between atoms: C_23  and  N_24 
REMARK    8  A    between atoms: N_24  and  C_25 
REMARK    9  A    between atoms: C_28  and  O_29 
ROOT
HETATM    1  C   UNL     1      41.421 -14.010   4.879  1.00  0.00     0.093 A 
HETATM    2  S   UNL     1      40.786 -12.465   4.625  1.00  0.00    -0.075 SA
HETATM    3  C   UNL     1      39.902 -12.984   3.274  1.00  0.00    -0.008 A 
HETATM    4  C   UNL     1      40.036 -14.341   3.030  1.00  0.00    -0.026 A 
HETATM    5  C   UNL     1      39.317 -14.968   1.869  1.00  0.00     0.041 C 
HETATM    6  C   UNL     1      38.855 -13.936   0.830  1.00  0.00     0.010 C 
HETATM    7  C   UNL     1      38.139 -12.724   1.485  1.00  0.00    -0.002 C 
HETATM    8  C   UNL     1      39.125 -12.003   2.442  1.00  0.00     0.052 C 
HETATM    9  C   UNL     1      40.930 -14.965   3.991  1.00  0.00     0.073 A 
ENDROOT
BRANCH   1  10
HETATM   10  N   UNL     1      42.376 -14.243   5.859  1.00  0.00    -0.319 N 
HETATM   11  C   UNL     1      43.740 -14.141   5.736  1.00  0.00     0.248 C 
HETATM   12  O   UNL     1      44.398 -13.720   4.787  1.00  0.00    -0.271 OA
HETATM   13  H   UNL     1      41.960 -14.442   6.774  1.00  0.00     0.169 HD
BRANCH  11  14
HETATM   14  C   UNL     1      44.499 -14.530   7.006  1.00  0.00     0.335 C 
BRANCH  14  15
HETATM   15  N   UNL     1      44.103 -13.615   8.145  1.00  0.00    -0.067 N 
HETATM   16  H   UNL     1      43.922 -14.249   8.945  1.00  0.00     0.277 HD
HETATM   17  H   UNL     1      43.218 -13.140   7.931  1.00  0.00     0.277 HD
BRANCH  15  18
HETATM   18  C   UNL     1      45.160 -12.636   8.537  1.00  0.00     0.236 C 
BRANCH  18  19
HETATM   19  C   UNL     1      44.663 -11.724   9.663  1.00  0.00     0.003 C 
HETATM   20  C   UNL     1      45.752 -10.706  10.011  1.00  0.00     0.011 C 
HETATM   21  C   UNL     1      44.265 -12.505  10.917  1.00  0.00     0.011 C 
ENDBRANCH  18  19
ENDBRANCH  15  18
ENDBRANCH  14  15
ENDBRANCH  11  14
ENDBRANCH   1  10
BRANCH   9  22
HETATM   22  C   UNL     1      41.380 -16.372   4.109  1.00  0.00     0.259 C 
HETATM   23  N   UNL     1      42.212 -16.825   3.108  1.00  0.00    -0.323 N 
HETATM   24  H   UNL     1      42.340 -16.222   2.309  1.00  0.00     0.169 HD
HETATM   25  O   UNL     1      40.943 -17.064   5.030  1.00  0.00    -0.267 OA
BRANCH  23  26
HETATM   26  C   UNL     1      42.864 -18.075   3.033  1.00  0.00     0.035 A 
HETATM   27  C   UNL     1      42.748 -18.956   1.957  1.00  0.00     0.032 A 
HETATM   28  C   UNL     1      43.409 -20.188   1.977  1.00  0.00     0.039 A 
HETATM   29  C   UNL     1      44.185 -20.568   3.073  1.00  0.00     0.068 A 
HETATM   30  C   UNL     1      44.310 -19.692   4.148  1.00  0.00     0.039 A 
HETATM   31  C   UNL     1      43.653 -18.453   4.126  1.00  0.00     0.032 A 
BRANCH  29  32
HETATM   32  O   UNL     1      44.763 -21.801   2.964  1.00  0.00    -0.356 OA
HETATM   33  C   UNL     1      44.741 -22.627   4.122  1.00  0.00     0.210 C 
ENDBRANCH  29  32
ENDBRANCH  23  26
ENDBRANCH   9  22
BRANCH   7  34
HETATM   34  C   UNL     1      37.462 -11.759   0.440  1.00  0.00    -0.047 C 
HETATM   35  C   UNL     1      38.122 -10.364   0.518  1.00  0.00     0.015 C 
HETATM   36  C   UNL     1      37.658 -12.278  -1.001  1.00  0.00     0.015 C 
HETATM   37  C   UNL     1      35.950 -11.590   0.687  1.00  0.00     0.015 C 
ENDBRANCH   7  34
TORSDOF 9
ENDMDL
MODEL 3
REMARK VINA RESULT:      -7.8      3.838      8.040
REMARK  9 active torsions:
REMARK  status: ('A' for Active; 'I' for Inactive)
REMARK    1  A    between atoms: C_2  and  C_3 
REMARK    2  A    between atoms: C_3  and  N_4 
REMARK    3  A    between atoms: N_4  and  C_7 
REMARK    4  A    between atoms: C_7  and  C_8 
REMARK       I    between atoms: C_8  and  N_9 
REMARK    5  A    between atoms: N_9  and  C_10 
REMARK    6  A    between atoms: C_16  and  C_17 
REMARK    7  A    between atoms: C_22  and  C_23 
REMARK       I    between atoms: C_23  and  N_24 
REMARK    8  A    between atoms: N_24  and  C_25 
REMARK    9  A    between atoms: C_28  and  O_29 
ROOT
HETATM    1  C   UNL     1      43.958 -16.148   6.189  1.00  0.00     0.093 A 
HETATM    2  S   UNL     1      44.721 -17.639   6.415  1.00  0.00    -0.075 SA
HETATM    3  C   UNL     1      44.188 -18.209   4.910  1.00  0.00    -0.008 A 
HETATM    4  C   UNL     1      43.471 -17.262   4.197  1.00  0.00    -0.026 A 
HETATM    5  C   UNL     1      42.924 -17.602   2.839  1.00  0.00     0.041 C 
HETATM    6  C   UNL     1      42.863 -19.116   2.586  1.00  0.00     0.010 C 
HETATM    7  C   UNL     1      44.187 -19.828   2.972  1.00  0.00    -0.002 C 
HETATM    8  C   UNL     1      44.455 -19.626   4.487  1.00  0.00     0.052 C 
HETATM    9  C   UNL     1      43.339 -16.024   4.947  1.00  0.00     0.073 A 
ENDROOT
BRANCH   1  10
HETATM   10  N   UNL     1      43.934 -15.192   7.196  1.00  0.00    -0.319 N 
HETATM   11  C   UNL     1      44.769 -14.111   7.341  1.00  0.00     0.248 C 
HETATM   12  O   UNL     1      45.630 -13.694   6.569  1.00  0.00    -0.271 OA
HETATM   13  H   UNL     1      43.143 -15.315   7.834  1.00  0.00     0.169 HD
BRANCH  11  14
HETATM   14  C   UNL     1      44.496 -13.294   8.604  1.00  0.00     0.335 C 
BRANCH  14  15
HETATM   15  N   UNL     1      43.546 -12.158   8.289  1.00  0.00    -0.067 N 
HETATM   16  H   UNL     1      42.626 -12.612   8.143  1.00  0.00     0.277 HD
HETATM   17  H   UNL     1      43.805 -11.711   7.402  1.00  0.00     0.277 HD
BRANCH  15  18
HETATM   18  C   UNL     1      43.417 -11.150   9.384  1.00  0.00     0.236 C 
BRANCH  18  19
HETATM   19  C   UNL     1      44.281 -11.543  10.587  1.00  0.00     0.003 C 
HETATM   20  C   UNL     1      43.486 -11.324  11.876  1.00  0.00     0.011 C 
HETATM   21  C   UNL     1      45.592 -10.757  10.647  1.00  0.00     0.011 C 
ENDBRANCH  18  19
ENDBRANCH  15  18
ENDBRANCH  14  15
ENDBRANCH  11  14
ENDBRANCH   1  10
BRANCH   9  22
HETATM   22  C   UNL     1      42.649 -14.761   4.599  1.00  0.00     0.259 C 
HETATM   23  N   UNL     1      41.278 -14.760   4.749  1.00  0.00    -0.323 N 
HETATM   24  H   UNL     1      40.838 -15.645   4.949  1.00  0.00     0.169 HD
HETATM   25  O   UNL     1      43.307 -13.827   4.138  1.00  0.00    -0.267 OA
BRANCH  23  26
HETATM   26  C   UNL     1      40.397 -13.669   4.592  1.00  0.00     0.035 A 
HETATM   27  C   UNL     1      39.879 -13.250   3.366  1.00  0.00     0.032 A 
HETATM   28  C   UNL     1      39.032 -12.140   3.298  1.00  0.00     0.039 A 
HETATM   29  C   UNL     1      38.697 -11.421   4.446  1.00  0.00     0.068 A 
HETATM   30  C   UNL     1      39.206 -11.836   5.674  1.00  0.00     0.039 A 
HETATM   31  C   UNL     1      40.050 -12.953   5.745  1.00  0.00     0.032 A 
BRANCH  29  32
HETATM   32  O   UNL     1      37.873 -10.354   4.233  1.00  0.00    -0.356 OA
HETATM   33  C   UNL     1      38.081  -9.606   3.040  1.00  0.00     0.210 C 
ENDBRANCH  29  32
ENDBRANCH  23  26
ENDBRANCH   9  22
BRANCH   7  34
HETATM   34  C   UNL     1      44.238 -21.337   2.523  1.00  0.00    -0.047 C 
HETATM   35  C   UNL     1      42.920 -21.712   1.810  1.00  0.00     0.015 C 
HETATM   36  C   UNL     1      45.385 -21.577   1.517  1.00  0.00     0.015 C 
HETATM   37  C   UNL     1      44.432 -22.300   3.711  1.00  0.00     0.015 C 
ENDBRANCH   7  34
TORSDOF 9
ENDMDL
MODEL 4
REMARK VINA RESULT:      -7.6      1.866      2.524
REMARK  9 active torsions:
REMARK  status: ('A' for Active; 'I' for Inactive)
REMARK    1  A    between atoms: C_2  and  C_3 
REMARK    2  A    between atoms: C_3  and  N_4 
REMARK    3  A    between atoms: N_4  and  C_7 
REMARK    4  A    between atoms: C_7  and  C_8 
REMARK       I    between atoms: C_8  and  N_9 
REMARK    5  A    between atoms: N_9  and  C_10 
REMARK    6  A    between atoms: C_16  and  C_17 
REMARK    7  A    between atoms: C_22  and  C_23 
REMARK       I    between atoms: C_23  and  N_24 
REMARK    8  A    between atoms: N_24  and  C_25 
REMARK    9  A    between atoms: C_28  and  O_29 
ROOT
HETATM    1  C   UNL     1      41.824 -14.191   3.323  1.00  0.00     0.093 A 
HETATM    2  S   UNL     1      41.521 -12.675   2.641  1.00  0.00    -0.075 SA
HETATM    3  C   UNL     1      41.249 -13.351   1.110  1.00  0.00    -0.008 A 
HETATM    4  C   UNL     1      41.333 -14.733   1.107  1.00  0.00    -0.026 A 
HETATM    5  C   UNL     1      41.118 -15.495  -0.171  1.00  0.00     0.041 C 
HETATM    6  C   UNL     1      41.253 -14.609  -1.419  1.00  0.00     0.010 C 
HETATM    7  C   UNL     1      40.454 -13.284  -1.287  1.00  0.00    -0.002 C 
HETATM    8  C   UNL     1      41.006 -12.472  -0.085  1.00  0.00     0.052 C 
HETATM    9  C   UNL     1      41.664 -15.246   2.426  1.00  0.00     0.073 A 
ENDROOT
BRANCH   1  10
HETATM   10  N   UNL     1      42.240 -14.317   4.641  1.00  0.00    -0.319 N 
HETATM   11  C   UNL     1      43.504 -14.116   5.140  1.00  0.00     0.248 C 
HETATM   12  O   UNL     1      44.499 -13.680   4.564  1.00  0.00    -0.271 OA
HETATM   13  H   UNL     1      41.465 -14.514   5.281  1.00  0.00     0.169 HD
BRANCH  11  14
HETATM   14  C   UNL     1      43.623 -14.401   6.638  1.00  0.00     0.335 C 
BRANCH  14  15
HETATM   15  N   UNL     1      43.727 -13.101   7.405  1.00  0.00    -0.067 N 
HETATM   16  H   UNL     1      42.880 -13.074   8.001  1.00  0.00     0.277 HD
HETATM   17  H   UNL     1      43.669 -12.301   6.763  1.00  0.00     0.277 HD
BRANCH  15  18
HETATM   18  C   UNL     1      44.934 -13.004   8.280  1.00  0.00     0.236 C 
BRANCH  18  19
HETATM   19  C   UNL     1      44.860 -11.757   9.168  1.00  0.00     0.003 C 
HETATM   20  C   UNL     1      45.192 -12.142  10.612  1.00  0.00     0.011 C 
HETATM   21  C   UNL     1      43.489 -11.081   9.114  1.00  0.00     0.011 C 
ENDBRANCH  18  19
ENDBRANCH  15  18
ENDBRANCH  14  15
ENDBRANCH  11  14
ENDBRANCH   1  10
BRANCH   9  22
HETATM   22  C   UNL     1      41.873 -16.637   2.890  1.00  0.00     0.259 C 
HETATM   23  N   UNL     1      42.957 -17.296   2.351  1.00  0.00    -0.323 N 
HETATM   24  H   UNL     1      43.440 -16.841   1.591  1.00  0.00     0.169 HD
HETATM   25  O   UNL     1      41.051 -17.142   3.656  1.00  0.00    -0.267 OA
BRANCH  23  26
HETATM   26  C   UNL     1      43.442 -18.576   2.695  1.00  0.00     0.035 A 
HETATM   27  C   UNL     1      44.104 -18.867   3.888  1.00  0.00     0.032 A 
HETATM   28  C   UNL     1      44.577 -20.160   4.138  1.00  0.00     0.039 A 
HETATM   29  C   UNL     1      44.409 -21.178   3.199  1.00  0.00     0.068 A 
HETATM   30  C   UNL     1      43.745 -20.896   2.008  1.00  0.00     0.039 A 
HETATM   31  C   UNL     1      43.265 -19.602   1.760  1.00  0.00     0.032 A 
BRANCH  29  32
HETATM   32  O   UNL     1      44.930 -22.386   3.567  1.00  0.00    -0.356 OA
HETATM   33  C   UNL     1      45.066 -22.632   4.961  1.00  0.00     0.210 C 
ENDBRANCH  29  32
ENDBRANCH  23  26
ENDBRANCH   9  22
BRANCH   7  34
HETATM   34  C   UNL     1      40.391 -12.457  -2.625  1.00  0.00    -0.047 C 
HETATM   35  C   UNL     1      39.078 -12.780  -3.374  1.00  0.00     0.015 C 
HETATM   36  C   UNL     1      40.392 -10.940  -2.340  1.00  0.00     0.015 C 
HETATM   37  C   UNL     1      41.570 -12.769  -3.568  1.00  0.00     0.015 C 
ENDBRANCH   7  34
TORSDOF 9
ENDMDL
MODEL 5
REMARK VINA RESULT:      -7.5      2.644      7.534
REMARK  9 active torsions:
REMARK  status: ('A' for Active; 'I' for Inactive)
REMARK    1  A    between atoms: C_2  and  C_3 
REMARK    2  A    between atoms: C_3  and  N_4 
REMARK    3  A    between atoms: N_4  and  C_7 
REMARK    4  A    between atoms: C_7  and  C_8 
REMARK       I    between atoms: C_8  and  N_9 
REMARK    5  A    between atoms: N_9  and  C_10 
REMARK    6  A    between atoms: C_16  and  C_17 
REMARK    7  A    between atoms: C_22  and  C_23 
REMARK       I    between atoms: C_23  and  N_24 
REMARK    8  A    between atoms: N_24  and  C_25 
REMARK    9  A    between atoms: C_28  and  O_29 
ROOT
HETATM    1  C   UNL     1      41.321 -13.632   4.654  1.00  0.00     0.093 A 
HETATM    2  S   UNL     1      40.973 -12.392   5.749  1.00  0.00    -0.075 SA
HETATM    3  C   UNL     1      42.412 -12.662   6.604  1.00  0.00    -0.008 A 
HETATM    4  C   UNL     1      43.195 -13.657   6.044  1.00  0.00    -0.026 A 
HETATM    5  C   UNL     1      44.508 -14.024   6.678  1.00  0.00     0.041 C 
HETATM    6  C   UNL     1      44.621 -13.537   8.130  1.00  0.00     0.010 C 
HETATM    7  C   UNL     1      44.194 -12.053   8.287  1.00  0.00    -0.002 C 
HETATM    8  C   UNL     1      42.708 -11.901   7.866  1.00  0.00     0.052 C 
HETATM    9  C   UNL     1      42.559 -14.234   4.872  1.00  0.00     0.073 A 
ENDROOT
BRANCH   1  10
HETATM   10  N   UNL     1      40.405 -14.012   3.683  1.00  0.00    -0.319 N 
HETATM   11  C   UNL     1      39.928 -13.253   2.642  1.00  0.00     0.248 C 
HETATM   12  O   UNL     1      40.282 -12.133   2.280  1.00  0.00    -0.271 OA
HETATM   13  H   UNL     1      40.142 -14.999   3.756  1.00  0.00     0.169 HD
BRANCH  11  14
HETATM   14  C   UNL     1      38.879 -13.971   1.792  1.00  0.00     0.335 C 
BRANCH  14  15
HETATM   15  N   UNL     1      39.553 -14.965   0.871  1.00  0.00    -0.067 N 
HETATM   16  H   UNL     1      38.837 -15.694   0.696  1.00  0.00     0.277 HD
HETATM   17  H   UNL     1      40.337 -15.422   1.351  1.00  0.00     0.277 HD
BRANCH  15  18
HETATM   18  C   UNL     1      39.983 -14.389  -0.438  1.00  0.00     0.236 C 
BRANCH  18  19
HETATM   19  C   UNL     1      41.180 -15.161  -1.002  1.00  0.00     0.003 C 
HETATM   20  C   UNL     1      40.854 -15.640  -2.419  1.00  0.00     0.011 C 
HETATM   21  C   UNL     1      41.571 -16.355  -0.129  1.00  0.00     0.011 C 
ENDBRANCH  18  19
ENDBRANCH  15  18
ENDBRANCH  14  15
ENDBRANCH  11  14
ENDBRANCH   1  10
BRANCH   9  22
HETATM   22  C   UNL     1      43.009 -15.322   3.974  1.00  0.00     0.259 C 
HETATM   23  N   UNL     1      43.116 -16.572   4.547  1.00  0.00    -0.323 N 
HETATM   24  H   UNL     1      43.015 -16.628   5.549  1.00  0.00     0.169 HD
HETATM   25  O   UNL     1      43.324 -15.050   2.814  1.00  0.00    -0.267 OA
BRANCH  23  26
HETATM   26  C   UNL     1      43.416 -17.790   3.901  1.00  0.00     0.035 A 
HETATM   27  C   UNL     1      42.873 -18.182   2.677  1.00  0.00     0.032 A 
HETATM   28  C   UNL     1      43.205 -19.421   2.119  1.00  0.00     0.039 A 
HETATM   29  C   UNL     1      44.073 -20.294   2.777  1.00  0.00     0.068 A 
HETATM   30  C   UNL     1      44.623 -19.908   3.997  1.00  0.00     0.039 A 
HETATM   31  C   UNL     1      44.296 -18.663   4.553  1.00  0.00     0.032 A 
BRANCH  29  32
HETATM   32  O   UNL     1      44.299 -21.473   2.126  1.00  0.00    -0.356 OA
HETATM   33  C   UNL     1      44.641 -22.597   2.929  1.00  0.00     0.210 C 
ENDBRANCH  29  32
ENDBRANCH  23  26
ENDBRANCH   9  22
BRANCH   7  34
HETATM   34  C   UNL     1      44.505 -11.461   9.713  1.00  0.00    -0.047 C 
HETATM   35  C   UNL     1      45.919 -10.837   9.719  1.00  0.00     0.015 C 
HETATM   36  C   UNL     1      43.509 -10.339  10.075  1.00  0.00     0.015 C 
HETATM   37  C   UNL     1      44.448 -12.531  10.821  1.00  0.00     0.015 C 
ENDBRANCH   7  34
TORSDOF 9
ENDMDL
MODEL 6
REMARK VINA RESULT:      -7.4      1.882      2.526
REMARK  9 active torsions:
REMARK  status: ('A' for Active; 'I' for Inactive)
REMARK    1  A    between atoms: C_2  and  C_3 
REMARK    2  A    between atoms: C_3  and  N_4 
REMARK    3  A    between atoms: N_4  and  C_7 
REMARK    4  A    between atoms: C_7  and  C_8 
REMARK       I    between atoms: C_8  and  N_9 
REMARK    5  A    between atoms: N_9  and  C_10 
REMARK    6  A    between atoms: C_16  and  C_17 
REMARK    7  A    between atoms: C_22  and  C_23 
REMARK       I    between atoms: C_23  and  N_24 
REMARK    8  A    between atoms: N_24  and  C_25 
REMARK    9  A    between atoms: C_28  and  O_29 
ROOT
HETATM    1  C   UNL     1      41.578 -12.801   2.296  1.00  0.00     0.093 A 
HETATM    2  S   UNL     1      41.420 -11.260   1.623  1.00  0.00    -0.075 SA
HETATM    3  C   UNL     1      41.446 -11.880   0.045  1.00  0.00    -0.008 A 
HETATM    4  C   UNL     1      41.523 -13.262   0.009  1.00  0.00    -0.026 A 
HETATM    5  C   UNL     1      41.556 -13.977  -1.313  1.00  0.00     0.041 C 
HETATM    6  C   UNL     1      41.933 -13.051  -2.479  1.00  0.00     0.010 C 
HETATM    7  C   UNL     1      41.130 -11.723  -2.456  1.00  0.00    -0.002 C 
HETATM    8  C   UNL     1      41.442 -10.958  -1.142  1.00  0.00     0.052 C 
HETATM    9  C   UNL     1      41.590 -13.823   1.348  1.00  0.00     0.073 A 
ENDROOT
BRANCH   1  10
HETATM   10  N   UNL     1      41.732 -12.977   3.665  1.00  0.00    -0.319 N 
HETATM   11  C   UNL     1      42.853 -13.407   4.331  1.00  0.00     0.248 C 
HETATM   12  O   UNL     1      43.979 -13.618   3.886  1.00  0.00    -0.271 OA
HETATM   13  H   UNL     1      40.910 -12.669   4.194  1.00  0.00     0.169 HD
BRANCH  11  14
HETATM   14  C   UNL     1      42.653 -13.542   5.841  1.00  0.00     0.335 C 
BRANCH  14  15
HETATM   15  N   UNL     1      42.707 -15.001   6.241  1.00  0.00    -0.067 N 
HETATM   16  H   UNL     1      42.637 -15.525   5.349  1.00  0.00     0.277 HD
HETATM   17  H   UNL     1      41.883 -15.249   6.800  1.00  0.00     0.277 HD
BRANCH  15  18
HETATM   18  C   UNL     1      43.969 -15.397   6.934  1.00  0.00     0.236 C 
BRANCH  18  19
HETATM   19  C   UNL     1      43.830 -16.790   7.557  1.00  0.00     0.003 C 
HETATM   20  C   UNL     1      44.923 -17.706   7.000  1.00  0.00     0.011 C 
HETATM   21  C   UNL     1      42.456 -17.411   7.303  1.00  0.00     0.011 C 
ENDBRANCH  18  19
ENDBRANCH  15  18
ENDBRANCH  14  15
ENDBRANCH  11  14
ENDBRANCH   1  10
BRANCH   9  22
HETATM   22  C   UNL     1      41.700 -15.231   1.794  1.00  0.00     0.259 C 
HETATM   23  N   UNL     1      42.936 -15.820   1.634  1.00  0.00    -0.323 N 
HETATM   24  H   UNL     1      43.625 -15.305   1.108  1.00  0.00     0.169 HD
HETATM   25  O   UNL     1      40.692 -15.808   2.206  1.00  0.00    -0.267 OA
BRANCH  23  26
HETATM   26  C   UNL     1      43.339 -17.101   2.068  1.00  0.00     0.035 A 
HETATM   27  C   UNL     1      43.467 -18.208   1.228  1.00  0.00     0.032 A 
HETATM   28  C   UNL     1      43.847 -19.450   1.747  1.00  0.00     0.039 A 
HETATM   29  C   UNL     1      44.094 -19.612   3.110  1.00  0.00     0.068 A 
HETATM   30  C   UNL     1      43.973 -18.511   3.954  1.00  0.00     0.039 A 
HETATM   31  C   UNL     1      43.599 -17.264   3.434  1.00  0.00     0.032 A 
BRANCH  29  32
HETATM   32  O   UNL     1      44.445 -20.879   3.481  1.00  0.00    -0.356 OA
HETATM   33  C   UNL     1      44.804 -21.076   4.843  1.00  0.00     0.210 C 
ENDBRANCH  29  32
ENDBRANCH  23  26
ENDBRANCH   9  22
BRANCH   7  34
HETATM   34  C   UNL     1      41.330 -10.850  -3.751  1.00  0.00    -0.047 C 
HETATM   35  C   UNL     1      40.052 -10.904  -4.617  1.00  0.00     0.015 C 
HETATM   36  C   UNL     1      41.573  -9.369  -3.389  1.00  0.00     0.015 C 
HETATM   37  C   UNL     1      42.514 -11.334  -4.612  1.00  0.00     0.015 C 
ENDBRANCH   7  34
TORSDOF 9
ENDMDL
MODEL 7
REMARK VINA RESULT:      -7.2      3.426      9.603
REMARK  9 active torsions:
REMARK  status: ('A' for Active; 'I' for Inactive)
REMARK    1  A    between atoms: C_2  and  C_3 
REMARK    2  A    between atoms: C_3  and  N_4 
REMARK    3  A    between atoms: N_4  and  C_7 
REMARK    4  A    between atoms: C_7  and  C_8 
REMARK       I    between atoms: C_8  and  N_9 
REMARK    5  A    between atoms: N_9  and  C_10 
REMARK    6  A    between atoms: C_16  and  C_17 
REMARK    7  A    between atoms: C_22  and  C_23 
REMARK       I    between atoms: C_23  and  N_24 
REMARK    8  A    between atoms: N_24  and  C_25 
REMARK    9  A    between atoms: C_28  and  O_29 
ROOT
HETATM    1  C   UNL     1      41.235 -16.530   0.916  1.00  0.00     0.093 A 
HETATM    2  S   UNL     1      42.432 -17.720   0.992  1.00  0.00    -0.075 SA
HETATM    3  C   UNL     1      42.451 -17.678   2.688  1.00  0.00    -0.008 A 
HETATM    4  C   UNL     1      41.518 -16.801   3.216  1.00  0.00    -0.026 A 
HETATM    5  C   UNL     1      41.400 -16.640   4.706  1.00  0.00     0.041 C 
HETATM    6  C   UNL     1      42.635 -17.159   5.458  1.00  0.00     0.010 C 
HETATM    7  C   UNL     1      43.071 -18.566   4.969  1.00  0.00    -0.002 C 
HETATM    8  C   UNL     1      43.447 -18.492   3.465  1.00  0.00     0.052 C 
HETATM    9  C   UNL     1      40.778 -16.120   2.167  1.00  0.00     0.073 A 
ENDROOT
BRANCH   1  10
HETATM   10  N   UNL     1      40.819 -16.005  -0.301  1.00  0.00    -0.319 N 
HETATM   11  C   UNL     1      41.128 -14.775  -0.829  1.00  0.00     0.248 C 
HETATM   12  O   UNL     1      41.914 -13.931  -0.405  1.00  0.00    -0.271 OA
HETATM   13  H   UNL     1      40.284 -16.679  -0.856  1.00  0.00     0.169 HD
BRANCH  11  14
HETATM   14  C   UNL     1      40.447 -14.498  -2.170  1.00  0.00     0.335 C 
BRANCH  14  15
HETATM   15  N   UNL     1      38.980 -14.861  -2.089  1.00  0.00    -0.067 N 
HETATM   16  H   UNL     1      38.930 -15.618  -1.383  1.00  0.00     0.277 HD
HETATM   17  H   UNL     1      38.661 -15.259  -2.980  1.00  0.00     0.277 HD
BRANCH  15  18
HETATM   18  C   UNL     1      38.097 -13.738  -1.653  1.00  0.00     0.236 C 
BRANCH  18  19
HETATM   19  C   UNL     1      38.226 -12.546  -2.607  1.00  0.00     0.003 C 
HETATM   20  C   UNL     1      38.385 -11.259  -1.794  1.00  0.00     0.011 C 
HETATM   21  C   UNL     1      37.027 -12.418  -3.549  1.00  0.00     0.011 C 
ENDBRANCH  18  19
ENDBRANCH  15  18
ENDBRANCH  14  15
ENDBRANCH  11  14
ENDBRANCH   1  10
BRANCH   9  22
HETATM   22  C   UNL     1      39.711 -15.097   2.255  1.00  0.00     0.259 C 
HETATM   23  N   UNL     1      40.073 -13.894   2.822  1.00  0.00    -0.323 N 
HETATM   24  H   UNL     1      40.984 -13.845   3.254  1.00  0.00     0.169 HD
HETATM   25  O   UNL     1      38.570 -15.390   1.893  1.00  0.00    -0.267 OA
BRANCH  23  26
HETATM   26  C   UNL     1      39.290 -12.725   2.930  1.00  0.00     0.035 A 
HETATM   27  C   UNL     1      38.536 -12.188   1.886  1.00  0.00     0.032 A 
HETATM   28  C   UNL     1      37.808 -11.008   2.072  1.00  0.00     0.039 A 
HETATM   29  C   UNL     1      37.831 -10.337   3.295  1.00  0.00     0.068 A 
HETATM   30  C   UNL     1      38.578 -10.869   4.343  1.00  0.00     0.039 A 
HETATM   31  C   UNL     1      39.302 -12.056   4.160  1.00  0.00     0.032 A 
BRANCH  29  32
HETATM   32  O   UNL     1      37.086  -9.193   3.333  1.00  0.00    -0.356 OA
HETATM   33  C   UNL     1      37.791  -7.971   3.520  1.00  0.00     0.210 C 
ENDBRANCH  29  32
ENDBRANCH  23  26
ENDBRANCH   9  22
BRANCH   7  34
HETATM   34  C   UNL     1      44.192 -19.218   5.863  1.00  0.00    -0.047 C 
HETATM   35  C   UNL     1      45.029 -20.200   5.012  1.00  0.00     0.015 C 
HETATM   36  C   UNL     1      45.160 -18.145   6.407  1.00  0.00     0.015 C 
HETATM   37  C   UNL     1      43.614 -19.995   7.062  1.00  0.00     0.015 C 
ENDBRANCH   7  34
TORSDOF 9
ENDMDL
MODEL 8
REMARK VINA RESULT:      -7.2      3.140      7.871
REMARK  9 active torsions:
REMARK  status: ('A' for Active; 'I' for Inactive)
REMARK    1  A    between atoms: C_2  and  C_3 
REMARK    2  A    between atoms: C_3  and  N_4 
REMARK    3  A    between atoms: N_4  and  C_7 
REMARK    4  A    between atoms: C_7  and  C_8 
REMARK       I    between atoms: C_8  and  N_9 
REMARK    5  A    between atoms: N_9  and  C_10 
REMARK    6  A    between atoms: C_16  and  C_17 
REMARK    7  A    between atoms: C_22  and  C_23 
REMARK       I    between atoms: C_23  and  N_24 
REMARK    8  A    between atoms: N_24  and  C_25 
REMARK    9  A    between atoms: C_28  and  O_29 
ROOT
HETATM    1  C   UNL     1      43.457 -15.716   5.213  1.00  0.00     0.093 A 
HETATM    2  S   UNL     1      43.769 -17.241   5.869  1.00  0.00    -0.075 SA
HETATM    3  C   UNL     1      43.791 -17.964   4.335  1.00  0.00    -0.008 A 
HETATM    4  C   UNL     1      43.613 -17.053   3.307  1.00  0.00    -0.026 A 
HETATM    5  C   UNL     1      43.607 -17.526   1.880  1.00  0.00     0.041 C 
HETATM    6  C   UNL     1      43.370 -19.038   1.758  1.00  0.00     0.010 C 
HETATM    7  C   UNL     1      44.266 -19.853   2.728  1.00  0.00    -0.002 C 
HETATM    8  C   UNL     1      43.934 -19.453   4.190  1.00  0.00     0.052 C 
HETATM    9  C   UNL     1      43.426 -15.706   3.820  1.00  0.00     0.073 A 
ENDROOT
BRANCH   1  10
HETATM   10  N   UNL     1      43.209 -14.619   6.027  1.00  0.00    -0.319 N 
HETATM   11  C   UNL     1      44.128 -13.869   6.720  1.00  0.00     0.248 C 
HETATM   12  O   UNL     1      45.355 -13.929   6.683  1.00  0.00    -0.271 OA
HETATM   13  H   UNL     1      42.224 -14.339   6.019  1.00  0.00     0.169 HD
BRANCH  11  14
HETATM   14  C   UNL     1      43.499 -12.764   7.570  1.00  0.00     0.335 C 
BRANCH  14  15
HETATM   15  N   UNL     1      44.186 -12.693   8.916  1.00  0.00    -0.067 N 
HETATM   16  H   UNL     1      45.149 -12.372   8.708  1.00  0.00     0.277 HD
HETATM   17  H   UNL     1      44.265 -13.631   9.327  1.00  0.00     0.277 HD
BRANCH  15  18
HETATM   18  C   UNL     1      43.556 -11.736   9.873  1.00  0.00     0.236 C 
BRANCH  18  19
HETATM   19  C   UNL     1      44.558 -11.307  10.950  1.00  0.00     0.003 C 
HETATM   20  C   UNL     1      43.929 -10.221  11.826  1.00  0.00     0.011 C 
HETATM   21  C   UNL     1      45.872 -10.797  10.357  1.00  0.00     0.011 C 
ENDBRANCH  18  19
ENDBRANCH  15  18
ENDBRANCH  14  15
ENDBRANCH  11  14
ENDBRANCH   1  10
BRANCH   9  22
HETATM   22  C   UNL     1      43.185 -14.432   3.103  1.00  0.00     0.259 C 
HETATM   23  N   UNL     1      42.106 -14.416   2.246  1.00  0.00    -0.323 N 
HETATM   24  H   UNL     1      41.650 -15.298   2.066  1.00  0.00     0.169 HD
HETATM   25  O   UNL     1      43.981 -13.503   3.253  1.00  0.00    -0.267 OA
BRANCH  23  26
HETATM   26  C   UNL     1      41.595 -13.313   1.529  1.00  0.00     0.035 A 
HETATM   27  C   UNL     1      40.770 -12.334   2.083  1.00  0.00     0.032 A 
HETATM   28  C   UNL     1      40.285 -11.287   1.292  1.00  0.00     0.039 A 
HETATM   29  C   UNL     1      40.603 -11.206  -0.064  1.00  0.00     0.068 A 
HETATM   30  C   UNL     1      41.430 -12.177  -0.623  1.00  0.00     0.039 A 
HETATM   31  C   UNL     1      41.923 -13.223   0.170  1.00  0.00     0.032 A 
BRANCH  29  32
HETATM   32  O   UNL     1      40.053 -10.140  -0.718  1.00  0.00    -0.356 OA
HETATM   33  C   UNL     1      40.631  -9.782  -1.967  1.00  0.00     0.210 C 
ENDBRANCH  29  32
ENDBRANCH  23  26
ENDBRANCH   9  22
BRANCH   7  34
HETATM   34  C   UNL     1      44.209 -21.407   2.476  1.00  0.00    -0.047 C 
HETATM   35  C   UNL     1      44.232 -22.154   3.828  1.00  0.00     0.015 C 
HETATM   36  C   UNL     1      42.902 -21.803   1.757  1.00  0.00     0.015 C 
HETATM   37  C   UNL     1      45.394 -21.911   1.628  1.00  0.00     0.015 C 
ENDBRANCH   7  34
TORSDOF 9
ENDMDL
MODEL 9
REMARK VINA RESULT:      -7.2      3.409      7.520
REMARK  9 active torsions:
REMARK  status: ('A' for Active; 'I' for Inactive)
REMARK    1  A    between atoms: C_2  and  C_3 
REMARK    2  A    between atoms: C_3  and  N_4 
REMARK    3  A    between atoms: N_4  and  C_7 
REMARK    4  A    between atoms: C_7  and  C_8 
REMARK       I    between atoms: C_8  and  N_9 
REMARK    5  A    between atoms: N_9  and  C_10 
REMARK    6  A    between atoms: C_16  and  C_17 
REMARK    7  A    between atoms: C_22  and  C_23 
REMARK       I    between atoms: C_23  and  N_24 
REMARK    8  A    between atoms: N_24  and  C_25 
REMARK    9  A    between atoms: C_28  and  O_29 
ROOT
HETATM    1  C   UNL     1      42.199 -14.672   4.087  1.00  0.00     0.093 A 
HETATM    2  S   UNL     1      42.669 -13.993   5.561  1.00  0.00    -0.075 SA
HETATM    3  C   UNL     1      41.371 -12.901   5.540  1.00  0.00    -0.008 A 
HETATM    4  C   UNL     1      40.540 -13.072   4.446  1.00  0.00    -0.026 A 
HETATM    5  C   UNL     1      39.338 -12.186   4.272  1.00  0.00     0.041 C 
HETATM    6  C   UNL     1      39.419 -10.905   5.117  1.00  0.00     0.010 C 
HETATM    7  C   UNL     1      39.829 -11.196   6.586  1.00  0.00    -0.002 C 
HETATM    8  C   UNL     1      41.238 -11.848   6.604  1.00  0.00     0.052 C 
HETATM    9  C   UNL     1      41.018 -14.135   3.579  1.00  0.00     0.073 A 
ENDROOT
BRANCH   1  10
HETATM   10  N   UNL     1      42.978 -15.634   3.457  1.00  0.00    -0.319 N 
HETATM   11  C   UNL     1      42.791 -16.995   3.462  1.00  0.00     0.248 C 
HETATM   12  O   UNL     1      41.850 -17.641   3.918  1.00  0.00    -0.271 OA
HETATM   13  H   UNL     1      43.719 -15.223   2.882  1.00  0.00     0.169 HD
BRANCH  11  14
HETATM   14  C   UNL     1      43.877 -17.764   2.710  1.00  0.00     0.335 C 
BRANCH  14  15
HETATM   15  N   UNL     1      43.532 -19.237   2.666  1.00  0.00    -0.067 N 
HETATM   16  H   UNL     1      43.658 -19.511   1.675  1.00  0.00     0.277 HD
HETATM   17  H   UNL     1      42.541 -19.378   2.894  1.00  0.00     0.277 HD
BRANCH  15  18
HETATM   18  C   UNL     1      44.409 -20.095   3.519  1.00  0.00     0.236 C 
BRANCH  18  19
HETATM   19  C   UNL     1      44.673 -21.442   2.839  1.00  0.00     0.003 C 
HETATM   20  C   UNL     1      43.648 -21.658   1.723  1.00  0.00     0.011 C 
HETATM   21  C   UNL     1      44.623 -22.613   3.822  1.00  0.00     0.011 C 
ENDBRANCH  18  19
ENDBRANCH  15  18
ENDBRANCH  14  15
ENDBRANCH  11  14
ENDBRANCH   1  10
BRANCH   9  22
HETATM   22  C   UNL     1      40.471 -14.651   2.302  1.00  0.00     0.259 C 
HETATM   23  N   UNL     1      40.902 -14.013   1.159  1.00  0.00    -0.323 N 
HETATM   24  H   UNL     1      41.440 -13.168   1.280  1.00  0.00     0.169 HD
HETATM   25  O   UNL     1      39.629 -15.550   2.333  1.00  0.00    -0.267 OA
BRANCH  23  26
HETATM   26  C   UNL     1      40.624 -14.367  -0.179  1.00  0.00     0.035 A 
HETATM   27  C   UNL     1      41.226 -15.432  -0.848  1.00  0.00     0.032 A 
HETATM   28  C   UNL     1      40.912 -15.697  -2.185  1.00  0.00     0.039 A 
HETATM   29  C   UNL     1      40.003 -14.898  -2.880  1.00  0.00     0.068 A 
HETATM   30  C   UNL     1      39.394 -13.835  -2.217  1.00  0.00     0.039 A 
HETATM   31  C   UNL     1      39.703 -13.573  -0.875  1.00  0.00     0.032 A 
BRANCH  29  32
HETATM   32  O   UNL     1      39.800 -15.261  -4.180  1.00  0.00    -0.356 OA
HETATM   33  C   UNL     1      38.838 -16.281  -4.421  1.00  0.00     0.210 C 
ENDBRANCH  29  32
ENDBRANCH  23  26
ENDBRANCH   9  22
BRANCH   7  34
HETATM   34  C   UNL     1      39.708  -9.940   7.528  1.00  0.00    -0.047 C 
HETATM   35  C   UNL     1      41.119  -9.419   7.883  1.00  0.00     0.015 C 
HETATM   36  C   UNL     1      38.961  -8.788   6.823  1.00  0.00     0.015 C 
HETATM   37  C   UNL     1      38.969 -10.258   8.843  1.00  0.00     0.015 C 
ENDBRANCH   7  34
TORSDOF 9
ENDMDL
MODEL 10
REMARK VINA RESULT:      -7.0      3.266      9.182
REMARK  9 active torsions:
REMARK  status: ('A' for Active; 'I' for Inactive)
REMARK    1  A    between atoms: C_2  and  C_3 
REMARK    2  A    between atoms: C_3  and  N_4 
REMARK    3  A    between atoms: N_4  and  C_7 
REMARK    4  A    between atoms: C_7  and  C_8 
REMARK       I    between atoms: C_8  and  N_9 
REMARK    5  A    between atoms: N_9  and  C_10 
REMARK    6  A    between atoms: C_16  and  C_17 
REMARK    7  A    between atoms: C_22  and  C_23 
REMARK       I    between atoms: C_23  and  N_24 
REMARK    8  A    between atoms: N_24  and  C_25 
REMARK    9  A    between atoms: C_28  and  O_29 
ROOT
HETATM    1  C   UNL     1      41.286 -15.846   1.505  1.00  0.00     0.093 A 
HETATM    2  S   UNL     1      41.602 -17.442   1.049  1.00  0.00    -0.075 SA
HETATM    3  C   UNL     1      42.466 -17.743   2.476  1.00  0.00    -0.008 A 
HETATM    4  C   UNL     1      42.482 -16.657   3.336  1.00  0.00    -0.026 A 
HETATM    5  C   UNL     1      43.206 -16.753   4.651  1.00  0.00     0.041 C 
HETATM    6  C   UNL     1      44.209 -17.916   4.692  1.00  0.00     0.010 C 
HETATM    7  C   UNL     1      43.594 -19.241   4.168  1.00  0.00    -0.002 C 
HETATM    8  C   UNL     1      43.164 -19.056   2.688  1.00  0.00     0.052 C 
HETATM    9  C   UNL     1      41.770 -15.524   2.771  1.00  0.00     0.073 A 
ENDROOT
BRANCH   1  10
HETATM   10  N   UNL     1      40.648 -14.964   0.643  1.00  0.00    -0.319 N 
HETATM   11  C   UNL     1      39.343 -14.540   0.697  1.00  0.00     0.248 C 
HETATM   12  O   UNL     1      38.500 -14.754   1.566  1.00  0.00    -0.271 OA
HETATM   13  H   UNL     1      41.287 -14.561  -0.049  1.00  0.00     0.169 HD
BRANCH  11  14
HETATM   14  C   UNL     1      38.955 -13.609  -0.452  1.00  0.00     0.335 C 
BRANCH  14  15
HETATM   15  N   UNL     1      38.548 -14.421  -1.662  1.00  0.00    -0.067 N 
HETATM   16  H   UNL     1      37.516 -14.340  -1.704  1.00  0.00     0.277 HD
HETATM   17  H   UNL     1      38.766 -15.414  -1.516  1.00  0.00     0.277 HD
BRANCH  15  18
HETATM   18  C   UNL     1      39.122 -13.927  -2.950  1.00  0.00     0.236 C 
BRANCH  18  19
HETATM   19  C   UNL     1      39.848 -15.057  -3.688  1.00  0.00     0.003 C 
HETATM   20  C   UNL     1      38.828 -16.103  -4.144  1.00  0.00     0.011 C 
HETATM   21  C   UNL     1      40.923 -15.723  -2.827  1.00  0.00     0.011 C 
ENDBRANCH  18  19
ENDBRANCH  15  18
ENDBRANCH  14  15
ENDBRANCH  11  14
ENDBRANCH   1  10
BRANCH   9  22
HETATM   22  C   UNL     1      41.546 -14.164   3.315  1.00  0.00     0.259 C 
HETATM   23  N   UNL     1      40.396 -13.992   4.055  1.00  0.00    -0.323 N 
HETATM   24  H   UNL     1      39.733 -14.753   4.058  1.00  0.00     0.169 HD
HETATM   25  O   UNL     1      42.339 -13.266   3.025  1.00  0.00    -0.267 OA
BRANCH  23  26
HETATM   26  C   UNL     1      39.997 -12.841   4.768  1.00  0.00     0.035 A 
HETATM   27  C   UNL     1      39.234 -11.808   4.224  1.00  0.00     0.032 A 
HETATM   28  C   UNL     1      38.906 -10.688   4.995  1.00  0.00     0.039 A 
HETATM   29  C   UNL     1      39.343 -10.574   6.315  1.00  0.00     0.068 A 
HETATM   30  C   UNL     1      40.101 -11.604   6.867  1.00  0.00     0.039 A 
HETATM   31  C   UNL     1      40.425 -12.730   6.097  1.00  0.00     0.032 A 
BRANCH  29  32
HETATM   32  O   UNL     1      38.961  -9.425   6.946  1.00  0.00    -0.356 OA
HETATM   33  C   UNL     1      38.955  -9.442   8.369  1.00  0.00     0.210 C 
ENDBRANCH  29  32
ENDBRANCH  23  26
ENDBRANCH   9  22
BRANCH   7  34
HETATM   34  C   UNL     1      44.519 -20.494   4.400  1.00  0.00    -0.047 C 
HETATM   35  C   UNL     1      45.991 -20.039   4.512  1.00  0.00     0.015 C 
HETATM   36  C   UNL     1      44.161 -21.209   5.721  1.00  0.00     0.015 C 
HETATM   37  C   UNL     1      44.419 -21.522   3.255  1.00  0.00     0.015 C 
ENDBRANCH   7  34
TORSDOF 9
ENDMDL
