MODEL 1
REMARK VINA RESULT:      -8.3      0.000      0.000
REMARK  5 active torsions:
REMARK  status: ('A' for Active; 'I' for Inactive)
REMARK    1  A    between atoms: C_3  and  O_4 
REMARK    2  A    between atoms: O_4  and  C_5 
REMARK    3  A    between atoms: C_6  and  N_7 
REMARK       I    between atoms: N_7  and  C_8 
REMARK       I    between atoms: C_8  and  N_9 
REMARK    4  A    between atoms: N_9  and  C_10 
REMARK    5  A    between atoms: C_11  and  C_12 
ROOT
HETATM    1  C   UNL     1      40.245 -14.163   5.884  1.00  0.00     0.014 C 
HETATM    2  C   UNL     1      40.043 -13.844   4.745  1.00  0.00    -0.091 C 
HETATM    3  C   UNL     1      39.797 -13.448   3.353  1.00  0.00     0.268 C 
ENDROOT
BRANCH   3   4
HETATM    4  O   UNL     1      39.194 -14.543   2.653  1.00  0.00    -0.337 OA
BRANCH   4   5
HETATM    5  C   UNL     1      40.033 -15.130   1.743  1.00  0.00     0.099 A 
HETATM    6  C   UNL     1      40.582 -16.386   2.041  1.00  0.00     0.070 A 
HETATM    7  C   UNL     1      41.305 -17.061   1.045  1.00  0.00     0.035 A 
HETATM    8  C   UNL     1      41.564 -16.455  -0.184  1.00  0.00     0.044 A 
HETATM    9  C   UNL     1      41.082 -15.177  -0.426  1.00  0.00     0.119 A 
HETATM   10  F   UNL     1      41.343 -14.583  -1.598  1.00  0.00    -0.206 F 
HETATM   11  C   UNL     1      40.318 -14.509   0.521  1.00  0.00     0.081 A 
BRANCH   6  12
HETATM   12  N   UNL     1      40.417 -17.078   3.255  1.00  0.00    -0.306 N 
HETATM   13  C   UNL     1      41.247 -17.309   4.314  1.00  0.00     0.325 C 
HETATM   14  N   UNL     1      42.525 -16.839   4.264  1.00  0.00    -0.305 N 
HETATM   15  O   UNL     1      40.799 -18.053   5.192  1.00  0.00    -0.247 OA
HETATM   16  H   UNL     1      42.719 -15.994   3.730  1.00  0.00     0.171 HD
HETATM   17  H   UNL     1      39.640 -17.727   3.305  1.00  0.00     0.171 HD
BRANCH  14  18
HETATM   18  C   UNL     1      43.573 -17.307   5.048  1.00  0.00     0.086 A 
HETATM   19  C   UNL     1      44.309 -18.534   4.915  1.00  0.00     0.133 A 
HETATM   20  N   UNL     1      45.234 -18.637   5.895  1.00  0.00    -0.171 NA
HETATM   21  N   UNL     1      45.079 -17.524   6.622  1.00  0.00    -0.286 N 
HETATM   22  H   UNL     1      45.674 -17.390   7.431  1.00  0.00     0.188 HD
HETATM   23  C   UNL     1      44.106 -16.699   6.160  1.00  0.00     0.141 A 
BRANCH  19  24
HETATM   24  C   UNL     1      44.166 -19.581   3.891  1.00  0.00     0.089 A 
HETATM   25  N   UNL     1      43.491 -19.254   2.759  1.00  0.00    -0.259 NA
HETATM   26  C   UNL     1      43.379 -20.210   1.810  1.00  0.00     0.117 A 
HETATM   27  C   UNL     1      43.903 -21.486   1.925  1.00  0.00     0.019 A 
HETATM   28  C   UNL     1      44.584 -21.809   3.090  1.00  0.00     0.004 A 
HETATM   29  C   UNL     1      44.717 -20.848   4.088  1.00  0.00     0.034 A 
ENDBRANCH  19  24
ENDBRANCH  14  18
ENDBRANCH   6  12
ENDBRANCH   4   5
ENDBRANCH   3   4
TORSDOF 5
ENDMDL
MODEL 2
REMARK VINA RESULT:      -8.1      3.183      6.752
REMARK  5 active torsions:
REMARK  status: ('A' for Active; 'I' for Inactive)
REMARK    1  A    between atoms: C_3  and  O_4 
REMARK    2  A    between atoms: O_4  and  C_5 
REMARK    3  A    between atoms: C_6  and  N_7 
REMARK       I    between atoms: N_7  and  C_8 
REMARK       I    between atoms: C_8  and  N_9 
REMARK    4  A    between atoms: N_9  and  C_10 
REMARK    5  A    between atoms: C_11  and  C_12 
ROOT
HETATM    1  C   UNL     1      43.443 -16.680   7.522  1.00  0.00     0.014 C 
HETATM    2  C   UNL     1      44.064 -17.556   6.988  1.00  0.00    -0.091 C 
HETATM    3  C   UNL     1      44.827 -18.629   6.339  1.00  0.00     0.268 C 
ENDROOT
BRANCH   3   4
HETATM    4  O   UNL     1      44.717 -18.489   4.918  1.00  0.00    -0.337 OA
BRANCH   4   5
HETATM    5  C   UNL     1      44.540 -19.682   4.269  1.00  0.00     0.099 A 
HETATM    6  C   UNL     1      44.381 -19.677   2.875  1.00  0.00     0.070 A 
HETATM    7  C   UNL     1      44.366 -20.904   2.192  1.00  0.00     0.035 A 
HETATM    8  C   UNL     1      44.403 -22.110   2.891  1.00  0.00     0.044 A 
HETATM    9  C   UNL     1      44.474 -22.091   4.276  1.00  0.00     0.119 A 
HETATM   10  F   UNL     1      44.492 -23.247   4.952  1.00  0.00    -0.206 F 
HETATM   11  C   UNL     1      44.547 -20.892   4.972  1.00  0.00     0.081 A 
BRANCH   6  12
HETATM   12  N   UNL     1      44.299 -18.526   2.071  1.00  0.00    -0.306 N 
HETATM   13  C   UNL     1      43.421 -17.482   2.029  1.00  0.00     0.325 C 
HETATM   14  N   UNL     1      42.358 -17.481   2.882  1.00  0.00    -0.305 N 
HETATM   15  O   UNL     1      43.596 -16.671   1.114  1.00  0.00    -0.247 OA
HETATM   16  H   UNL     1      42.450 -17.942   3.785  1.00  0.00     0.171 HD
HETATM   17  H   UNL     1      44.830 -18.537   1.208  1.00  0.00     0.171 HD
BRANCH  14  18
HETATM   18  C   UNL     1      41.203 -16.727   2.708  1.00  0.00     0.086 A 
HETATM   19  C   UNL     1      40.849 -15.479   3.326  1.00  0.00     0.133 A 
HETATM   20  N   UNL     1      39.623 -15.081   2.918  1.00  0.00    -0.171 NA
HETATM   21  N   UNL     1      39.218 -16.047   2.084  1.00  0.00    -0.286 N 
HETATM   22  H   UNL     1      38.303 -15.961   1.657  1.00  0.00     0.188 HD
HETATM   23  C   UNL     1      40.120 -17.047   1.924  1.00  0.00     0.141 A 
BRANCH  19  24
HETATM   24  C   UNL     1      41.639 -14.666   4.265  1.00  0.00     0.089 A 
HETATM   25  N   UNL     1      42.992 -14.764   4.184  1.00  0.00    -0.259 NA
HETATM   26  C   UNL     1      43.716 -14.001   5.032  1.00  0.00     0.117 A 
HETATM   27  C   UNL     1      43.167 -13.138   5.965  1.00  0.00     0.019 A 
HETATM   28  C   UNL     1      41.784 -13.054   6.042  1.00  0.00     0.004 A 
HETATM   29  C   UNL     1      41.008 -13.827   5.184  1.00  0.00     0.034 A 
ENDBRANCH  19  24
ENDBRANCH  14  18
ENDBRANCH   6  12
ENDBRANCH   4   5
ENDBRANCH   3   4
TORSDOF 5
ENDMDL
MODEL 3
REMARK VINA RESULT:      -7.7      2.099      4.117
REMARK  5 active torsions:
REMARK  status: ('A' for Active; 'I' for Inactive)
REMARK    1  A    between atoms: C_3  and  O_4 
REMARK    2  A    between atoms: O_4  and  C_5 
REMARK    3  A    between atoms: C_6  and  N_7 
REMARK       I    between atoms: N_7  and  C_8 
REMARK       I    between atoms: C_8  and  N_9 
REMARK    4  A    between atoms: N_9  and  C_10 
REMARK    5  A    between atoms: C_11  and  C_12 
ROOT
HETATM    1  C   UNL     1      44.499 -20.043   2.503  1.00  0.00     0.014 C 
HETATM    2  C   UNL     1      43.613 -19.357   2.932  1.00  0.00    -0.091 C 
HETATM    3  C   UNL     1      42.527 -18.522   3.458  1.00  0.00     0.268 C 
ENDROOT
BRANCH   3   4
HETATM    4  O   UNL     1      42.823 -17.146   3.194  1.00  0.00    -0.337 OA
BRANCH   4   5
HETATM    5  C   UNL     1      41.954 -16.567   2.308  1.00  0.00     0.099 A 
HETATM    6  C   UNL     1      40.831 -15.890   2.806  1.00  0.00     0.070 A 
HETATM    7  C   UNL     1      40.032 -15.157   1.913  1.00  0.00     0.035 A 
HETATM    8  C   UNL     1      40.285 -15.183   0.542  1.00  0.00     0.044 A 
HETATM    9  C   UNL     1      41.352 -15.929   0.063  1.00  0.00     0.119 A 
HETATM   10  F   UNL     1      41.588 -15.972  -1.255  1.00  0.00    -0.206 F 
HETATM   11  C   UNL     1      42.190 -16.618   0.929  1.00  0.00     0.081 A 
BRANCH   6  12
HETATM   12  N   UNL     1      40.458 -15.821   4.160  1.00  0.00    -0.306 N 
HETATM   13  C   UNL     1      41.017 -15.214   5.248  1.00  0.00     0.325 C 
HETATM   14  N   UNL     1      42.191 -14.538   5.095  1.00  0.00    -0.305 N 
HETATM   15  O   UNL     1      40.466 -15.442   6.330  1.00  0.00    -0.247 OA
HETATM   16  H   UNL     1      42.397 -14.107   4.197  1.00  0.00     0.171 HD
HETATM   17  H   UNL     1      39.789 -16.510   4.483  1.00  0.00     0.171 HD
BRANCH  14  18
HETATM   18  C   UNL     1      43.060 -14.214   6.131  1.00  0.00     0.086 A 
HETATM   19  C   UNL     1      43.861 -15.096   6.934  1.00  0.00     0.133 A 
HETATM   20  N   UNL     1      44.551 -14.394   7.860  1.00  0.00    -0.171 NA
HETATM   21  N   UNL     1      44.190 -13.121   7.654  1.00  0.00    -0.286 N 
HETATM   22  H   UNL     1      44.585 -12.406   8.253  1.00  0.00     0.188 HD
HETATM   23  C   UNL     1      43.306 -12.960   6.638  1.00  0.00     0.141 A 
BRANCH  19  24
HETATM   24  C   UNL     1      43.994 -16.558   6.833  1.00  0.00     0.089 A 
HETATM   25  N   UNL     1      43.004 -17.310   7.381  1.00  0.00    -0.259 NA
HETATM   26  C   UNL     1      43.116 -18.652   7.269  1.00  0.00     0.117 A 
HETATM   27  C   UNL     1      44.168 -19.295   6.640  1.00  0.00     0.019 A 
HETATM   28  C   UNL     1      45.177 -18.515   6.092  1.00  0.00     0.004 A 
HETATM   29  C   UNL     1      45.093 -17.129   6.190  1.00  0.00     0.034 A 
ENDBRANCH  19  24
ENDBRANCH  14  18
ENDBRANCH   6  12
ENDBRANCH   4   5
ENDBRANCH   3   4
TORSDOF 5
ENDMDL
MODEL 4
REMARK VINA RESULT:      -7.5      3.068      6.239
REMARK  5 active torsions:
REMARK  status: ('A' for Active; 'I' for Inactive)
REMARK    1  A    between atoms: C_3  and  O_4 
REMARK    2  A    between atoms: O_4  and  C_5 
REMARK    3  A    between atoms: C_6  and  N_7 
REMARK       I    between atoms: N_7  and  C_8 
REMARK       I    between atoms: C_8  and  N_9 
REMARK    4  A    between atoms: N_9  and  C_10 
REMARK    5  A    between atoms: C_11  and  C_12 
ROOT
HETATM    1  C   UNL     1      40.130 -14.069   5.705  1.00  0.00     0.014 C 
HETATM    2  C   UNL     1      41.039 -14.849   5.784  1.00  0.00    -0.091 C 
HETATM    3  C   UNL     1      42.153 -15.800   5.879  1.00  0.00     0.268 C 
ENDROOT
BRANCH   3   4
HETATM    4  O   UNL     1      41.645 -17.133   5.748  1.00  0.00    -0.337 OA
BRANCH   4   5
HETATM    5  C   UNL     1      42.302 -17.870   4.799  1.00  0.00     0.099 A 
HETATM    6  C   UNL     1      41.883 -17.780   3.463  1.00  0.00     0.070 A 
HETATM    7  C   UNL     1      42.655 -18.402   2.469  1.00  0.00     0.035 A 
HETATM    8  C   UNL     1      43.760 -19.183   2.807  1.00  0.00     0.044 A 
HETATM    9  C   UNL     1      44.106 -19.328   4.143  1.00  0.00     0.119 A 
HETATM   10  F   UNL     1      45.155 -20.091   4.474  1.00  0.00    -0.206 F 
HETATM   11  C   UNL     1      43.392 -18.678   5.141  1.00  0.00     0.081 A 
BRANCH   6  12
HETATM   12  N   UNL     1      40.769 -17.051   3.008  1.00  0.00    -0.306 N 
HETATM   13  C   UNL     1      40.642 -15.856   2.360  1.00  0.00     0.325 C 
HETATM   14  N   UNL     1      41.765 -15.136   2.080  1.00  0.00    -0.305 N 
HETATM   15  O   UNL     1      39.485 -15.458   2.193  1.00  0.00    -0.247 OA
HETATM   16  H   UNL     1      42.641 -15.630   1.923  1.00  0.00     0.171 HD
HETATM   17  H   UNL     1      39.870 -17.301   3.403  1.00  0.00     0.171 HD
BRANCH  14  18
HETATM   18  C   UNL     1      41.784 -13.775   1.793  1.00  0.00     0.086 A 
HETATM   19  C   UNL     1      41.724 -13.133   0.510  1.00  0.00     0.133 A 
HETATM   20  N   UNL     1      41.799 -11.791   0.650  1.00  0.00    -0.171 NA
HETATM   21  N   UNL     1      41.912 -11.598   1.970  1.00  0.00    -0.286 N 
HETATM   22  H   UNL     1      41.993 -10.647   2.313  1.00  0.00     0.188 HD
HETATM   23  C   UNL     1      41.907 -12.745   2.695  1.00  0.00     0.141 A 
BRANCH  19  24
HETATM   24  C   UNL     1      41.585 -13.751  -0.819  1.00  0.00     0.089 A 
HETATM   25  N   UNL     1      41.082 -15.013  -0.866  1.00  0.00    -0.259 NA
HETATM   26  C   UNL     1      40.935 -15.571  -2.088  1.00  0.00     0.117 A 
HETATM   27  C   UNL     1      41.265 -14.942  -3.276  1.00  0.00     0.019 A 
HETATM   28  C   UNL     1      41.786 -13.658  -3.213  1.00  0.00     0.004 A 
HETATM   29  C   UNL     1      41.951 -13.052  -1.970  1.00  0.00     0.034 A 
ENDBRANCH  19  24
ENDBRANCH  14  18
ENDBRANCH   6  12
ENDBRANCH   4   5
ENDBRANCH   3   4
TORSDOF 5
ENDMDL
MODEL 5
REMARK VINA RESULT:      -7.4      2.173      2.576
REMARK  5 active torsions:
REMARK  status: ('A' for Active; 'I' for Inactive)
REMARK    1  A    between atoms: C_3  and  O_4 
REMARK    2  A    between atoms: O_4  and  C_5 
REMARK    3  A    between atoms: C_6  and  N_7 
REMARK       I    between atoms: N_7  and  C_8 
REMARK       I    between atoms: C_8  and  N_9 
REMARK    4  A    between atoms: N_9  and  C_10 
REMARK    5  A    between atoms: C_11  and  C_12 
ROOT
HETATM    1  C   UNL     1      41.729 -10.238   7.448  1.00  0.00     0.014 C 
HETATM    2  C   UNL     1      41.833 -11.292   6.884  1.00  0.00    -0.091 C 
HETATM    3  C   UNL     1      41.965 -12.581   6.196  1.00  0.00     0.268 C 
ENDROOT
BRANCH   3   4
HETATM    4  O   UNL     1      40.827 -12.780   5.349  1.00  0.00    -0.337 OA
BRANCH   4   5
HETATM    5  C   UNL     1      41.136 -13.391   4.163  1.00  0.00     0.099 A 
HETATM    6  C   UNL     1      40.833 -14.752   4.004  1.00  0.00     0.070 A 
HETATM    7  C   UNL     1      40.995 -15.337   2.738  1.00  0.00     0.035 A 
HETATM    8  C   UNL     1      41.545 -14.612   1.682  1.00  0.00     0.044 A 
HETATM    9  C   UNL     1      41.918 -13.291   1.885  1.00  0.00     0.119 A 
HETATM   10  F   UNL     1      42.463 -12.596   0.879  1.00  0.00    -0.206 F 
HETATM   11  C   UNL     1      41.716 -12.672   3.112  1.00  0.00     0.081 A 
BRANCH   6  12
HETATM   12  N   UNL     1      40.306 -15.589   5.004  1.00  0.00    -0.306 N 
HETATM   13  C   UNL     1      40.882 -16.333   5.993  1.00  0.00     0.325 C 
HETATM   14  N   UNL     1      42.241 -16.356   6.092  1.00  0.00    -0.305 N 
HETATM   15  O   UNL     1      40.111 -17.041   6.649  1.00  0.00    -0.247 OA
HETATM   16  H   UNL     1      42.772 -15.542   5.789  1.00  0.00     0.171 HD
HETATM   17  H   UNL     1      39.353 -15.908   4.873  1.00  0.00     0.171 HD
BRANCH  14  18
HETATM   18  C   UNL     1      42.971 -17.332   6.762  1.00  0.00     0.086 A 
HETATM   19  C   UNL     1      43.594 -18.509   6.222  1.00  0.00     0.133 A 
HETATM   20  N   UNL     1      44.185 -19.223   7.206  1.00  0.00    -0.171 NA
HETATM   21  N   UNL     1      43.934 -18.528   8.322  1.00  0.00    -0.286 N 
HETATM   22  H   UNL     1      44.282 -18.889   9.203  1.00  0.00     0.188 HD
HETATM   23  C   UNL     1      43.217 -17.395   8.113  1.00  0.00     0.141 A 
BRANCH  19  24
HETATM   24  C   UNL     1      43.652 -18.953   4.820  1.00  0.00     0.089 A 
HETATM   25  N   UNL     1      42.825 -18.333   3.938  1.00  0.00    -0.259 NA
HETATM   26  C   UNL     1      42.895 -18.727   2.647  1.00  0.00     0.117 A 
HETATM   27  C   UNL     1      43.747 -19.713   2.179  1.00  0.00     0.019 A 
HETATM   28  C   UNL     1      44.580 -20.344   3.093  1.00  0.00     0.004 A 
HETATM   29  C   UNL     1      44.533 -19.963   4.430  1.00  0.00     0.034 A 
ENDBRANCH  19  24
ENDBRANCH  14  18
ENDBRANCH   6  12
ENDBRANCH   4   5
ENDBRANCH   3   4
TORSDOF 5
ENDMDL
MODEL 6
REMARK VINA RESULT:      -7.4      2.880      6.313
REMARK  5 active torsions:
REMARK  status: ('A' for Active; 'I' for Inactive)
REMARK    1  A    between atoms: C_3  and  O_4 
REMARK    2  A    between atoms: O_4  and  C_5 
REMARK    3  A    between atoms: C_6  and  N_7 
REMARK       I    between atoms: N_7  and  C_8 
REMARK       I    between atoms: C_8  and  N_9 
REMARK    4  A    between atoms: N_9  and  C_10 
REMARK    5  A    between atoms: C_11  and  C_12 
ROOT
HETATM    1  C   UNL     1      40.802 -15.565   6.141  1.00  0.00     0.014 C 
HETATM    2  C   UNL     1      41.571 -16.474   5.992  1.00  0.00    -0.091 C 
HETATM    3  C   UNL     1      42.511 -17.588   5.813  1.00  0.00     0.268 C 
ENDROOT
BRANCH   3   4
HETATM    4  O   UNL     1      43.606 -17.152   5.000  1.00  0.00    -0.337 OA
BRANCH   4   5
HETATM    5  C   UNL     1      43.529 -17.596   3.707  1.00  0.00     0.099 A 
HETATM    6  C   UNL     1      43.587 -16.659   2.664  1.00  0.00     0.070 A 
HETATM    7  C   UNL     1      43.676 -17.123   1.342  1.00  0.00     0.035 A 
HETATM    8  C   UNL     1      43.604 -18.486   1.057  1.00  0.00     0.044 A 
HETATM    9  C   UNL     1      43.461 -19.391   2.099  1.00  0.00     0.119 A 
HETATM   10  F   UNL     1      43.373 -20.700   1.829  1.00  0.00    -0.206 F 
HETATM   11  C   UNL     1      43.427 -18.962   3.419  1.00  0.00     0.081 A 
BRANCH   6  12
HETATM   12  N   UNL     1      43.631 -15.263   2.829  1.00  0.00    -0.306 N 
HETATM   13  C   UNL     1      42.662 -14.305   2.909  1.00  0.00     0.325 C 
HETATM   14  N   UNL     1      41.356 -14.677   2.785  1.00  0.00    -0.305 N 
HETATM   15  O   UNL     1      43.065 -13.138   2.959  1.00  0.00    -0.247 OA
HETATM   16  H   UNL     1      41.079 -15.609   3.085  1.00  0.00     0.171 HD
HETATM   17  H   UNL     1      44.517 -14.810   2.635  1.00  0.00     0.171 HD
BRANCH  14  18
HETATM   18  C   UNL     1      40.314 -13.816   2.460  1.00  0.00     0.086 A 
HETATM   19  C   UNL     1      39.724 -13.575   1.172  1.00  0.00     0.133 A 
HETATM   20  N   UNL     1      38.751 -12.641   1.267  1.00  0.00    -0.171 NA
HETATM   21  N   UNL     1      38.738 -12.301   2.562  1.00  0.00    -0.286 N 
HETATM   22  H   UNL     1      38.079 -11.593   2.867  1.00  0.00     0.188 HD
HETATM   23  C   UNL     1      39.647 -12.970   3.314  1.00  0.00     0.141 A 
BRANCH  19  24
HETATM   24  C   UNL     1      40.045 -14.210  -0.116  1.00  0.00     0.089 A 
HETATM   25  N   UNL     1      40.937 -15.235  -0.097  1.00  0.00    -0.259 NA
HETATM   26  C   UNL     1      41.215 -15.831  -1.277  1.00  0.00     0.117 A 
HETATM   27  C   UNL     1      40.654 -15.460  -2.488  1.00  0.00     0.019 A 
HETATM   28  C   UNL     1      39.752 -14.406  -2.494  1.00  0.00     0.004 A 
HETATM   29  C   UNL     1      39.443 -13.770  -1.295  1.00  0.00     0.034 A 
ENDBRANCH  19  24
ENDBRANCH  14  18
ENDBRANCH   6  12
ENDBRANCH   4   5
ENDBRANCH   3   4
TORSDOF 5
ENDMDL
MODEL 7
REMARK VINA RESULT:      -7.4      2.648      4.159
REMARK  5 active torsions:
REMARK  status: ('A' for Active; 'I' for Inactive)
REMARK    1  A    between atoms: C_3  and  O_4 
REMARK    2  A    between atoms: O_4  and  C_5 
REMARK    3  A    between atoms: C_6  and  N_7 
REMARK       I    between atoms: N_7  and  C_8 
REMARK       I    between atoms: C_8  and  N_9 
REMARK    4  A    between atoms: N_9  and  C_10 
REMARK    5  A    between atoms: C_11  and  C_12 
ROOT
HETATM    1  C   UNL     1      42.048 -16.298   0.609  1.00  0.00     0.014 C 
HETATM    2  C   UNL     1      42.243 -15.399   1.379  1.00  0.00    -0.091 C 
HETATM    3  C   UNL     1      42.483 -14.296   2.317  1.00  0.00     0.268 C 
ENDROOT
BRANCH   3   4
HETATM    4  O   UNL     1      42.192 -14.740   3.648  1.00  0.00    -0.337 OA
BRANCH   4   5
HETATM    5  C   UNL     1      41.506 -13.814   4.388  1.00  0.00     0.099 A 
HETATM    6  C   UNL     1      42.137 -13.233   5.499  1.00  0.00     0.070 A 
HETATM    7  C   UNL     1      41.502 -12.168   6.157  1.00  0.00     0.035 A 
HETATM    8  C   UNL     1      40.222 -11.759   5.783  1.00  0.00     0.044 A 
HETATM    9  C   UNL     1      39.581 -12.405   4.736  1.00  0.00     0.119 A 
HETATM   10  F   UNL     1      38.345 -12.028   4.385  1.00  0.00    -0.206 F 
HETATM   11  C   UNL     1      40.210 -13.424   4.032  1.00  0.00     0.081 A 
BRANCH   6  12
HETATM   12  N   UNL     1      43.409 -13.585   5.986  1.00  0.00    -0.306 N 
HETATM   13  C   UNL     1      43.952 -14.768   6.397  1.00  0.00     0.325 C 
HETATM   14  N   UNL     1      43.172 -15.886   6.399  1.00  0.00    -0.305 N 
HETATM   15  O   UNL     1      45.094 -14.699   6.864  1.00  0.00    -0.247 OA
HETATM   16  H   UNL     1      42.417 -15.961   5.720  1.00  0.00     0.171 HD
HETATM   17  H   UNL     1      43.991 -12.828   6.323  1.00  0.00     0.171 HD
BRANCH  14  18
HETATM   18  C   UNL     1      43.440 -17.039   7.129  1.00  0.00     0.086 A 
HETATM   19  C   UNL     1      43.673 -18.370   6.642  1.00  0.00     0.133 A 
HETATM   20  N   UNL     1      43.868 -19.222   7.673  1.00  0.00    -0.171 NA
HETATM   21  N   UNL     1      43.751 -18.458   8.766  1.00  0.00    -0.286 N 
HETATM   22  H   UNL     1      43.853 -18.897   9.674  1.00  0.00     0.188 HD
HETATM   23  C   UNL     1      43.498 -17.152   8.498  1.00  0.00     0.141 A 
BRANCH  19  24
HETATM   24  C   UNL     1      43.729 -18.838   5.248  1.00  0.00     0.089 A 
HETATM   25  N   UNL     1      42.914 -18.221   4.353  1.00  0.00    -0.259 NA
HETATM   26  C   UNL     1      42.982 -18.638   3.069  1.00  0.00     0.117 A 
HETATM   27  C   UNL     1      43.820 -19.644   2.620  1.00  0.00     0.019 A 
HETATM   28  C   UNL     1      44.641 -20.271   3.546  1.00  0.00     0.004 A 
HETATM   29  C   UNL     1      44.596 -19.867   4.878  1.00  0.00     0.034 A 
ENDBRANCH  19  24
ENDBRANCH  14  18
ENDBRANCH   6  12
ENDBRANCH   4   5
ENDBRANCH   3   4
TORSDOF 5
ENDMDL
MODEL 8
REMARK VINA RESULT:      -7.3      2.826      6.433
REMARK  5 active torsions:
REMARK  status: ('A' for Active; 'I' for Inactive)
REMARK    1  A    between atoms: C_3  and  O_4 
REMARK    2  A    between atoms: O_4  and  C_5 
REMARK    3  A    between atoms: C_6  and  N_7 
REMARK       I    between atoms: N_7  and  C_8 
REMARK       I    between atoms: C_8  and  N_9 
REMARK    4  A    between atoms: N_9  and  C_10 
REMARK    5  A    between atoms: C_11  and  C_12 
ROOT
HETATM    1  C   UNL     1      41.356 -15.382  -0.450  1.00  0.00     0.014 C 
HETATM    2  C   UNL     1      41.302 -16.396   0.191  1.00  0.00    -0.091 C 
HETATM    3  C   UNL     1      41.233 -17.637   0.971  1.00  0.00     0.268 C 
ENDROOT
BRANCH   3   4
HETATM    4  O   UNL     1      41.234 -17.315   2.367  1.00  0.00    -0.337 OA
BRANCH   4   5
HETATM    5  C   UNL     1      42.247 -17.921   3.061  1.00  0.00     0.099 A 
HETATM    6  C   UNL     1      42.300 -17.767   4.455  1.00  0.00     0.070 A 
HETATM    7  C   UNL     1      43.235 -18.519   5.183  1.00  0.00     0.035 A 
HETATM    8  C   UNL     1      44.166 -19.326   4.530  1.00  0.00     0.044 A 
HETATM    9  C   UNL     1      44.151 -19.397   3.145  1.00  0.00     0.119 A 
HETATM   10  F   UNL     1      45.054 -20.157   2.513  1.00  0.00    -0.206 F 
HETATM   11  C   UNL     1      43.201 -18.707   2.404  1.00  0.00     0.081 A 
BRANCH   6  12
HETATM   12  N   UNL     1      41.436 -16.958   5.215  1.00  0.00    -0.306 N 
HETATM   13  C   UNL     1      41.007 -15.669   5.077  1.00  0.00     0.325 C 
HETATM   14  N   UNL     1      41.481 -14.925   4.038  1.00  0.00    -0.305 N 
HETATM   15  O   UNL     1      40.310 -15.235   6.000  1.00  0.00    -0.247 OA
HETATM   16  H   UNL     1      41.743 -15.396   3.174  1.00  0.00     0.171 HD
HETATM   17  H   UNL     1      41.248 -17.261   6.164  1.00  0.00     0.171 HD
BRANCH  14  18
HETATM   18  C   UNL     1      41.455 -13.536   3.980  1.00  0.00     0.086 A 
HETATM   19  C   UNL     1      40.698 -12.693   3.096  1.00  0.00     0.133 A 
HETATM   20  N   UNL     1      40.973 -11.392   3.337  1.00  0.00    -0.171 NA
HETATM   21  N   UNL     1      41.875 -11.416   4.325  1.00  0.00    -0.286 N 
HETATM   22  H   UNL     1      42.238 -10.534   4.668  1.00  0.00     0.188 HD
HETATM   23  C   UNL     1      42.195 -12.666   4.745  1.00  0.00     0.141 A 
BRANCH  19  24
HETATM   24  C   UNL     1      39.729 -13.087   2.061  1.00  0.00     0.089 A 
HETATM   25  N   UNL     1      39.078 -14.267   2.238  1.00  0.00    -0.259 NA
HETATM   26  C   UNL     1      38.173 -14.617   1.298  1.00  0.00     0.117 A 
HETATM   27  C   UNL     1      37.877 -13.856   0.180  1.00  0.00     0.019 A 
HETATM   28  C   UNL     1      38.555 -12.658   0.008  1.00  0.00     0.004 A 
HETATM   29  C   UNL     1      39.495 -12.266   0.957  1.00  0.00     0.034 A 
ENDBRANCH  19  24
ENDBRANCH  14  18
ENDBRANCH   6  12
ENDBRANCH   4   5
ENDBRANCH   3   4
TORSDOF 5
ENDMDL
MODEL 9
REMARK VINA RESULT:      -7.3      2.616      4.288
REMARK  5 active torsions:
REMARK  status: ('A' for Active; 'I' for Inactive)
REMARK    1  A    between atoms: C_3  and  O_4 
REMARK    2  A    between atoms: O_4  and  C_5 
REMARK    3  A    between atoms: C_6  and  N_7 
REMARK       I    between atoms: N_7  and  C_8 
REMARK       I    between atoms: C_8  and  N_9 
REMARK    4  A    between atoms: N_9  and  C_10 
REMARK    5  A    between atoms: C_11  and  C_12 
ROOT
HETATM    1  C   UNL     1      44.682 -14.040   7.356  1.00  0.00     0.014 C 
HETATM    2  C   UNL     1      44.384 -14.000   6.194  1.00  0.00    -0.091 C 
HETATM    3  C   UNL     1      44.022 -13.946   4.773  1.00  0.00     0.268 C 
ENDROOT
BRANCH   3   4
HETATM    4  O   UNL     1      43.164 -15.051   4.465  1.00  0.00    -0.337 OA
BRANCH   4   5
HETATM    5  C   UNL     1      42.010 -14.678   3.829  1.00  0.00     0.099 A 
HETATM    6  C   UNL     1      41.806 -15.087   2.502  1.00  0.00     0.070 A 
HETATM    7  C   UNL     1      40.557 -14.849   1.906  1.00  0.00     0.035 A 
HETATM    8  C   UNL     1      39.571 -14.127   2.577  1.00  0.00     0.044 A 
HETATM    9  C   UNL     1      39.826 -13.657   3.857  1.00  0.00     0.119 A 
HETATM   10  F   UNL     1      38.889 -12.948   4.500  1.00  0.00    -0.206 F 
HETATM   11  C   UNL     1      41.032 -13.927   4.491  1.00  0.00     0.081 A 
BRANCH   6  12
HETATM   12  N   UNL     1      42.736 -15.791   1.717  1.00  0.00    -0.306 N 
HETATM   13  C   UNL     1      43.229 -17.064   1.776  1.00  0.00     0.325 C 
HETATM   14  N   UNL     1      42.815 -17.884   2.782  1.00  0.00    -0.305 N 
HETATM   15  O   UNL     1      44.125 -17.328   0.968  1.00  0.00    -0.247 OA
HETATM   16  H   UNL     1      41.884 -17.754   3.173  1.00  0.00     0.171 HD
HETATM   17  H   UNL     1      43.346 -15.236   1.128  1.00  0.00     0.171 HD
BRANCH  14  18
HETATM   18  C   UNL     1      43.488 -19.027   3.201  1.00  0.00     0.086 A 
HETATM   19  C   UNL     1      43.899 -19.384   4.530  1.00  0.00     0.133 A 
HETATM   20  N   UNL     1      44.556 -20.565   4.519  1.00  0.00    -0.171 NA
HETATM   21  N   UNL     1      44.566 -20.931   3.231  1.00  0.00    -0.286 N 
HETATM   22  H   UNL     1      45.023 -21.800   2.981  1.00  0.00     0.188 HD
HETATM   23  C   UNL     1      43.944 -20.052   2.407  1.00  0.00     0.141 A 
BRANCH  19  24
HETATM   24  C   UNL     1      43.674 -18.651   5.787  1.00  0.00     0.089 A 
HETATM   25  N   UNL     1      42.551 -17.891   5.869  1.00  0.00    -0.259 NA
HETATM   26  C   UNL     1      42.335 -17.236   7.031  1.00  0.00     0.117 A 
HETATM   27  C   UNL     1      43.180 -17.292   8.125  1.00  0.00     0.019 A 
HETATM   28  C   UNL     1      44.328 -18.066   8.025  1.00  0.00     0.004 A 
HETATM   29  C   UNL     1      44.582 -18.754   6.842  1.00  0.00     0.034 A 
ENDBRANCH  19  24
ENDBRANCH  14  18
ENDBRANCH   6  12
ENDBRANCH   4   5
ENDBRANCH   3   4
TORSDOF 5
ENDMDL
MODEL 10
REMARK VINA RESULT:      -7.2      2.816      4.307
REMARK  5 active torsions:
REMARK  status: ('A' for Active; 'I' for Inactive)
REMARK    1  A    between atoms: C_3  and  O_4 
REMARK    2  A    between atoms: O_4  and  C_5 
REMARK    3  A    between atoms: C_6  and  N_7 
REMARK       I    between atoms: N_7  and  C_8 
REMARK       I    between atoms: C_8  and  N_9 
REMARK    4  A    between atoms: N_9  and  C_10 
REMARK    5  A    between atoms: C_11  and  C_12 
ROOT
HETATM    1  C   UNL     1      37.841 -11.417   1.931  1.00  0.00     0.014 C 
HETATM    2  C   UNL     1      37.884 -12.241   1.059  1.00  0.00    -0.091 C 
HETATM    3  C   UNL     1      37.936 -13.252  -0.003  1.00  0.00     0.268 C 
ENDROOT
BRANCH   3   4
HETATM    4  O   UNL     1      38.699 -12.740  -1.102  1.00  0.00    -0.337 OA
BRANCH   4   5
HETATM    5  C   UNL     1      39.219 -13.723  -1.902  1.00  0.00     0.099 A 
HETATM    6  C   UNL     1      40.518 -14.188  -1.644  1.00  0.00     0.070 A 
HETATM    7  C   UNL     1      40.989 -15.304  -2.353  1.00  0.00     0.035 A 
HETATM    8  C   UNL     1      40.225 -15.879  -3.369  1.00  0.00     0.044 A 
HETATM    9  C   UNL     1      38.978 -15.348  -3.665  1.00  0.00     0.119 A 
HETATM   10  F   UNL     1      38.249 -15.886  -4.651  1.00  0.00    -0.206 F 
HETATM   11  C   UNL     1      38.466 -14.280  -2.941  1.00  0.00     0.081 A 
BRANCH   6  12
HETATM   12  N   UNL     1      41.388 -13.668  -0.670  1.00  0.00    -0.306 N 
HETATM   13  C   UNL     1      41.615 -13.984   0.639  1.00  0.00     0.325 C 
HETATM   14  N   UNL     1      40.875 -14.973   1.215  1.00  0.00    -0.305 N 
HETATM   15  O   UNL     1      42.401 -13.245   1.240  1.00  0.00    -0.247 OA
HETATM   16  H   UNL     1      40.528 -15.732   0.632  1.00  0.00     0.171 HD
HETATM   17  H   UNL     1      41.778 -12.750  -0.852  1.00  0.00     0.171 HD
BRANCH  14  18
HETATM   18  C   UNL     1      40.709 -15.143   2.585  1.00  0.00     0.086 A 
HETATM   19  C   UNL     1      41.332 -16.111   3.446  1.00  0.00     0.133 A 
HETATM   20  N   UNL     1      40.885 -15.970   4.714  1.00  0.00    -0.171 NA
HETATM   21  N   UNL     1      40.008 -14.960   4.650  1.00  0.00    -0.286 N 
HETATM   22  H   UNL     1      39.532 -14.681   5.501  1.00  0.00     0.188 HD
HETATM   23  C   UNL     1      39.867 -14.433   3.408  1.00  0.00     0.141 A 
BRANCH  19  24
HETATM   24  C   UNL     1      42.331 -17.134   3.101  1.00  0.00     0.089 A 
HETATM   25  N   UNL     1      42.979 -16.994   1.915  1.00  0.00    -0.259 NA
HETATM   26  C   UNL     1      43.912 -17.923   1.610  1.00  0.00     0.117 A 
HETATM   27  C   UNL     1      44.239 -18.994   2.423  1.00  0.00     0.019 A 
HETATM   28  C   UNL     1      43.564 -19.130   3.628  1.00  0.00     0.004 A 
HETATM   29  C   UNL     1      42.596 -18.191   3.973  1.00  0.00     0.034 A 
ENDBRANCH  19  24
ENDBRANCH  14  18
ENDBRANCH   6  12
ENDBRANCH   4   5
ENDBRANCH   3   4
TORSDOF 5
ENDMDL
