MODEL 1
REMARK VINA RESULT:      -8.2      0.000      0.000
REMARK  10 active torsions:
REMARK  status: ('A' for Active; 'I' for Inactive)
REMARK    1  A    between atoms: C_3  and  C_4 
REMARK    2  A    between atoms: C_4  and  C_5 
REMARK       I    between atoms: C_5  and  N_6 
REMARK    3  A    between atoms: N_6  and  C_7 
REMARK    4  A    between atoms: C_7  and  C_8 
REMARK    5  A    between atoms: C_8  and  O_9 
REMARK    6  A    between atoms: C_15  and  N_16 
REMARK    7  A    between atoms: N_16  and  C_17 
REMARK    8  A    between atoms: C_26  and  C_27 
REMARK    9  A    between atoms: C_27  and  O_28 
REMARK   10  A    between atoms: C_30  and  O_31 
ROOT
HETATM    1  C   UNL     1      39.817 -14.922   4.984  1.00  0.00     0.016 C 
HETATM    2  C   UNL     1      40.803 -14.286   3.951  1.00  0.00    -0.030 C 
HETATM    3  C   UNL     1      42.252 -14.928   4.120  1.00  0.00     0.056 C 
HETATM    4  C   UNL     1      42.331 -16.266   3.421  1.00  0.00     0.056 C 
HETATM    5  C   UNL     1      41.346 -16.765   2.595  1.00  0.00     0.012 C 
HETATM    6  S   UNL     1      41.775 -18.306   2.025  1.00  0.00    -0.055 SA
HETATM    7  C   UNL     1      43.359 -18.083   2.682  1.00  0.00     0.172 C 
HETATM    8  N   UNL     1      43.489 -17.023   3.454  1.00  0.00    -0.227 NA
HETATM    9  C   UNL     1      40.092 -16.066   2.210  1.00  0.00     0.055 C 
HETATM   10  C   UNL     1      40.219 -14.543   2.496  1.00  0.00     0.012 C 
HETATM   11  C   UNL     1      40.873 -13.680   1.323  1.00  0.00     0.008 C 
HETATM   12  C   UNL     1      39.747 -13.437   0.274  1.00  0.00     0.020 C 
HETATM   13  C   UNL     1      41.325 -12.279   1.844  1.00  0.00     0.128 C 
HETATM   14  C   UNL     1      40.551 -11.847   3.082  1.00  0.00     0.033 C 
HETATM   15  C   UNL     1      40.850 -12.759   4.271  1.00  0.00     0.013 C 
ENDROOT
BRANCH   3  16
HETATM   16  C   UNL     1      42.682 -15.040   5.594  1.00  0.00     0.114 C 
BRANCH  16  17
HETATM   17  C   UNL     1      43.885 -14.183   5.925  1.00  0.00     0.218 C 
HETATM   18  N   UNL     1      44.167 -14.073   7.264  1.00  0.00    -0.359 N 
HETATM   19  H   UNL     1      43.892 -14.860   7.856  1.00  0.00     0.162 HD
HETATM   20  O   UNL     1      44.511 -13.594   5.046  1.00  0.00    -0.274 OA
BRANCH  18  21
HETATM   21  C   UNL     1      45.266 -13.243   7.724  1.00  0.00     0.148 C 
BRANCH  21  22
HETATM   22  C   UNL     1      44.843 -12.302   8.855  1.00  0.00     0.186 C 
BRANCH  22  23
HETATM   23  O   UNL     1      44.972 -12.902  10.146  1.00  0.00    -0.394 OA
HETATM   24  C   UNL     1      44.181 -12.252  11.133  1.00  0.00     0.201 C 
ENDBRANCH  22  23
ENDBRANCH  21  22
ENDBRANCH  18  21
ENDBRANCH  16  17
ENDBRANCH   3  16
BRANCH  11  25
HETATM   25  C   UNL     1      42.067 -14.331   0.572  1.00  0.00     0.176 C 
BRANCH  25  26
HETATM   26  O   UNL     1      41.698 -14.837  -0.707  1.00  0.00    -0.400 OA
HETATM   27  H   UNL     1      41.090 -14.182  -1.093  1.00  0.00     0.209 HD
ENDBRANCH  25  26
ENDBRANCH  11  25
BRANCH   7  28
HETATM   28  N   UNL     1      44.336 -18.963   2.346  1.00  0.00    -0.334 N 
HETATM   29  H   UNL     1      45.250 -18.535   2.250  1.00  0.00     0.168 HD
BRANCH  28  30
HETATM   30  C   UNL     1      44.461 -20.231   2.968  1.00  0.00     0.051 A 
HETATM   31  C   UNL     1      44.399 -21.459   2.305  1.00  0.00     0.145 A 
HETATM   32  N   UNL     1      44.515 -22.673   2.908  1.00  0.00    -0.271 NA
HETATM   33  C   UNL     1      44.733 -22.670   4.238  1.00  0.00     0.116 A 
HETATM   34  C   UNL     1      44.861 -21.516   4.988  1.00  0.00     0.021 A 
HETATM   35  C   UNL     1      44.738 -20.287   4.340  1.00  0.00     0.032 A 
ENDBRANCH  28  30
ENDBRANCH   7  28
BRANCH  13  36
HETATM   36  O   UNL     1      42.718 -12.276   2.155  1.00  0.00    -0.395 OA
HETATM   37  H   UNL     1      43.212 -12.462   1.336  1.00  0.00     0.210 HD
ENDBRANCH  13  36
TORSDOF 10
ENDMDL
MODEL 2
REMARK VINA RESULT:      -7.8      2.888      6.847
REMARK  10 active torsions:
REMARK  status: ('A' for Active; 'I' for Inactive)
REMARK    1  A    between atoms: C_3  and  C_4 
REMARK    2  A    between atoms: C_4  and  C_5 
REMARK       I    between atoms: C_5  and  N_6 
REMARK    3  A    between atoms: N_6  and  C_7 
REMARK    4  A    between atoms: C_7  and  C_8 
REMARK    5  A    between atoms: C_8  and  O_9 
REMARK    6  A    between atoms: C_15  and  N_16 
REMARK    7  A    between atoms: N_16  and  C_17 
REMARK    8  A    between atoms: C_26  and  C_27 
REMARK    9  A    between atoms: C_27  and  O_28 
REMARK   10  A    between atoms: C_30  and  O_31 
ROOT
HETATM    1  C   UNL     1      40.591 -16.861   6.555  1.00  0.00     0.016 C 
HETATM    2  C   UNL     1      41.800 -16.094   5.929  1.00  0.00    -0.030 C 
HETATM    3  C   UNL     1      42.238 -16.794   4.566  1.00  0.00     0.056 C 
HETATM    4  C   UNL     1      41.337 -16.368   3.430  1.00  0.00     0.056 C 
HETATM    5  C   UNL     1      40.393 -15.368   3.527  1.00  0.00     0.012 C 
HETATM    6  S   UNL     1      39.554 -15.201   2.060  1.00  0.00    -0.055 SA
HETATM    7  C   UNL     1      40.691 -16.268   1.314  1.00  0.00     0.172 C 
HETATM    8  N   UNL     1      41.512 -16.869   2.152  1.00  0.00    -0.227 NA
HETATM    9  C   UNL     1      40.142 -14.515   4.718  1.00  0.00     0.055 C 
HETATM   10  C   UNL     1      41.353 -14.588   5.692  1.00  0.00     0.012 C 
HETATM   11  C   UNL     1      42.531 -13.552   5.395  1.00  0.00     0.008 C 
HETATM   12  C   UNL     1      42.075 -12.185   5.988  1.00  0.00     0.020 C 
HETATM   13  C   UNL     1      43.839 -13.964   6.142  1.00  0.00     0.128 C 
HETATM   14  C   UNL     1      43.558 -14.824   7.366  1.00  0.00     0.033 C 
HETATM   15  C   UNL     1      42.959 -16.173   6.972  1.00  0.00     0.013 C 
ENDROOT
BRANCH   3  16
HETATM   16  C   UNL     1      42.305 -18.327   4.683  1.00  0.00     0.114 C 
BRANCH  16  17
HETATM   17  C   UNL     1      43.511 -18.921   3.987  1.00  0.00     0.218 C 
HETATM   18  N   UNL     1      43.239 -19.567   2.807  1.00  0.00    -0.359 N 
HETATM   19  H   UNL     1      42.426 -19.237   2.280  1.00  0.00     0.162 HD
HETATM   20  O   UNL     1      44.631 -18.863   4.490  1.00  0.00    -0.274 OA
BRANCH  18  21
HETATM   21  C   UNL     1      44.298 -20.222   2.060  1.00  0.00     0.148 C 
BRANCH  21  22
HETATM   22  C   UNL     1      43.916 -21.647   1.649  1.00  0.00     0.186 C 
BRANCH  22  23
HETATM   23  O   UNL     1      44.744 -22.637   2.265  1.00  0.00    -0.394 OA
HETATM   24  C   UNL     1      44.621 -22.646   3.682  1.00  0.00     0.201 C 
ENDBRANCH  22  23
ENDBRANCH  21  22
ENDBRANCH  18  21
ENDBRANCH  16  17
ENDBRANCH   3  16
BRANCH  11  25
HETATM   25  C   UNL     1      42.876 -13.312   3.900  1.00  0.00     0.176 C 
BRANCH  25  26
HETATM   26  O   UNL     1      42.222 -12.166   3.365  1.00  0.00    -0.400 OA
HETATM   27  H   UNL     1      42.927 -11.537   3.128  1.00  0.00     0.209 HD
ENDBRANCH  25  26
ENDBRANCH  11  25
BRANCH   7  28
HETATM   28  N   UNL     1      40.687 -16.386  -0.038  1.00  0.00    -0.334 N 
HETATM   29  H   UNL     1      39.842 -16.809  -0.404  1.00  0.00     0.168 HD
BRANCH  28  30
HETATM   30  C   UNL     1      41.109 -15.335  -0.892  1.00  0.00     0.051 A 
HETATM   31  C   UNL     1      41.709 -14.149  -0.466  1.00  0.00     0.145 A 
HETATM   32  N   UNL     1      42.107 -13.142  -1.289  1.00  0.00    -0.271 NA
HETATM   33  C   UNL     1      41.926 -13.332  -2.611  1.00  0.00     0.116 A 
HETATM   34  C   UNL     1      41.388 -14.487  -3.148  1.00  0.00     0.021 A 
HETATM   35  C   UNL     1      40.991 -15.501  -2.278  1.00  0.00     0.032 A 
ENDBRANCH  28  30
ENDBRANCH   7  28
BRANCH  13  36
HETATM   36  O   UNL     1      44.717 -14.681   5.275  1.00  0.00    -0.395 OA
HETATM   37  H   UNL     1      44.542 -14.394   4.360  1.00  0.00     0.210 HD
ENDBRANCH  13  36
TORSDOF 10
ENDMDL
MODEL 3
REMARK VINA RESULT:      -7.2      4.248      7.578
REMARK  10 active torsions:
REMARK  status: ('A' for Active; 'I' for Inactive)
REMARK    1  A    between atoms: C_3  and  C_4 
REMARK    2  A    between atoms: C_4  and  C_5 
REMARK       I    between atoms: C_5  and  N_6 
REMARK    3  A    between atoms: N_6  and  C_7 
REMARK    4  A    between atoms: C_7  and  C_8 
REMARK    5  A    between atoms: C_8  and  O_9 
REMARK    6  A    between atoms: C_15  and  N_16 
REMARK    7  A    between atoms: N_16  and  C_17 
REMARK    8  A    between atoms: C_26  and  C_27 
REMARK    9  A    between atoms: C_27  and  O_28 
REMARK   10  A    between atoms: C_30  and  O_31 
ROOT
HETATM    1  C   UNL     1      42.579 -12.539  -2.007  1.00  0.00     0.016 C 
HETATM    2  C   UNL     1      41.126 -12.553  -1.430  1.00  0.00    -0.030 C 
HETATM    3  C   UNL     1      40.641 -14.057  -1.222  1.00  0.00     0.056 C 
HETATM    4  C   UNL     1      41.193 -14.625   0.065  1.00  0.00     0.056 C 
HETATM    5  C   UNL     1      41.861 -13.881   1.013  1.00  0.00     0.012 C 
HETATM    6  S   UNL     1      42.359 -14.871   2.300  1.00  0.00    -0.055 SA
HETATM    7  C   UNL     1      41.408 -16.159   1.648  1.00  0.00     0.172 C 
HETATM    8  N   UNL     1      40.924 -15.929   0.444  1.00  0.00    -0.227 NA
HETATM    9  C   UNL     1      42.100 -12.415   0.965  1.00  0.00     0.055 C 
HETATM   10  C   UNL     1      41.137 -11.750  -0.060  1.00  0.00     0.012 C 
HETATM   11  C   UNL     1      39.705 -11.339   0.515  1.00  0.00     0.008 C 
HETATM   12  C   UNL     1      39.906  -9.992   1.273  1.00  0.00     0.020 C 
HETATM   13  C   UNL     1      38.694 -11.068  -0.643  1.00  0.00     0.128 C 
HETATM   14  C   UNL     1      39.391 -10.682  -1.940  1.00  0.00     0.033 C 
HETATM   15  C   UNL     1      40.226 -11.838  -2.487  1.00  0.00     0.013 C 
ENDROOT
BRANCH   3  16
HETATM   16  C   UNL     1      40.977 -14.959  -2.423  1.00  0.00     0.114 C 
BRANCH  16  17
HETATM   17  C   UNL     1      39.764 -15.312  -3.256  1.00  0.00     0.218 C 
HETATM   18  N   UNL     1      38.563 -14.903  -2.732  1.00  0.00    -0.359 N 
HETATM   19  H   UNL     1      38.581 -14.069  -2.140  1.00  0.00     0.162 HD
HETATM   20  O   UNL     1      39.869 -15.965  -4.292  1.00  0.00    -0.274 OA
BRANCH  18  21
HETATM   21  C   UNL     1      37.315 -15.217  -3.405  1.00  0.00     0.148 C 
BRANCH  21  22
HETATM   22  C   UNL     1      36.785 -14.032  -4.217  1.00  0.00     0.186 C 
BRANCH  22  23
HETATM   23  O   UNL     1      36.931 -12.786  -3.529  1.00  0.00    -0.394 OA
HETATM   24  C   UNL     1      36.685 -11.666  -4.369  1.00  0.00     0.201 C 
ENDBRANCH  22  23
ENDBRANCH  21  22
ENDBRANCH  18  21
ENDBRANCH  16  17
ENDBRANCH   3  16
BRANCH  11  25
HETATM   25  C   UNL     1      39.053 -12.334   1.514  1.00  0.00     0.176 C 
BRANCH  25  26
HETATM   26  O   UNL     1      37.835 -11.840   2.061  1.00  0.00    -0.400 OA
HETATM   27  H   UNL     1      38.050 -11.512   2.952  1.00  0.00     0.209 HD
ENDBRANCH  25  26
ENDBRANCH  11  25
BRANCH   7  28
HETATM   28  N   UNL     1      41.202 -17.267   2.404  1.00  0.00    -0.334 N 
HETATM   29  H   UNL     1      40.461 -17.863   2.054  1.00  0.00     0.168 HD
BRANCH  28  30
HETATM   30  C   UNL     1      42.270 -18.063   2.889  1.00  0.00     0.051 A 
HETATM   31  C   UNL     1      42.647 -18.167   4.230  1.00  0.00     0.145 A 
HETATM   32  N   UNL     1      43.677 -18.929   4.690  1.00  0.00    -0.271 NA
HETATM   33  C   UNL     1      44.352 -19.650   3.774  1.00  0.00     0.116 A 
HETATM   34  C   UNL     1      44.036 -19.663   2.428  1.00  0.00     0.021 A 
HETATM   35  C   UNL     1      42.975 -18.872   1.989  1.00  0.00     0.032 A 
ENDBRANCH  28  30
ENDBRANCH   7  28
BRANCH  13  36
HETATM   36  O   UNL     1      37.881 -12.216  -0.889  1.00  0.00    -0.395 OA
HETATM   37  H   UNL     1      36.995 -12.046  -0.519  1.00  0.00     0.210 HD
ENDBRANCH  13  36
TORSDOF 10
ENDMDL
MODEL 4
REMARK VINA RESULT:      -7.2      2.397      3.654
REMARK  10 active torsions:
REMARK  status: ('A' for Active; 'I' for Inactive)
REMARK    1  A    between atoms: C_3  and  C_4 
REMARK    2  A    between atoms: C_4  and  C_5 
REMARK       I    between atoms: C_5  and  N_6 
REMARK    3  A    between atoms: N_6  and  C_7 
REMARK    4  A    between atoms: C_7  and  C_8 
REMARK    5  A    between atoms: C_8  and  O_9 
REMARK    6  A    between atoms: C_15  and  N_16 
REMARK    7  A    between atoms: N_16  and  C_17 
REMARK    8  A    between atoms: C_26  and  C_27 
REMARK    9  A    between atoms: C_27  and  O_28 
REMARK   10  A    between atoms: C_30  and  O_31 
ROOT
HETATM    1  C   UNL     1      37.631 -13.523   1.052  1.00  0.00     0.016 C 
HETATM    2  C   UNL     1      38.976 -12.769   1.306  1.00  0.00    -0.030 C 
HETATM    3  C   UNL     1      39.997 -13.724   2.071  1.00  0.00     0.056 C 
HETATM    4  C   UNL     1      40.672 -14.671   1.105  1.00  0.00     0.056 C 
HETATM    5  C   UNL     1      40.560 -14.585  -0.266  1.00  0.00     0.012 C 
HETATM    6  S   UNL     1      41.428 -15.839  -1.011  1.00  0.00    -0.055 SA
HETATM    7  C   UNL     1      42.124 -16.238   0.520  1.00  0.00     0.172 C 
HETATM    8  N   UNL     1      41.584 -15.613   1.548  1.00  0.00    -0.227 NA
HETATM    9  C   UNL     1      39.821 -13.537  -1.018  1.00  0.00     0.055 C 
HETATM   10  C   UNL     1      39.552 -12.310  -0.102  1.00  0.00     0.012 C 
HETATM   11  C   UNL     1      40.723 -11.225  -0.053  1.00  0.00     0.008 C 
HETATM   12  C   UNL     1      40.574 -10.358  -1.338  1.00  0.00     0.020 C 
HETATM   13  C   UNL     1      40.548 -10.269   1.170  1.00  0.00     0.128 C 
HETATM   14  C   UNL     1      39.103 -10.191   1.640  1.00  0.00     0.033 C 
HETATM   15  C   UNL     1      38.626 -11.533   2.194  1.00  0.00     0.013 C 
ENDROOT
BRANCH   3  16
HETATM   16  C   UNL     1      39.336 -14.487   3.234  1.00  0.00     0.114 C 
BRANCH  16  17
HETATM   17  C   UNL     1      40.104 -14.367   4.531  1.00  0.00     0.218 C 
HETATM   18  N   UNL     1      41.174 -15.220   4.653  1.00  0.00    -0.359 N 
HETATM   19  H   UNL     1      41.632 -15.507   3.784  1.00  0.00     0.162 HD
HETATM   20  O   UNL     1      39.745 -13.596   5.418  1.00  0.00    -0.274 OA
BRANCH  18  21
HETATM   21  C   UNL     1      41.970 -15.243   5.867  1.00  0.00     0.148 C 
BRANCH  21  22
HETATM   22  C   UNL     1      43.366 -14.652   5.651  1.00  0.00     0.186 C 
BRANCH  22  23
HETATM   23  O   UNL     1      44.279 -15.007   6.693  1.00  0.00    -0.394 OA
HETATM   24  C   UNL     1      45.016 -13.891   7.177  1.00  0.00     0.201 C 
ENDBRANCH  22  23
ENDBRANCH  21  22
ENDBRANCH  18  21
ENDBRANCH  16  17
ENDBRANCH   3  16
BRANCH  11  25
HETATM   25  C   UNL     1      42.174 -11.779  -0.038  1.00  0.00     0.176 C 
BRANCH  25  26
HETATM   26  O   UNL     1      43.150 -10.752   0.109  1.00  0.00    -0.400 OA
HETATM   27  H   UNL     1      42.713  -9.922  -0.151  1.00  0.00     0.209 HD
ENDBRANCH  25  26
ENDBRANCH  11  25
BRANCH   7  28
HETATM   28  N   UNL     1      43.164 -17.109   0.560  1.00  0.00    -0.334 N 
HETATM   29  H   UNL     1      44.007 -16.752   0.125  1.00  0.00     0.168 HD
BRANCH  28  30
HETATM   30  C   UNL     1      43.497 -17.839   1.728  1.00  0.00     0.051 A 
HETATM   31  C   UNL     1      43.737 -17.276   2.983  1.00  0.00     0.145 A 
HETATM   32  N   UNL     1      44.061 -17.981   4.101  1.00  0.00    -0.271 NA
HETATM   33  C   UNL     1      44.124 -19.321   3.975  1.00  0.00     0.116 A 
HETATM   34  C   UNL     1      43.858 -19.989   2.794  1.00  0.00     0.021 A 
HETATM   35  C   UNL     1      43.527 -19.238   1.667  1.00  0.00     0.032 A 
ENDBRANCH  28  30
ENDBRANCH   7  28
BRANCH  13  36
HETATM   36  O   UNL     1      41.361 -10.689   2.265  1.00  0.00    -0.395 OA
HETATM   37  H   UNL     1      40.822 -11.260   2.842  1.00  0.00     0.210 HD
ENDBRANCH  13  36
TORSDOF 10
ENDMDL
MODEL 5
REMARK VINA RESULT:      -7.2      3.439      7.270
REMARK  10 active torsions:
REMARK  status: ('A' for Active; 'I' for Inactive)
REMARK    1  A    between atoms: C_3  and  C_4 
REMARK    2  A    between atoms: C_4  and  C_5 
REMARK       I    between atoms: C_5  and  N_6 
REMARK    3  A    between atoms: N_6  and  C_7 
REMARK    4  A    between atoms: C_7  and  C_8 
REMARK    5  A    between atoms: C_8  and  O_9 
REMARK    6  A    between atoms: C_15  and  N_16 
REMARK    7  A    between atoms: N_16  and  C_17 
REMARK    8  A    between atoms: C_26  and  C_27 
REMARK    9  A    between atoms: C_27  and  O_28 
REMARK   10  A    between atoms: C_30  and  O_31 
ROOT
HETATM    1  C   UNL     1      40.541 -17.255   4.382  1.00  0.00     0.016 C 
HETATM    2  C   UNL     1      41.631 -16.190   4.033  1.00  0.00    -0.030 C 
HETATM    3  C   UNL     1      41.814 -16.101   2.452  1.00  0.00     0.056 C 
HETATM    4  C   UNL     1      40.732 -15.245   1.834  1.00  0.00     0.056 C 
HETATM    5  C   UNL     1      39.832 -14.496   2.560  1.00  0.00     0.012 C 
HETATM    6  S   UNL     1      38.750 -13.700   1.521  1.00  0.00    -0.055 SA
HETATM    7  C   UNL     1      39.725 -14.176   0.176  1.00  0.00     0.172 C 
HETATM    8  N   UNL     1      40.674 -15.045   0.466  1.00  0.00    -0.227 NA
HETATM    9  C   UNL     1      39.804 -14.354   4.039  1.00  0.00     0.055 C 
HETATM   10  C   UNL     1      41.166 -14.799   4.644  1.00  0.00     0.012 C 
HETATM   11  C   UNL     1      42.286 -13.663   4.714  1.00  0.00     0.008 C 
HETATM   12  C   UNL     1      41.957 -12.798   5.968  1.00  0.00     0.020 C 
HETATM   13  C   UNL     1      43.700 -14.285   4.943  1.00  0.00     0.128 C 
HETATM   14  C   UNL     1      43.629 -15.651   5.610  1.00  0.00     0.033 C 
HETATM   15  C   UNL     1      42.954 -16.678   4.702  1.00  0.00     0.013 C 
ENDROOT
BRANCH   3  16
HETATM   16  C   UNL     1      41.883 -17.486   1.785  1.00  0.00     0.114 C 
BRANCH  16  17
HETATM   17  C   UNL     1      43.232 -18.152   1.943  1.00  0.00     0.218 C 
HETATM   18  N   UNL     1      43.193 -19.431   2.441  1.00  0.00    -0.359 N 
HETATM   19  H   UNL     1      42.349 -19.974   2.243  1.00  0.00     0.162 HD
HETATM   20  O   UNL     1      44.274 -17.551   1.690  1.00  0.00    -0.274 OA
BRANCH  18  21
HETATM   21  C   UNL     1      44.419 -20.169   2.686  1.00  0.00     0.148 C 
BRANCH  21  22
HETATM   22  C   UNL     1      44.450 -21.501   1.933  1.00  0.00     0.186 C 
BRANCH  22  23
HETATM   23  O   UNL     1      44.503 -22.628   2.811  1.00  0.00    -0.394 OA
HETATM   24  C   UNL     1      44.701 -22.254   4.169  1.00  0.00     0.201 C 
ENDBRANCH  22  23
ENDBRANCH  21  22
ENDBRANCH  18  21
ENDBRANCH  16  17
ENDBRANCH   3  16
BRANCH  11  25
HETATM   25  C   UNL     1      42.365 -12.698   3.499  1.00  0.00     0.176 C 
BRANCH  25  26
HETATM   26  O   UNL     1      41.766 -11.434   3.764  1.00  0.00    -0.400 OA
HETATM   27  H   UNL     1      42.437 -10.764   3.546  1.00  0.00     0.209 HD
ENDBRANCH  25  26
ENDBRANCH  11  25
BRANCH   7  28
HETATM   28  N   UNL     1      39.482 -13.620  -1.038  1.00  0.00    -0.334 N 
HETATM   29  H   UNL     1      40.122 -12.870  -1.275  1.00  0.00     0.168 HD
BRANCH  28  30
HETATM   30  C   UNL     1      39.212 -14.402  -2.189  1.00  0.00     0.051 A 
HETATM   31  C   UNL     1      40.165 -15.127  -2.908  1.00  0.00     0.145 A 
HETATM   32  N   UNL     1      39.901 -15.872  -4.015  1.00  0.00    -0.271 NA
HETATM   33  C   UNL     1      38.616 -15.925  -4.417  1.00  0.00     0.116 A 
HETATM   34  C   UNL     1      37.583 -15.289  -3.755  1.00  0.00     0.021 A 
HETATM   35  C   UNL     1      37.886 -14.534  -2.622  1.00  0.00     0.032 A 
ENDBRANCH  28  30
ENDBRANCH   7  28
BRANCH  13  36
HETATM   36  O   UNL     1      44.403 -14.418   3.708  1.00  0.00    -0.395 OA
HETATM   37  H   UNL     1      45.227 -14.911   3.879  1.00  0.00     0.210 HD
ENDBRANCH  13  36
TORSDOF 10
ENDMDL
MODEL 6
REMARK VINA RESULT:      -7.0      3.560      7.768
REMARK  10 active torsions:
REMARK  status: ('A' for Active; 'I' for Inactive)
REMARK    1  A    between atoms: C_3  and  C_4 
REMARK    2  A    between atoms: C_4  and  C_5 
REMARK       I    between atoms: C_5  and  N_6 
REMARK    3  A    between atoms: N_6  and  C_7 
REMARK    4  A    between atoms: C_7  and  C_8 
REMARK    5  A    between atoms: C_8  and  O_9 
REMARK    6  A    between atoms: C_15  and  N_16 
REMARK    7  A    between atoms: N_16  and  C_17 
REMARK    8  A    between atoms: C_26  and  C_27 
REMARK    9  A    between atoms: C_27  and  O_28 
REMARK   10  A    between atoms: C_30  and  O_31 
ROOT
HETATM    1  C   UNL     1      39.688 -17.205   2.598  1.00  0.00     0.016 C 
HETATM    2  C   UNL     1      40.901 -16.296   2.981  1.00  0.00    -0.030 C 
HETATM    3  C   UNL     1      41.851 -16.098   1.717  1.00  0.00     0.056 C 
HETATM    4  C   UNL     1      41.301 -15.033   0.794  1.00  0.00     0.056 C 
HETATM    5  C   UNL     1      40.234 -14.219   1.105  1.00  0.00     0.012 C 
HETATM    6  S   UNL     1      39.887 -13.176  -0.189  1.00  0.00    -0.055 SA
HETATM    7  C   UNL     1      41.352 -13.679  -0.957  1.00  0.00     0.172 C 
HETATM    8  N   UNL     1      41.947 -14.707  -0.385  1.00  0.00    -0.227 NA
HETATM    9  C   UNL     1      39.491 -14.205   2.392  1.00  0.00     0.055 C 
HETATM   10  C   UNL     1      40.326 -14.908   3.499  1.00  0.00     0.012 C 
HETATM   11  C   UNL     1      41.364 -13.972   4.271  1.00  0.00     0.008 C 
HETATM   12  C   UNL     1      40.540 -13.179   5.329  1.00  0.00     0.020 C 
HETATM   13  C   UNL     1      42.415 -14.824   5.050  1.00  0.00     0.128 C 
HETATM   14  C   UNL     1      41.896 -16.215   5.384  1.00  0.00     0.033 C 
HETATM   15  C   UNL     1      41.667 -17.041   4.118  1.00  0.00     0.013 C 
ENDROOT
BRANCH   3  16
HETATM   16  C   UNL     1      42.112 -17.413   0.961  1.00  0.00     0.114 C 
BRANCH  16  17
HETATM   17  C   UNL     1      43.328 -18.155   1.469  1.00  0.00     0.218 C 
HETATM   18  N   UNL     1      43.094 -19.448   1.868  1.00  0.00    -0.359 N 
HETATM   19  H   UNL     1      42.323 -19.937   1.407  1.00  0.00     0.162 HD
HETATM   20  O   UNL     1      44.422 -17.602   1.560  1.00  0.00    -0.274 OA
BRANCH  18  21
HETATM   21  C   UNL     1      44.165 -20.259   2.421  1.00  0.00     0.148 C 
BRANCH  21  22
HETATM   22  C   UNL     1      44.166 -21.678   1.848  1.00  0.00     0.186 C 
BRANCH  22  23
HETATM   23  O   UNL     1      44.510 -22.664   2.825  1.00  0.00    -0.394 OA
HETATM   24  C   UNL     1      44.676 -22.111   4.125  1.00  0.00     0.201 C 
ENDBRANCH  22  23
ENDBRANCH  21  22
ENDBRANCH  18  21
ENDBRANCH  16  17
ENDBRANCH   3  16
BRANCH  11  25
HETATM   25  C   UNL     1      42.124 -12.928   3.406  1.00  0.00     0.176 C 
BRANCH  25  26
HETATM   26  O   UNL     1      41.857 -11.588   3.806  1.00  0.00    -0.400 OA
HETATM   27  H   UNL     1      42.461 -11.400   4.546  1.00  0.00     0.209 HD
ENDBRANCH  25  26
ENDBRANCH  11  25
BRANCH   7  28
HETATM   28  N   UNL     1      41.795 -12.988  -2.038  1.00  0.00    -0.334 N 
HETATM   29  H   UNL     1      41.158 -13.019  -2.827  1.00  0.00     0.168 HD
BRANCH  28  30
HETATM   30  C   UNL     1      42.362 -11.693  -1.929  1.00  0.00     0.051 A 
HETATM   31  C   UNL     1      43.103 -11.232  -0.839  1.00  0.00     0.145 A 
HETATM   32  N   UNL     1      43.641  -9.987  -0.737  1.00  0.00    -0.271 NA
HETATM   33  C   UNL     1      43.459  -9.161  -1.786  1.00  0.00     0.116 A 
HETATM   34  C   UNL     1      42.786  -9.526  -2.937  1.00  0.00     0.021 A 
HETATM   35  C   UNL     1      42.247 -10.811  -3.010  1.00  0.00     0.032 A 
ENDBRANCH  28  30
ENDBRANCH   7  28
BRANCH  13  36
HETATM   36  O   UNL     1      43.622 -14.957   4.300  1.00  0.00    -0.395 OA
HETATM   37  H   UNL     1      44.342 -15.176   4.919  1.00  0.00     0.210 HD
ENDBRANCH  13  36
TORSDOF 10
ENDMDL
MODEL 7
REMARK VINA RESULT:      -6.9      1.824      2.401
REMARK  10 active torsions:
REMARK  status: ('A' for Active; 'I' for Inactive)
REMARK    1  A    between atoms: C_3  and  C_4 
REMARK    2  A    between atoms: C_4  and  C_5 
REMARK       I    between atoms: C_5  and  N_6 
REMARK    3  A    between atoms: N_6  and  C_7 
REMARK    4  A    between atoms: C_7  and  C_8 
REMARK    5  A    between atoms: C_8  and  O_9 
REMARK    6  A    between atoms: C_15  and  N_16 
REMARK    7  A    between atoms: N_16  and  C_17 
REMARK    8  A    between atoms: C_26  and  C_27 
REMARK    9  A    between atoms: C_27  and  O_28 
REMARK   10  A    between atoms: C_30  and  O_31 
ROOT
HETATM    1  C   UNL     1      39.117 -12.504   3.269  1.00  0.00     0.016 C 
HETATM    2  C   UNL     1      40.320 -12.468   2.272  1.00  0.00    -0.030 C 
HETATM    3  C   UNL     1      41.511 -13.369   2.829  1.00  0.00     0.056 C 
HETATM    4  C   UNL     1      41.264 -14.830   2.530  1.00  0.00     0.056 C 
HETATM    5  C   UNL     1      40.247 -15.291   1.721  1.00  0.00     0.012 C 
HETATM    6  S   UNL     1      40.267 -16.988   1.653  1.00  0.00    -0.055 SA
HETATM    7  C   UNL     1      41.792 -16.980   2.467  1.00  0.00     0.172 C 
HETATM    8  N   UNL     1      42.156 -15.805   2.942  1.00  0.00    -0.227 NA
HETATM    9  C   UNL     1      39.275 -14.451   0.974  1.00  0.00     0.055 C 
HETATM   10  C   UNL     1      39.804 -12.992   0.864  1.00  0.00     0.012 C 
HETATM   11  C   UNL     1      40.765 -12.706  -0.378  1.00  0.00     0.008 C 
HETATM   12  C   UNL     1      39.839 -12.515  -1.617  1.00  0.00     0.020 C 
HETATM   13  C   UNL     1      41.551 -11.371  -0.182  1.00  0.00     0.128 C 
HETATM   14  C   UNL     1      40.836 -10.414   0.761  1.00  0.00     0.033 C 
HETATM   15  C   UNL     1      40.771 -10.977   2.180  1.00  0.00     0.013 C 
ENDROOT
BRANCH   3  16
HETATM   16  C   UNL     1      41.775 -13.142   4.328  1.00  0.00     0.114 C 
BRANCH  16  17
HETATM   17  C   UNL     1      43.202 -13.444   4.729  1.00  0.00     0.218 C 
HETATM   18  N   UNL     1      43.386 -13.709   6.064  1.00  0.00    -0.359 N 
HETATM   19  H   UNL     1      42.591 -14.118   6.563  1.00  0.00     0.162 HD
HETATM   20  O   UNL     1      44.120 -13.396   3.913  1.00  0.00    -0.274 OA
BRANCH  18  21
HETATM   21  C   UNL     1      44.712 -13.970   6.593  1.00  0.00     0.148 C 
BRANCH  21  22
HETATM   22  C   UNL     1      44.807 -13.665   8.090  1.00  0.00     0.186 C 
BRANCH  22  23
HETATM   23  O   UNL     1      44.632 -12.275   8.378  1.00  0.00    -0.394 OA
HETATM   24  C   UNL     1      45.798 -11.681   8.935  1.00  0.00     0.201 C 
ENDBRANCH  22  23
ENDBRANCH  21  22
ENDBRANCH  18  21
ENDBRANCH  16  17
ENDBRANCH   3  16
BRANCH  11  25
HETATM   25  C   UNL     1      41.781 -13.826  -0.734  1.00  0.00     0.176 C 
BRANCH  25  26
HETATM   26  O   UNL     1      42.522 -13.537  -1.915  1.00  0.00    -0.400 OA
HETATM   27  H   UNL     1      42.977 -14.362  -2.160  1.00  0.00     0.209 HD
ENDBRANCH  25  26
ENDBRANCH  11  25
BRANCH   7  28
HETATM   28  N   UNL     1      42.505 -18.133   2.532  1.00  0.00    -0.334 N 
HETATM   29  H   UNL     1      43.176 -18.237   1.780  1.00  0.00     0.168 HD
BRANCH  28  30
HETATM   30  C   UNL     1      43.063 -18.612   3.744  1.00  0.00     0.051 A 
HETATM   31  C   UNL     1      42.544 -18.366   5.017  1.00  0.00     0.145 A 
HETATM   32  N   UNL     1      43.087 -18.824   6.178  1.00  0.00    -0.271 NA
HETATM   33  C   UNL     1      44.189 -19.591   6.070  1.00  0.00     0.116 A 
HETATM   34  C   UNL     1      44.761 -19.939   4.861  1.00  0.00     0.021 A 
HETATM   35  C   UNL     1      44.180 -19.455   3.688  1.00  0.00     0.032 A 
ENDBRANCH  28  30
ENDBRANCH   7  28
BRANCH  13  36
HETATM   36  O   UNL     1      42.859 -11.621   0.331  1.00  0.00    -0.395 OA
HETATM   37  H   UNL     1      42.784 -11.789   1.288  1.00  0.00     0.210 HD
ENDBRANCH  13  36
TORSDOF 10
ENDMDL
MODEL 8
REMARK VINA RESULT:      -6.9      3.473      7.456
REMARK  10 active torsions:
REMARK  status: ('A' for Active; 'I' for Inactive)
REMARK    1  A    between atoms: C_3  and  C_4 
REMARK    2  A    between atoms: C_4  and  C_5 
REMARK       I    between atoms: C_5  and  N_6 
REMARK    3  A    between atoms: N_6  and  C_7 
REMARK    4  A    between atoms: C_7  and  C_8 
REMARK    5  A    between atoms: C_8  and  O_9 
REMARK    6  A    between atoms: C_15  and  N_16 
REMARK    7  A    between atoms: N_16  and  C_17 
REMARK    8  A    between atoms: C_26  and  C_27 
REMARK    9  A    between atoms: C_27  and  O_28 
REMARK   10  A    between atoms: C_30  and  O_31 
ROOT
HETATM    1  C   UNL     1      44.341 -14.578   3.428  1.00  0.00     0.016 C 
HETATM    2  C   UNL     1      42.905 -15.193   3.350  1.00  0.00    -0.030 C 
HETATM    3  C   UNL     1      42.136 -14.949   4.724  1.00  0.00     0.056 C 
HETATM    4  C   UNL     1      41.569 -13.548   4.780  1.00  0.00     0.056 C 
HETATM    5  C   UNL     1      41.557 -12.678   3.712  1.00  0.00     0.012 C 
HETATM    6  S   UNL     1      40.873 -11.192   4.167  1.00  0.00    -0.055 SA
HETATM    7  C   UNL     1      40.382 -11.902   5.665  1.00  0.00     0.172 C 
HETATM    8  N   UNL     1      40.879 -13.101   5.893  1.00  0.00    -0.227 NA
HETATM    9  C   UNL     1      42.034 -12.975   2.336  1.00  0.00     0.055 C 
HETATM   10  C   UNL     1      42.148 -14.512   2.131  1.00  0.00     0.012 C 
HETATM   11  C   UNL     1      40.809 -15.238   1.652  1.00  0.00     0.008 C 
HETATM   12  C   UNL     1      40.699 -14.993   0.118  1.00  0.00     0.020 C 
HETATM   13  C   UNL     1      40.903 -16.783   1.865  1.00  0.00     0.128 C 
HETATM   14  C   UNL     1      42.343 -17.274   1.893  1.00  0.00     0.033 C 
HETATM   15  C   UNL     1      43.096 -16.723   3.104  1.00  0.00     0.013 C 
ENDROOT
BRANCH   3  16
HETATM   16  C   UNL     1      43.012 -15.248   5.954  1.00  0.00     0.114 C 
BRANCH  16  17
HETATM   17  C   UNL     1      42.695 -16.581   6.596  1.00  0.00     0.218 C 
HETATM   18  N   UNL     1      43.785 -17.378   6.846  1.00  0.00    -0.359 N 
HETATM   19  H   UNL     1      44.672 -16.900   7.018  1.00  0.00     0.162 HD
HETATM   20  O   UNL     1      41.535 -16.925   6.815  1.00  0.00    -0.274 OA
BRANCH  18  21
HETATM   21  C   UNL     1      43.618 -18.703   7.416  1.00  0.00     0.148 C 
BRANCH  21  22
HETATM   22  C   UNL     1      43.966 -19.808   6.415  1.00  0.00     0.186 C 
BRANCH  22  23
HETATM   23  O   UNL     1      44.729 -19.325   5.306  1.00  0.00    -0.394 OA
HETATM   24  C   UNL     1      44.946 -20.322   4.316  1.00  0.00     0.201 C 
ENDBRANCH  22  23
ENDBRANCH  21  22
ENDBRANCH  18  21
ENDBRANCH  16  17
ENDBRANCH   3  16
BRANCH  11  25
HETATM   25  C   UNL     1      39.487 -14.735   2.293  1.00  0.00     0.176 C 
BRANCH  25  26
HETATM   26  O   UNL     1      38.341 -15.411   1.787  1.00  0.00    -0.400 OA
HETATM   27  H   UNL     1      37.675 -14.724   1.609  1.00  0.00     0.209 HD
ENDBRANCH  25  26
ENDBRANCH  11  25
BRANCH   7  28
HETATM   28  N   UNL     1      39.522 -11.218   6.462  1.00  0.00    -0.334 N 
HETATM   29  H   UNL     1      38.601 -11.638   6.516  1.00  0.00     0.168 HD
BRANCH  28  30
HETATM   30  C   UNL     1      39.901 -10.722   7.735  1.00  0.00     0.051 A 
HETATM   31  C   UNL     1      39.343 -11.126   8.950  1.00  0.00     0.145 A 
HETATM   32  N   UNL     1      39.707 -10.643  10.169  1.00  0.00    -0.271 NA
HETATM   33  C   UNL     1      40.697  -9.729  10.188  1.00  0.00     0.116 A 
HETATM   34  C   UNL     1      41.354  -9.293   9.052  1.00  0.00     0.021 A 
HETATM   35  C   UNL     1      40.959  -9.808   7.818  1.00  0.00     0.032 A 
ENDBRANCH  28  30
ENDBRANCH   7  28
BRANCH  13  36
HETATM   36  O   UNL     1      40.267 -17.169   3.083  1.00  0.00    -0.395 OA
HETATM   37  H   UNL     1      40.946 -17.544   3.675  1.00  0.00     0.210 HD
ENDBRANCH  13  36
TORSDOF 10
ENDMDL
MODEL 9
REMARK VINA RESULT:      -6.8      4.332      7.360
REMARK  10 active torsions:
REMARK  status: ('A' for Active; 'I' for Inactive)
REMARK    1  A    between atoms: C_3  and  C_4 
REMARK    2  A    between atoms: C_4  and  C_5 
REMARK       I    between atoms: C_5  and  N_6 
REMARK    3  A    between atoms: N_6  and  C_7 
REMARK    4  A    between atoms: C_7  and  C_8 
REMARK    5  A    between atoms: C_8  and  O_9 
REMARK    6  A    between atoms: C_15  and  N_16 
REMARK    7  A    between atoms: N_16  and  C_17 
REMARK    8  A    between atoms: C_26  and  C_27 
REMARK    9  A    between atoms: C_27  and  O_28 
REMARK   10  A    between atoms: C_30  and  O_31 
ROOT
HETATM    1  C   UNL     1      38.167 -14.041  -2.235  1.00  0.00     0.016 C 
HETATM    2  C   UNL     1      39.014 -12.950  -1.504  1.00  0.00    -0.030 C 
HETATM    3  C   UNL     1      38.615 -12.896   0.038  1.00  0.00     0.056 C 
HETATM    4  C   UNL     1      39.305 -13.997   0.810  1.00  0.00     0.056 C 
HETATM    5  C   UNL     1      40.289 -14.808   0.285  1.00  0.00     0.012 C 
HETATM    6  S   UNL     1      40.796 -15.946   1.438  1.00  0.00    -0.055 SA
HETATM    7  C   UNL     1      39.883 -15.103   2.640  1.00  0.00     0.172 C 
HETATM    8  N   UNL     1      39.089 -14.163   2.167  1.00  0.00    -0.227 NA
HETATM    9  C   UNL     1      40.869 -14.707  -1.080  1.00  0.00     0.055 C 
HETATM   10  C   UNL     1      40.549 -13.315  -1.695  1.00  0.00     0.012 C 
HETATM   11  C   UNL     1      41.587 -12.156  -1.339  1.00  0.00     0.008 C 
HETATM   12  C   UNL     1      42.806 -12.349  -2.290  1.00  0.00     0.020 C 
HETATM   13  C   UNL     1      40.983 -10.749  -1.646  1.00  0.00     0.128 C 
HETATM   14  C   UNL     1      39.886 -10.810  -2.699  1.00  0.00     0.033 C 
HETATM   15  C   UNL     1      38.674 -11.592  -2.196  1.00  0.00     0.013 C 
ENDROOT
BRANCH   3  16
HETATM   16  C   UNL     1      37.091 -12.930   0.256  1.00  0.00     0.114 C 
BRANCH  16  17
HETATM   17  C   UNL     1      36.551 -11.649   0.853  1.00  0.00     0.218 C 
HETATM   18  N   UNL     1      35.189 -11.497   0.766  1.00  0.00    -0.359 N 
HETATM   19  H   UNL     1      34.633 -12.356   0.749  1.00  0.00     0.162 HD
HETATM   20  O   UNL     1      37.302 -10.798   1.325  1.00  0.00    -0.274 OA
BRANCH  18  21
HETATM   21  C   UNL     1      34.544 -10.293   1.258  1.00  0.00     0.148 C 
BRANCH  21  22
HETATM   22  C   UNL     1      33.037 -10.482   1.445  1.00  0.00     0.186 C 
BRANCH  22  23
HETATM   23  O   UNL     1      32.662 -10.565   2.823  1.00  0.00    -0.394 OA
HETATM   24  C   UNL     1      31.658 -11.545   3.058  1.00  0.00     0.201 C 
ENDBRANCH  22  23
ENDBRANCH  21  22
ENDBRANCH  18  21
ENDBRANCH  16  17
ENDBRANCH   3  16
BRANCH  11  25
HETATM   25  C   UNL     1      42.137 -12.146   0.114  1.00  0.00     0.176 C 
BRANCH  25  26
HETATM   26  O   UNL     1      42.997 -11.040   0.367  1.00  0.00    -0.400 OA
HETATM   27  H   UNL     1      43.873 -11.293   0.024  1.00  0.00     0.209 HD
ENDBRANCH  25  26
ENDBRANCH  11  25
BRANCH   7  28
HETATM   28  N   UNL     1      40.062 -15.428   3.945  1.00  0.00    -0.334 N 
HETATM   29  H   UNL     1      39.248 -15.857   4.370  1.00  0.00     0.168 HD
BRANCH  28  30
HETATM   30  C   UNL     1      41.241 -16.063   4.413  1.00  0.00     0.051 A 
HETATM   31  C   UNL     1      42.420 -15.403   4.764  1.00  0.00     0.145 A 
HETATM   32  N   UNL     1      43.550 -16.018   5.209  1.00  0.00    -0.271 NA
HETATM   33  C   UNL     1      43.499 -17.358   5.339  1.00  0.00     0.116 A 
HETATM   34  C   UNL     1      42.370 -18.108   5.069  1.00  0.00     0.021 A 
HETATM   35  C   UNL     1      41.228 -17.448   4.616  1.00  0.00     0.032 A 
ENDBRANCH  28  30
ENDBRANCH   7  28
BRANCH  13  36
HETATM   36  O   UNL     1      40.445 -10.156  -0.464  1.00  0.00    -0.395 OA
HETATM   37  H   UNL     1      39.921  -9.377  -0.726  1.00  0.00     0.210 HD
ENDBRANCH  13  36
TORSDOF 10
ENDMDL
MODEL 10
REMARK VINA RESULT:      -6.8      3.275      7.003
REMARK  10 active torsions:
REMARK  status: ('A' for Active; 'I' for Inactive)
REMARK    1  A    between atoms: C_3  and  C_4 
REMARK    2  A    between atoms: C_4  and  C_5 
REMARK       I    between atoms: C_5  and  N_6 
REMARK    3  A    between atoms: N_6  and  C_7 
REMARK    4  A    between atoms: C_7  and  C_8 
REMARK    5  A    between atoms: C_8  and  O_9 
REMARK    6  A    between atoms: C_15  and  N_16 
REMARK    7  A    between atoms: N_16  and  C_17 
REMARK    8  A    between atoms: C_26  and  C_27 
REMARK    9  A    between atoms: C_27  and  O_28 
REMARK   10  A    between atoms: C_30  and  O_31 
ROOT
HETATM    1  C   UNL     1      40.121 -17.027   5.491  1.00  0.00     0.016 C 
HETATM    2  C   UNL     1      40.968 -16.618   4.243  1.00  0.00    -0.030 C 
HETATM    3  C   UNL     1      41.635 -15.191   4.485  1.00  0.00     0.056 C 
HETATM    4  C   UNL     1      42.882 -15.319   5.331  1.00  0.00     0.056 C 
HETATM    5  C   UNL     1      43.460 -16.521   5.677  1.00  0.00     0.012 C 
HETATM    6  S   UNL     1      44.821 -16.263   6.659  1.00  0.00    -0.055 SA
HETATM    7  C   UNL     1      44.716 -14.571   6.323  1.00  0.00     0.172 C 
HETATM    8  N   UNL     1      43.617 -14.204   5.693  1.00  0.00    -0.227 NA
HETATM    9  C   UNL     1      43.004 -17.867   5.242  1.00  0.00     0.055 C 
HETATM   10  C   UNL     1      42.066 -17.741   4.008  1.00  0.00     0.012 C 
HETATM   11  C   UNL     1      42.802 -17.708   2.592  1.00  0.00     0.008 C 
HETATM   12  C   UNL     1      43.147 -19.185   2.239  1.00  0.00     0.020 C 
HETATM   13  C   UNL     1      41.845 -17.180   1.476  1.00  0.00     0.128 C 
HETATM   14  C   UNL     1      40.380 -17.387   1.828  1.00  0.00     0.033 C 
HETATM   15  C   UNL     1      39.975 -16.550   3.040  1.00  0.00     0.013 C 
ENDROOT
BRANCH   3  16
HETATM   16  C   UNL     1      40.652 -14.172   5.089  1.00  0.00     0.114 C 
BRANCH  16  17
HETATM   17  C   UNL     1      40.250 -13.089   4.111  1.00  0.00     0.218 C 
HETATM   18  N   UNL     1      40.907 -13.122   2.906  1.00  0.00    -0.359 N 
HETATM   19  H   UNL     1      41.231 -14.039   2.586  1.00  0.00     0.162 HD
HETATM   20  O   UNL     1      39.434 -12.222   4.418  1.00  0.00    -0.274 OA
BRANCH  18  21
HETATM   21  C   UNL     1      40.652 -12.113   1.894  1.00  0.00     0.148 C 
BRANCH  21  22
HETATM   22  C   UNL     1      40.418 -12.730   0.513  1.00  0.00     0.186 C 
BRANCH  22  23
HETATM   23  O   UNL     1      39.782 -14.009   0.582  1.00  0.00    -0.394 OA
HETATM   24  C   UNL     1      38.376 -13.932   0.384  1.00  0.00     0.201 C 
ENDBRANCH  22  23
ENDBRANCH  21  22
ENDBRANCH  18  21
ENDBRANCH  16  17
ENDBRANCH   3  16
BRANCH  11  25
HETATM   25  C   UNL     1      44.127 -16.899   2.524  1.00  0.00     0.176 C 
BRANCH  25  26
HETATM   26  O   UNL     1      44.723 -16.933   1.231  1.00  0.00    -0.400 OA
HETATM   27  H   UNL     1      44.267 -16.254   0.703  1.00  0.00     0.209 HD
ENDBRANCH  25  26
ENDBRANCH  11  25
BRANCH   7  28
HETATM   28  N   UNL     1      45.747 -13.767   6.685  1.00  0.00    -0.334 N 
HETATM   29  H   UNL     1      46.218 -13.335   5.898  1.00  0.00     0.168 HD
BRANCH  28  30
HETATM   30  C   UNL     1      45.647 -12.841   7.754  1.00  0.00     0.051 A 
HETATM   31  C   UNL     1      46.559 -11.815   8.013  1.00  0.00     0.145 A 
HETATM   32  N   UNL     1      46.460 -10.932   9.043  1.00  0.00    -0.271 NA
HETATM   33  C   UNL     1      45.385 -11.054   9.845  1.00  0.00     0.116 A 
HETATM   34  C   UNL     1      44.394 -11.999   9.654  1.00  0.00     0.021 A 
HETATM   35  C   UNL     1      44.523 -12.889   8.588  1.00  0.00     0.032 A 
ENDBRANCH  28  30
ENDBRANCH   7  28
BRANCH  13  36
HETATM   36  O   UNL     1      42.062 -15.790   1.234  1.00  0.00    -0.395 OA
HETATM   37  H   UNL     1      42.023 -15.323   2.089  1.00  0.00     0.210 HD
ENDBRANCH  13  36
TORSDOF 10
ENDMDL
