MODEL 1
REMARK VINA RESULT:      -9.4      0.000      0.000
REMARK  5 active torsions:
REMARK  status: ('A' for Active; 'I' for Inactive)
REMARK    1  A    between atoms: C_6  and  S_7 
REMARK    2  A    between atoms: S_7  and  C_8 
REMARK    3  A    between atoms: C_8  and  C_9 
REMARK       I    between atoms: C_9  and  N_10 
REMARK    4  A    between atoms: N_10  and  C_11 
REMARK    5  A    between atoms: N_22  and  C_23 
ROOT
HETATM    1  C   UNL     1      44.958 -22.075   4.761  1.00  0.00     0.001 A 
HETATM    2  C   UNL     1      44.796 -20.728   5.084  1.00  0.00     0.019 A 
HETATM    3  C   UNL     1      44.317 -19.835   4.117  1.00  0.00     0.061 A 
HETATM    4  C   UNL     1      44.007 -20.271   2.836  1.00  0.00     0.075 A 
HETATM    5  N   UNL     1      43.595 -19.394   1.832  1.00  0.00    -0.223 NA
HETATM    6  C   UNL     1      43.384 -18.152   2.136  1.00  0.00     0.177 A 
HETATM    7  N   UNL     1      43.551 -17.616   3.415  1.00  0.00    -0.256 N 
HETATM    8  C   UNL     1      44.086 -18.414   4.437  1.00  0.00     0.267 A 
HETATM    9  O   UNL     1      44.333 -18.043   5.583  1.00  0.00    -0.267 OA
HETATM   10  C   UNL     1      44.158 -21.626   2.526  1.00  0.00     0.032 A 
HETATM   11  C   UNL     1      44.633 -22.526   3.483  1.00  0.00     0.002 A 
ENDROOT
BRANCH   6  12
HETATM   12  S   UNL     1      43.019 -17.080   0.786  1.00  0.00    -0.082 SA
BRANCH  12  13
HETATM   13  C   UNL     1      41.203 -17.037   0.811  1.00  0.00     0.185 C 
BRANCH  13  14
HETATM   14  C   UNL     1      40.656 -15.632   0.580  1.00  0.00     0.231 C 
HETATM   15  N   UNL     1      39.562 -15.326   1.367  1.00  0.00    -0.326 N 
HETATM   16  H   UNL     1      39.195 -16.098   1.922  1.00  0.00     0.169 HD
HETATM   17  O   UNL     1      41.208 -14.869  -0.208  1.00  0.00    -0.272 OA
BRANCH  15  18
HETATM   18  C   UNL     1      38.874 -14.101   1.471  1.00  0.00     0.037 A 
HETATM   19  C   UNL     1      37.669 -13.831   0.811  1.00  0.00     0.061 A 
HETATM   20  C   UNL     1      37.135 -12.573   0.977  1.00  0.00     0.065 A 
HETATM   21  C   UNL     1      37.741 -11.598   1.765  1.00  0.00     0.063 A 
HETATM   22  N   UNL     1      35.976 -12.023   0.437  1.00  0.00    -0.306 N 
HETATM   23  N   UNL     1      36.958 -10.452   1.713  1.00  0.00    -0.307 N 
HETATM   24  C   UNL     1      38.914 -11.830   2.436  1.00  0.00     0.034 A 
HETATM   25  C   UNL     1      35.854 -10.700   0.885  1.00  0.00     0.325 A 
HETATM   26  H   UNL     1      37.125  -9.572   2.172  1.00  0.00     0.170 HD
HETATM   27  O   UNL     1      34.964  -9.915   0.609  1.00  0.00    -0.247 OA
HETATM   28  C   UNL     1      39.481 -13.101   2.278  1.00  0.00     0.032 A 
HETATM   29  H   UNL     1      35.319 -12.474  -0.178  1.00  0.00     0.170 HD
ENDBRANCH  15  18
ENDBRANCH  13  14
ENDBRANCH  12  13
ENDBRANCH   6  12
BRANCH   7  30
HETATM   30  C   UNL     1      43.142 -16.284   3.771  1.00  0.00     0.046 A 
HETATM   31  C   UNL     1      41.912 -16.059   4.413  1.00  0.00     0.057 A 
HETATM   32  C   UNL     1      41.495 -14.761   4.717  1.00  0.00     0.074 A 
HETATM   33 CL   UNL     1      39.989 -14.520   5.515  1.00  0.00    -0.081 Cl
HETATM   34  C   UNL     1      42.295 -13.677   4.373  1.00  0.00     0.138 A 
HETATM   35  F   UNL     1      41.911 -12.422   4.650  1.00  0.00    -0.204 F 
HETATM   36  C   UNL     1      43.509 -13.874   3.723  1.00  0.00     0.046 A 
HETATM   37  C   UNL     1      43.928 -15.173   3.419  1.00  0.00     0.033 A 
ENDBRANCH   7  30
TORSDOF 5
ENDMDL
MODEL 2
REMARK VINA RESULT:      -9.2      3.063      3.640
REMARK  5 active torsions:
REMARK  status: ('A' for Active; 'I' for Inactive)
REMARK    1  A    between atoms: C_6  and  S_7 
REMARK    2  A    between atoms: S_7  and  C_8 
REMARK    3  A    between atoms: C_8  and  C_9 
REMARK       I    between atoms: C_9  and  N_10 
REMARK    4  A    between atoms: N_10  and  C_11 
REMARK    5  A    between atoms: N_22  and  C_23 
ROOT
HETATM    1  C   UNL     1      44.909 -22.184   5.087  1.00  0.00     0.001 A 
HETATM    2  C   UNL     1      44.711 -20.827   5.345  1.00  0.00     0.019 A 
HETATM    3  C   UNL     1      44.341 -19.969   4.302  1.00  0.00     0.061 A 
HETATM    4  C   UNL     1      44.175 -20.450   3.009  1.00  0.00     0.075 A 
HETATM    5  N   UNL     1      43.876 -19.608   1.937  1.00  0.00    -0.223 NA
HETATM    6  C   UNL     1      43.631 -18.358   2.174  1.00  0.00     0.177 A 
HETATM    7  N   UNL     1      43.654 -17.778   3.445  1.00  0.00    -0.256 N 
HETATM    8  C   UNL     1      44.073 -18.540   4.546  1.00  0.00     0.267 A 
HETATM    9  O   UNL     1      44.191 -18.129   5.699  1.00  0.00    -0.267 OA
HETATM   10  C   UNL     1      44.362 -21.813   2.763  1.00  0.00     0.032 A 
HETATM   11  C   UNL     1      44.729 -22.678   3.797  1.00  0.00     0.002 A 
ENDROOT
BRANCH   6  12
HETATM   12  S   UNL     1      43.416 -17.333   0.756  1.00  0.00    -0.082 SA
BRANCH  12  13
HETATM   13  C   UNL     1      41.625 -17.027   0.772  1.00  0.00     0.185 C 
BRANCH  13  14
HETATM   14  C   UNL     1      41.266 -15.676   0.163  1.00  0.00     0.231 C 
HETATM   15  N   UNL     1      41.379 -15.640  -1.214  1.00  0.00    -0.326 N 
HETATM   16  H   UNL     1      41.782 -16.475  -1.639  1.00  0.00     0.169 HD
HETATM   17  O   UNL     1      40.868 -14.756   0.873  1.00  0.00    -0.272 OA
BRANCH  15  18
HETATM   18  C   UNL     1      41.044 -14.592  -2.092  1.00  0.00     0.037 A 
HETATM   19  C   UNL     1      41.992 -13.778  -2.725  1.00  0.00     0.061 A 
HETATM   20  C   UNL     1      41.511 -12.766  -3.526  1.00  0.00     0.065 A 
HETATM   21  C   UNL     1      40.150 -12.547  -3.721  1.00  0.00     0.063 A 
HETATM   22  N   UNL     1      42.206 -11.805  -4.254  1.00  0.00    -0.306 N 
HETATM   23  N   UNL     1      40.006 -11.454  -4.568  1.00  0.00    -0.307 N 
HETATM   24  C   UNL     1      39.194 -13.330  -3.129  1.00  0.00     0.034 A 
HETATM   25  C   UNL     1      41.281 -10.978  -4.907  1.00  0.00     0.325 A 
HETATM   26  H   UNL     1      39.150 -11.042  -4.899  1.00  0.00     0.170 HD
HETATM   27  O   UNL     1      41.532 -10.028  -5.627  1.00  0.00    -0.247 OA
HETATM   28  C   UNL     1      39.657 -14.363  -2.304  1.00  0.00     0.032 A 
HETATM   29  H   UNL     1      43.205 -11.696  -4.317  1.00  0.00     0.170 HD
ENDBRANCH  15  18
ENDBRANCH  13  14
ENDBRANCH  12  13
ENDBRANCH   6  12
BRANCH   7  30
HETATM   30  C   UNL     1      43.206 -16.438   3.709  1.00  0.00     0.046 A 
HETATM   31  C   UNL     1      41.949 -16.204   4.292  1.00  0.00     0.057 A 
HETATM   32  C   UNL     1      41.496 -14.900   4.504  1.00  0.00     0.074 A 
HETATM   33 CL   UNL     1      39.956 -14.646   5.233  1.00  0.00    -0.081 Cl
HETATM   34  C   UNL     1      42.286 -13.819   4.128  1.00  0.00     0.138 A 
HETATM   35  F   UNL     1      41.868 -12.559   4.318  1.00  0.00    -0.204 F 
HETATM   36  C   UNL     1      43.527 -14.027   3.534  1.00  0.00     0.046 A 
HETATM   37  C   UNL     1      43.983 -15.331   3.321  1.00  0.00     0.033 A 
ENDBRANCH   7  30
TORSDOF 5
ENDMDL
MODEL 3
REMARK VINA RESULT:      -8.9      3.975      4.469
REMARK  5 active torsions:
REMARK  status: ('A' for Active; 'I' for Inactive)
REMARK    1  A    between atoms: C_6  and  S_7 
REMARK    2  A    between atoms: S_7  and  C_8 
REMARK    3  A    between atoms: C_8  and  C_9 
REMARK       I    between atoms: C_9  and  N_10 
REMARK    4  A    between atoms: N_10  and  C_11 
REMARK    5  A    between atoms: N_22  and  C_23 
ROOT
HETATM    1  C   UNL     1      45.088 -20.513   3.790  1.00  0.00     0.001 A 
HETATM    2  C   UNL     1      44.676 -19.316   4.374  1.00  0.00     0.019 A 
HETATM    3  C   UNL     1      43.662 -18.561   3.770  1.00  0.00     0.061 A 
HETATM    4  C   UNL     1      43.066 -18.986   2.590  1.00  0.00     0.075 A 
HETATM    5  N   UNL     1      42.103 -18.222   1.928  1.00  0.00    -0.223 NA
HETATM    6  C   UNL     1      41.671 -17.138   2.491  1.00  0.00     0.177 A 
HETATM    7  N   UNL     1      42.110 -16.665   3.730  1.00  0.00    -0.256 N 
HETATM    8  C   UNL     1      43.166 -17.317   4.386  1.00  0.00     0.267 A 
HETATM    9  O   UNL     1      43.678 -16.965   5.447  1.00  0.00    -0.267 OA
HETATM   10  C   UNL     1      43.474 -20.195   2.020  1.00  0.00     0.032 A 
HETATM   11  C   UNL     1      44.483 -20.956   2.615  1.00  0.00     0.002 A 
ENDROOT
BRANCH   6  12
HETATM   12  S   UNL     1      40.576 -16.151   1.524  1.00  0.00    -0.082 SA
BRANCH  12  13
HETATM   13  C   UNL     1      41.429 -16.092  -0.079  1.00  0.00     0.185 C 
BRANCH  13  14
HETATM   14  C   UNL     1      41.108 -14.820  -0.856  1.00  0.00     0.231 C 
HETATM   15  N   UNL     1      42.205 -14.007  -1.068  1.00  0.00    -0.326 N 
HETATM   16  H   UNL     1      43.062 -14.300  -0.599  1.00  0.00     0.169 HD
HETATM   17  O   UNL     1      39.972 -14.614  -1.275  1.00  0.00    -0.272 OA
BRANCH  15  18
HETATM   18  C   UNL     1      42.280 -12.816  -1.817  1.00  0.00     0.037 A 
HETATM   19  C   UNL     1      42.278 -12.780  -3.217  1.00  0.00     0.061 A 
HETATM   20  C   UNL     1      42.397 -11.543  -3.810  1.00  0.00     0.065 A 
HETATM   21  C   UNL     1      42.508 -10.366  -3.073  1.00  0.00     0.063 A 
HETATM   22  N   UNL     1      42.442 -11.207  -5.159  1.00  0.00    -0.306 N 
HETATM   23  N   UNL     1      42.620  -9.308  -3.967  1.00  0.00    -0.307 N 
HETATM   24  C   UNL     1      42.502 -10.361  -1.703  1.00  0.00     0.034 A 
HETATM   25  C   UNL     1      42.584  -9.817  -5.273  1.00  0.00     0.325 A 
HETATM   26  H   UNL     1      42.718  -8.330  -3.751  1.00  0.00     0.170 HD
HETATM   27  O   UNL     1      42.663  -9.173  -6.304  1.00  0.00    -0.247 OA
HETATM   28  C   UNL     1      42.388 -11.608  -1.075  1.00  0.00     0.032 A 
HETATM   29  H   UNL     1      42.388 -11.835  -5.944  1.00  0.00     0.170 HD
ENDBRANCH  15  18
ENDBRANCH  13  14
ENDBRANCH  12  13
ENDBRANCH   6  12
BRANCH   7  30
HETATM   30  C   UNL     1      41.492 -15.565   4.419  1.00  0.00     0.046 A 
HETATM   31  C   UNL     1      41.874 -14.241   4.141  1.00  0.00     0.057 A 
HETATM   32  C   UNL     1      41.307 -13.175   4.844  1.00  0.00     0.074 A 
HETATM   33 CL   UNL     1      41.786 -11.564   4.471  1.00  0.00    -0.081 Cl
HETATM   34  C   UNL     1      40.363 -13.421   5.836  1.00  0.00     0.138 A 
HETATM   35  F   UNL     1      39.810 -12.413   6.526  1.00  0.00    -0.204 F 
HETATM   36  C   UNL     1      39.982 -14.723   6.138  1.00  0.00     0.046 A 
HETATM   37  C   UNL     1      40.548 -15.792   5.436  1.00  0.00     0.033 A 
ENDBRANCH   7  30
TORSDOF 5
ENDMDL
MODEL 4
REMARK VINA RESULT:      -8.8      3.880      6.554
REMARK  5 active torsions:
REMARK  status: ('A' for Active; 'I' for Inactive)
REMARK    1  A    between atoms: C_6  and  S_7 
REMARK    2  A    between atoms: S_7  and  C_8 
REMARK    3  A    between atoms: C_8  and  C_9 
REMARK       I    between atoms: C_9  and  N_10 
REMARK    4  A    between atoms: N_10  and  C_11 
REMARK    5  A    between atoms: N_22  and  C_23 
ROOT
HETATM    1  C   UNL     1      44.159 -19.307   4.208  1.00  0.00     0.001 A 
HETATM    2  C   UNL     1      43.991 -18.761   2.937  1.00  0.00     0.019 A 
HETATM    3  C   UNL     1      42.914 -17.900   2.688  1.00  0.00     0.061 A 
HETATM    4  C   UNL     1      42.006 -17.587   3.691  1.00  0.00     0.075 A 
HETATM    5  N   UNL     1      40.885 -16.789   3.456  1.00  0.00    -0.223 NA
HETATM    6  C   UNL     1      40.751 -16.228   2.296  1.00  0.00     0.177 A 
HETATM    7  N   UNL     1      41.656 -16.373   1.241  1.00  0.00    -0.256 N 
HETATM    8  C   UNL     1      42.733 -17.263   1.370  1.00  0.00     0.267 A 
HETATM    9  O   UNL     1      43.560 -17.519   0.497  1.00  0.00    -0.267 OA
HETATM   10  C   UNL     1      42.191 -18.128   4.967  1.00  0.00     0.032 A 
HETATM   11  C   UNL     1      43.263 -18.987   5.226  1.00  0.00     0.002 A 
ENDROOT
BRANCH   6  12
HETATM   12  S   UNL     1      39.237 -15.366   2.028  1.00  0.00    -0.082 SA
BRANCH  12  13
HETATM   13  C   UNL     1      39.597 -13.730   2.731  1.00  0.00     0.185 C 
BRANCH  13  14
HETATM   14  C   UNL     1      40.216 -13.823   4.121  1.00  0.00     0.231 C 
HETATM   15  N   UNL     1      41.574 -13.569   4.143  1.00  0.00    -0.326 N 
HETATM   16  H   UNL     1      42.010 -13.452   3.228  1.00  0.00     0.169 HD
HETATM   17  O   UNL     1      39.515 -14.057   5.103  1.00  0.00    -0.272 OA
BRANCH  15  18
HETATM   18  C   UNL     1      42.431 -13.484   5.258  1.00  0.00     0.037 A 
HETATM   19  C   UNL     1      42.301 -12.517   6.262  1.00  0.00     0.061 A 
HETATM   20  C   UNL     1      43.238 -12.534   7.271  1.00  0.00     0.065 A 
HETATM   21  C   UNL     1      44.273 -13.465   7.317  1.00  0.00     0.063 A 
HETATM   22  N   UNL     1      43.370 -11.697   8.374  1.00  0.00    -0.306 N 
HETATM   23  N   UNL     1      45.038 -13.203   8.446  1.00  0.00    -0.307 N 
HETATM   24  C   UNL     1      44.424 -14.434   6.359  1.00  0.00     0.034 A 
HETATM   25  C   UNL     1      44.489 -12.100   9.115  1.00  0.00     0.325 A 
HETATM   26  H   UNL     1      45.858 -13.695   8.761  1.00  0.00     0.170 HD
HETATM   27  O   UNL     1      44.908 -11.592  10.140  1.00  0.00    -0.247 OA
HETATM   28  C   UNL     1      43.486 -14.434   5.318  1.00  0.00     0.032 A 
HETATM   29  H   UNL     1      42.777 -10.921   8.622  1.00  0.00     0.170 HD
ENDBRANCH  15  18
ENDBRANCH  13  14
ENDBRANCH  12  13
ENDBRANCH   6  12
BRANCH   7  30
HETATM   30  C   UNL     1      41.585 -15.603   0.029  1.00  0.00     0.046 A 
HETATM   31  C   UNL     1      42.024 -14.268   0.001  1.00  0.00     0.057 A 
HETATM   32  C   UNL     1      41.910 -13.508  -1.165  1.00  0.00     0.074 A 
HETATM   33 CL   UNL     1      42.469 -11.879  -1.172  1.00  0.00    -0.081 Cl
HETATM   34  C   UNL     1      41.348 -14.067  -2.308  1.00  0.00     0.138 A 
HETATM   35  F   UNL     1      41.225 -13.353  -3.436  1.00  0.00    -0.204 F 
HETATM   36  C   UNL     1      40.893 -15.381  -2.298  1.00  0.00     0.046 A 
HETATM   37  C   UNL     1      41.006 -16.145  -1.132  1.00  0.00     0.033 A 
ENDBRANCH   7  30
TORSDOF 5
ENDMDL
MODEL 5
REMARK VINA RESULT:      -8.8      3.032      8.886
REMARK  5 active torsions:
REMARK  status: ('A' for Active; 'I' for Inactive)
REMARK    1  A    between atoms: C_6  and  S_7 
REMARK    2  A    between atoms: S_7  and  C_8 
REMARK    3  A    between atoms: C_8  and  C_9 
REMARK       I    between atoms: C_9  and  N_10 
REMARK    4  A    between atoms: N_10  and  C_11 
REMARK    5  A    between atoms: N_22  and  C_23 
ROOT
HETATM    1  C   UNL     1      38.072  -8.371   4.084  1.00  0.00     0.001 A 
HETATM    2  C   UNL     1      38.352  -9.560   4.758  1.00  0.00     0.019 A 
HETATM    3  C   UNL     1      39.239 -10.485   4.194  1.00  0.00     0.061 A 
HETATM    4  C   UNL     1      39.840 -10.238   2.966  1.00  0.00     0.075 A 
HETATM    5  N   UNL     1      40.674 -11.171   2.347  1.00  0.00    -0.223 NA
HETATM    6  C   UNL     1      40.988 -12.252   2.989  1.00  0.00     0.177 A 
HETATM    7  N   UNL     1      40.539 -12.561   4.276  1.00  0.00    -0.256 N 
HETATM    8  C   UNL     1      39.599 -11.728   4.901  1.00  0.00     0.267 A 
HETATM    9  O   UNL     1      39.087 -11.924   6.002  1.00  0.00    -0.267 OA
HETATM   10  C   UNL     1      39.565  -9.038   2.305  1.00  0.00     0.032 A 
HETATM   11  C   UNL     1      38.683  -8.107   2.860  1.00  0.00     0.002 A 
ENDROOT
BRANCH   6  12
HETATM   12  S   UNL     1      41.913 -13.446   2.081  1.00  0.00    -0.082 SA
BRANCH  12  13
HETATM   13  C   UNL     1      40.618 -14.594   1.527  1.00  0.00     0.185 C 
BRANCH  13  14
HETATM   14  C   UNL     1      40.937 -16.040   1.887  1.00  0.00     0.231 C 
HETATM   15  N   UNL     1      42.285 -16.282   2.073  1.00  0.00    -0.326 N 
HETATM   16  H   UNL     1      42.902 -15.502   1.850  1.00  0.00     0.169 HD
HETATM   17  O   UNL     1      40.034 -16.861   2.036  1.00  0.00    -0.272 OA
BRANCH  15  18
HETATM   18  C   UNL     1      42.910 -17.472   2.496  1.00  0.00     0.037 A 
HETATM   19  C   UNL     1      42.945 -18.643   1.729  1.00  0.00     0.061 A 
HETATM   20  C   UNL     1      43.558 -19.740   2.291  1.00  0.00     0.065 A 
HETATM   21  C   UNL     1      44.133 -19.709   3.560  1.00  0.00     0.063 A 
HETATM   22  N   UNL     1      43.725 -21.023   1.780  1.00  0.00    -0.306 N 
HETATM   23  N   UNL     1      44.653 -20.969   3.828  1.00  0.00    -0.307 N 
HETATM   24  C   UNL     1      44.129 -18.578   4.334  1.00  0.00     0.034 A 
HETATM   25  C   UNL     1      44.404 -21.802   2.727  1.00  0.00     0.325 A 
HETATM   26  H   UNL     1      45.129 -21.273   4.661  1.00  0.00     0.170 HD
HETATM   27  O   UNL     1      44.716 -22.974   2.620  1.00  0.00    -0.247 OA
HETATM   28  C   UNL     1      43.505 -17.450   3.786  1.00  0.00     0.032 A 
HETATM   29  H   UNL     1      43.417 -21.364   0.884  1.00  0.00     0.170 HD
ENDBRANCH  15  18
ENDBRANCH  13  14
ENDBRANCH  12  13
ENDBRANCH   6  12
BRANCH   7  30
HETATM   30  C   UNL     1      41.039 -13.672   5.039  1.00  0.00     0.046 A 
HETATM   31  C   UNL     1      42.341 -13.649   5.569  1.00  0.00     0.057 A 
HETATM   32  C   UNL     1      42.842 -14.748   6.270  1.00  0.00     0.074 A 
HETATM   33 CL   UNL     1      44.436 -14.685   6.918  1.00  0.00    -0.081 Cl
HETATM   34  C   UNL     1      42.055 -15.882   6.440  1.00  0.00     0.138 A 
HETATM   35  F   UNL     1      42.518 -16.950   7.106  1.00  0.00    -0.204 F 
HETATM   36  C   UNL     1      40.769 -15.933   5.912  1.00  0.00     0.046 A 
HETATM   37  C   UNL     1      40.266 -14.833   5.209  1.00  0.00     0.033 A 
ENDBRANCH   7  30
TORSDOF 5
ENDMDL
MODEL 6
REMARK VINA RESULT:      -8.7      5.301      7.387
REMARK  5 active torsions:
REMARK  status: ('A' for Active; 'I' for Inactive)
REMARK    1  A    between atoms: C_6  and  S_7 
REMARK    2  A    between atoms: S_7  and  C_8 
REMARK    3  A    between atoms: C_8  and  C_9 
REMARK       I    between atoms: C_9  and  N_10 
REMARK    4  A    between atoms: N_10  and  C_11 
REMARK    5  A    between atoms: N_22  and  C_23 
ROOT
HETATM    1  C   UNL     1      43.005 -19.514   1.782  1.00  0.00     0.001 A 
HETATM    2  C   UNL     1      42.348 -18.325   2.099  1.00  0.00     0.019 A 
HETATM    3  C   UNL     1      42.693 -17.630   3.265  1.00  0.00     0.061 A 
HETATM    4  C   UNL     1      43.677 -18.114   4.117  1.00  0.00     0.075 A 
HETATM    5  N   UNL     1      43.994 -17.482   5.321  1.00  0.00    -0.223 NA
HETATM    6  C   UNL     1      43.433 -16.346   5.596  1.00  0.00     0.177 A 
HETATM    7  N   UNL     1      42.513 -15.701   4.766  1.00  0.00    -0.256 N 
HETATM    8  C   UNL     1      42.056 -16.344   3.606  1.00  0.00     0.267 A 
HETATM    9  O   UNL     1      41.209 -15.907   2.829  1.00  0.00    -0.267 OA
HETATM   10  C   UNL     1      44.340 -19.298   3.785  1.00  0.00     0.032 A 
HETATM   11  C   UNL     1      44.005 -19.998   2.622  1.00  0.00     0.002 A 
ENDROOT
BRANCH   6  12
HETATM   12  S   UNL     1      43.765 -15.692   7.199  1.00  0.00    -0.082 SA
BRANCH  12  13
HETATM   13  C   UNL     1      45.231 -14.663   6.896  1.00  0.00     0.185 C 
BRANCH  13  14
HETATM   14  C   UNL     1      45.146 -13.315   7.604  1.00  0.00     0.231 C 
HETATM   15  N   UNL     1      43.928 -13.084   8.214  1.00  0.00    -0.326 N 
HETATM   16  H   UNL     1      43.210 -13.786   8.033  1.00  0.00     0.169 HD
HETATM   17  O   UNL     1      46.119 -12.566   7.640  1.00  0.00    -0.272 OA
BRANCH  15  18
HETATM   18  C   UNL     1      43.545 -11.993   9.019  1.00  0.00     0.037 A 
HETATM   19  C   UNL     1      43.933 -11.844  10.356  1.00  0.00     0.061 A 
HETATM   20  C   UNL     1      43.448 -10.745  11.028  1.00  0.00     0.065 A 
HETATM   21  C   UNL     1      42.614  -9.806  10.426  1.00  0.00     0.063 A 
HETATM   22  N   UNL     1      43.646 -10.354  12.349  1.00  0.00    -0.306 N 
HETATM   23  N   UNL     1      42.301  -8.838  11.373  1.00  0.00    -0.307 N 
HETATM   24  C   UNL     1      42.224  -9.912   9.117  1.00  0.00     0.034 A 
HETATM   25  C   UNL     1      42.936  -9.168  12.579  1.00  0.00     0.325 A 
HETATM   26  H   UNL     1      41.718  -8.027  11.252  1.00  0.00     0.170 HD
HETATM   27  O   UNL     1      42.876  -8.543  13.623  1.00  0.00    -0.247 OA
HETATM   28  C   UNL     1      42.699 -11.025   8.412  1.00  0.00     0.032 A 
HETATM   29  H   UNL     1      44.199 -10.826  13.045  1.00  0.00     0.170 HD
ENDBRANCH  15  18
ENDBRANCH  13  14
ENDBRANCH  12  13
ENDBRANCH   6  12
BRANCH   7  30
HETATM   30  C   UNL     1      42.040 -14.364   5.002  1.00  0.00     0.046 A 
HETATM   31  C   UNL     1      40.974 -14.126   5.886  1.00  0.00     0.057 A 
HETATM   32  C   UNL     1      40.485 -12.831   6.078  1.00  0.00     0.074 A 
HETATM   33 CL   UNL     1      39.186 -12.571   7.178  1.00  0.00    -0.081 Cl
HETATM   34  C   UNL     1      41.048 -11.766   5.383  1.00  0.00     0.138 A 
HETATM   35  F   UNL     1      40.591 -10.516   5.549  1.00  0.00    -0.204 F 
HETATM   36  C   UNL     1      42.094 -11.980   4.492  1.00  0.00     0.046 A 
HETATM   37  C   UNL     1      42.585 -13.275   4.298  1.00  0.00     0.033 A 
ENDBRANCH   7  30
TORSDOF 5
ENDMDL
MODEL 7
REMARK VINA RESULT:      -8.7      3.549      8.943
REMARK  5 active torsions:
REMARK  status: ('A' for Active; 'I' for Inactive)
REMARK    1  A    between atoms: C_6  and  S_7 
REMARK    2  A    between atoms: S_7  and  C_8 
REMARK    3  A    between atoms: C_8  and  C_9 
REMARK       I    between atoms: C_9  and  N_10 
REMARK    4  A    between atoms: N_10  and  C_11 
REMARK    5  A    between atoms: N_22  and  C_23 
ROOT
HETATM    1  C   UNL     1      42.700  -9.570  -3.649  1.00  0.00     0.001 A 
HETATM    2  C   UNL     1      42.484  -9.628  -2.273  1.00  0.00     0.019 A 
HETATM    3  C   UNL     1      42.000 -10.808  -1.694  1.00  0.00     0.061 A 
HETATM    4  C   UNL     1      41.725 -11.923  -2.475  1.00  0.00     0.075 A 
HETATM    5  N   UNL     1      41.177 -13.089  -1.938  1.00  0.00    -0.223 NA
HETATM    6  C   UNL     1      41.028 -13.175  -0.654  1.00  0.00     0.177 A 
HETATM    7  N   UNL     1      41.374 -12.165   0.248  1.00  0.00    -0.256 N 
HETATM    8  C   UNL     1      41.808 -10.922  -0.237  1.00  0.00     0.267 A 
HETATM    9  O   UNL     1      42.085  -9.941   0.451  1.00  0.00    -0.267 OA
HETATM   10  C   UNL     1      41.959 -11.861  -3.852  1.00  0.00     0.032 A 
HETATM   11  C   UNL     1      42.442 -10.689  -4.439  1.00  0.00     0.002 A 
ENDROOT
BRANCH   6  12
HETATM   12  S   UNL     1      40.188 -14.610  -0.070  1.00  0.00    -0.082 SA
BRANCH  12  13
HETATM   13  C   UNL     1      41.414 -15.918  -0.365  1.00  0.00     0.185 C 
BRANCH  13  14
HETATM   14  C   UNL     1      41.563 -16.849   0.834  1.00  0.00     0.231 C 
HETATM   15  N   UNL     1      42.867 -17.239   1.075  1.00  0.00    -0.326 N 
HETATM   16  H   UNL     1      43.546 -16.945   0.373  1.00  0.00     0.169 HD
HETATM   17  O   UNL     1      40.587 -17.150   1.516  1.00  0.00    -0.272 OA
BRANCH  15  18
HETATM   18  C   UNL     1      43.365 -18.013   2.141  1.00  0.00     0.037 A 
HETATM   19  C   UNL     1      43.752 -19.353   2.010  1.00  0.00     0.061 A 
HETATM   20  C   UNL     1      44.182 -19.993   3.151  1.00  0.00     0.065 A 
HETATM   21  C   UNL     1      44.248 -19.356   4.388  1.00  0.00     0.063 A 
HETATM   22  N   UNL     1      44.604 -21.307   3.326  1.00  0.00    -0.306 N 
HETATM   23  N   UNL     1      44.710 -20.276   5.322  1.00  0.00    -0.307 N 
HETATM   24  C   UNL     1      43.890 -18.044   4.552  1.00  0.00     0.034 A 
HETATM   25  C   UNL     1      44.934 -21.500   4.674  1.00  0.00     0.325 A 
HETATM   26  H   UNL     1      44.865 -20.128   6.305  1.00  0.00     0.170 HD
HETATM   27  O   UNL     1      45.335 -22.528   5.189  1.00  0.00    -0.247 OA
HETATM   28  C   UNL     1      43.442 -17.372   3.407  1.00  0.00     0.032 A 
HETATM   29  H   UNL     1      44.669 -22.023   2.620  1.00  0.00     0.170 HD
ENDBRANCH  15  18
ENDBRANCH  13  14
ENDBRANCH  12  13
ENDBRANCH   6  12
BRANCH   7  30
HETATM   30  C   UNL     1      41.369 -12.346   1.674  1.00  0.00     0.046 A 
HETATM   31  C   UNL     1      42.460 -12.950   2.323  1.00  0.00     0.057 A 
HETATM   32  C   UNL     1      42.434 -13.168   3.703  1.00  0.00     0.074 A 
HETATM   33 CL   UNL     1      43.792 -13.897   4.471  1.00  0.00    -0.081 Cl
HETATM   34  C   UNL     1      41.318 -12.796   4.444  1.00  0.00     0.138 A 
HETATM   35  F   UNL     1      41.270 -13.001   5.769  1.00  0.00    -0.204 F 
HETATM   36  C   UNL     1      40.221 -12.211   3.821  1.00  0.00     0.046 A 
HETATM   37  C   UNL     1      40.244 -11.992   2.440  1.00  0.00     0.033 A 
ENDBRANCH   7  30
TORSDOF 5
ENDMDL
MODEL 8
REMARK VINA RESULT:      -8.6      5.866      8.829
REMARK  5 active torsions:
REMARK  status: ('A' for Active; 'I' for Inactive)
REMARK    1  A    between atoms: C_6  and  S_7 
REMARK    2  A    between atoms: S_7  and  C_8 
REMARK    3  A    between atoms: C_8  and  C_9 
REMARK       I    between atoms: C_9  and  N_10 
REMARK    4  A    between atoms: N_10  and  C_11 
REMARK    5  A    between atoms: N_22  and  C_23 
ROOT
HETATM    1  C   UNL     1      39.439 -13.108   2.997  1.00  0.00     0.001 A 
HETATM    2  C   UNL     1      40.128 -14.317   2.907  1.00  0.00     0.019 A 
HETATM    3  C   UNL     1      41.080 -14.648   3.879  1.00  0.00     0.061 A 
HETATM    4  C   UNL     1      41.355 -13.782   4.931  1.00  0.00     0.075 A 
HETATM    5  N   UNL     1      42.346 -14.052   5.875  1.00  0.00    -0.223 NA
HETATM    6  C   UNL     1      42.951 -15.197   5.836  1.00  0.00     0.177 A 
HETATM    7  N   UNL     1      42.683 -16.197   4.897  1.00  0.00    -0.256 N 
HETATM    8  C   UNL     1      41.791 -15.939   3.846  1.00  0.00     0.267 A 
HETATM    9  O   UNL     1      41.519 -16.713   2.930  1.00  0.00    -0.267 OA
HETATM   10  C   UNL     1      40.648 -12.579   5.021  1.00  0.00     0.032 A 
HETATM   11  C   UNL     1      39.695 -12.241   4.057  1.00  0.00     0.002 A 
ENDROOT
BRANCH   6  12
HETATM   12  S   UNL     1      44.293 -15.398   6.960  1.00  0.00    -0.082 SA
BRANCH  12  13
HETATM   13  C   UNL     1      45.148 -13.801   6.826  1.00  0.00     0.185 C 
BRANCH  13  14
HETATM   14  C   UNL     1      45.006 -12.963   8.092  1.00  0.00     0.231 C 
HETATM   15  N   UNL     1      43.790 -12.313   8.194  1.00  0.00    -0.326 N 
HETATM   16  H   UNL     1      43.186 -12.389   7.377  1.00  0.00     0.169 HD
HETATM   17  O   UNL     1      45.901 -12.944   8.933  1.00  0.00    -0.272 OA
BRANCH  15  18
HETATM   18  C   UNL     1      43.300 -11.539   9.264  1.00  0.00     0.037 A 
HETATM   19  C   UNL     1      43.589 -11.803  10.608  1.00  0.00     0.061 A 
HETATM   20  C   UNL     1      43.005 -10.982  11.546  1.00  0.00     0.065 A 
HETATM   21  C   UNL     1      42.167  -9.925  11.199  1.00  0.00     0.063 A 
HETATM   22  N   UNL     1      43.094 -11.016  12.934  1.00  0.00    -0.306 N 
HETATM   23  N   UNL     1      41.742  -9.309  12.370  1.00  0.00    -0.307 N 
HETATM   24  C   UNL     1      41.871  -9.628   9.894  1.00  0.00     0.034 A 
HETATM   25  C   UNL     1      42.310  -9.980  13.462  1.00  0.00     0.325 A 
HETATM   26  H   UNL     1      41.128  -8.517  12.459  1.00  0.00     0.170 HD
HETATM   27  O   UNL     1      42.149  -9.714  14.640  1.00  0.00    -0.247 OA
HETATM   28  C   UNL     1      42.448 -10.453   8.920  1.00  0.00     0.032 A 
HETATM   29  H   UNL     1      43.622 -11.665  13.493  1.00  0.00     0.170 HD
ENDBRANCH  15  18
ENDBRANCH  13  14
ENDBRANCH  12  13
ENDBRANCH   6  12
BRANCH   7  30
HETATM   30  C   UNL     1      43.233 -17.523   4.979  1.00  0.00     0.046 A 
HETATM   31  C   UNL     1      43.114 -18.276   6.160  1.00  0.00     0.057 A 
HETATM   32  C   UNL     1      43.689 -19.546   6.254  1.00  0.00     0.074 A 
HETATM   33 CL   UNL     1      43.515 -20.449   7.710  1.00  0.00    -0.081 Cl
HETATM   34  C   UNL     1      44.395 -20.070   5.177  1.00  0.00     0.138 A 
HETATM   35  F   UNL     1      44.959 -21.285   5.248  1.00  0.00    -0.204 F 
HETATM   36  C   UNL     1      44.539 -19.336   4.004  1.00  0.00     0.046 A 
HETATM   37  C   UNL     1      43.964 -18.065   3.907  1.00  0.00     0.033 A 
ENDBRANCH   7  30
TORSDOF 5
ENDMDL
MODEL 9
REMARK VINA RESULT:      -8.6      4.440      9.606
REMARK  5 active torsions:
REMARK  status: ('A' for Active; 'I' for Inactive)
REMARK    1  A    between atoms: C_6  and  S_7 
REMARK    2  A    between atoms: S_7  and  C_8 
REMARK    3  A    between atoms: C_8  and  C_9 
REMARK       I    between atoms: C_9  and  N_10 
REMARK    4  A    between atoms: N_10  and  C_11 
REMARK    5  A    between atoms: N_22  and  C_23 
ROOT
HETATM    1  C   UNL     1      43.747  -8.677  -1.270  1.00  0.00     0.001 A 
HETATM    2  C   UNL     1      43.352  -9.804  -1.990  1.00  0.00     0.019 A 
HETATM    3  C   UNL     1      42.464 -10.721  -1.413  1.00  0.00     0.061 A 
HETATM    4  C   UNL     1      41.974 -10.525  -0.128  1.00  0.00     0.075 A 
HETATM    5  N   UNL     1      41.143 -11.454   0.500  1.00  0.00    -0.223 NA
HETATM    6  C   UNL     1      40.722 -12.474  -0.179  1.00  0.00     0.177 A 
HETATM    7  N   UNL     1      41.052 -12.721  -1.515  1.00  0.00    -0.256 N 
HETATM    8  C   UNL     1      41.984 -11.897  -2.162  1.00  0.00     0.267 A 
HETATM    9  O   UNL     1      42.398 -12.045  -3.311  1.00  0.00    -0.267 OA
HETATM   10  C   UNL     1      42.364  -9.384   0.580  1.00  0.00     0.032 A 
HETATM   11  C   UNL     1      43.249  -8.464   0.013  1.00  0.00     0.002 A 
ENDROOT
BRANCH   6  12
HETATM   12  S   UNL     1      39.808 -13.679   0.726  1.00  0.00    -0.082 SA
BRANCH  12  13
HETATM   13  C   UNL     1      40.912 -14.023   2.128  1.00  0.00     0.185 C 
BRANCH  13  14
HETATM   14  C   UNL     1      41.779 -15.255   1.890  1.00  0.00     0.231 C 
HETATM   15  N   UNL     1      42.057 -15.969   3.040  1.00  0.00    -0.326 N 
HETATM   16  H   UNL     1      41.741 -15.537   3.907  1.00  0.00     0.169 HD
HETATM   17  O   UNL     1      42.126 -15.563   0.752  1.00  0.00    -0.272 OA
BRANCH  15  18
HETATM   18  C   UNL     1      42.747 -17.191   3.165  1.00  0.00     0.037 A 
HETATM   19  C   UNL     1      42.689 -18.214   2.211  1.00  0.00     0.061 A 
HETATM   20  C   UNL     1      43.386 -19.368   2.490  1.00  0.00     0.065 A 
HETATM   21  C   UNL     1      44.127 -19.532   3.658  1.00  0.00     0.063 A 
HETATM   22  N   UNL     1      43.495 -20.540   1.749  1.00  0.00    -0.306 N 
HETATM   23  N   UNL     1      44.693 -20.801   3.635  1.00  0.00    -0.307 N 
HETATM   24  C   UNL     1      44.216 -18.549   4.609  1.00  0.00     0.034 A 
HETATM   25  C   UNL     1      44.305 -21.444   2.450  1.00  0.00     0.325 A 
HETATM   26  H   UNL     1      45.281 -21.225   4.333  1.00  0.00     0.170 HD
HETATM   27  O   UNL     1      44.612 -22.571   2.103  1.00  0.00    -0.247 OA
HETATM   28  C   UNL     1      43.512 -17.366   4.350  1.00  0.00     0.032 A 
HETATM   29  H   UNL     1      43.072 -20.735   0.856  1.00  0.00     0.170 HD
ENDBRANCH  15  18
ENDBRANCH  13  14
ENDBRANCH  12  13
ENDBRANCH   6  12
BRANCH   7  30
HETATM   30  C   UNL     1      40.435 -13.755  -2.301  1.00  0.00     0.046 A 
HETATM   31  C   UNL     1      39.151 -13.574  -2.842  1.00  0.00     0.057 A 
HETATM   32  C   UNL     1      38.534 -14.596  -3.566  1.00  0.00     0.074 A 
HETATM   33 CL   UNL     1      36.965 -14.339  -4.227  1.00  0.00    -0.081 Cl
HETATM   34  C   UNL     1      39.187 -15.811  -3.748  1.00  0.00     0.138 A 
HETATM   35  F   UNL     1      38.610 -16.807  -4.435  1.00  0.00    -0.204 F 
HETATM   36  C   UNL     1      40.452 -16.018  -3.208  1.00  0.00     0.046 A 
HETATM   37  C   UNL     1      41.072 -14.995  -2.483  1.00  0.00     0.033 A 
ENDBRANCH   7  30
TORSDOF 5
ENDMDL
MODEL 10
REMARK VINA RESULT:      -8.6      3.501      7.433
REMARK  5 active torsions:
REMARK  status: ('A' for Active; 'I' for Inactive)
REMARK    1  A    between atoms: C_6  and  S_7 
REMARK    2  A    between atoms: S_7  and  C_8 
REMARK    3  A    between atoms: C_8  and  C_9 
REMARK       I    between atoms: C_9  and  N_10 
REMARK    4  A    between atoms: N_10  and  C_11 
REMARK    5  A    between atoms: N_22  and  C_23 
ROOT
HETATM    1  C   UNL     1      43.525 -16.148   7.362  1.00  0.00     0.001 A 
HETATM    2  C   UNL     1      43.604 -15.110   6.434  1.00  0.00     0.019 A 
HETATM    3  C   UNL     1      42.618 -14.984   5.447  1.00  0.00     0.061 A 
HETATM    4  C   UNL     1      41.563 -15.885   5.376  1.00  0.00     0.075 A 
HETATM    5  N   UNL     1      40.604 -15.826   4.363  1.00  0.00    -0.223 NA
HETATM    6  C   UNL     1      40.633 -14.833   3.531  1.00  0.00     0.177 A 
HETATM    7  N   UNL     1      41.576 -13.802   3.570  1.00  0.00    -0.256 N 
HETATM    8  C   UNL     1      42.641 -13.870   4.481  1.00  0.00     0.267 A 
HETATM    9  O   UNL     1      43.560 -13.059   4.571  1.00  0.00    -0.267 OA
HETATM   10  C   UNL     1      41.483 -16.913   6.320  1.00  0.00     0.032 A 
HETATM   11  C   UNL     1      42.461 -17.046   7.309  1.00  0.00     0.002 A 
ENDROOT
BRANCH   6  12
HETATM   12  S   UNL     1      39.490 -14.915   2.193  1.00  0.00    -0.082 SA
BRANCH  12  13
HETATM   13  C   UNL     1      40.503 -15.633   0.867  1.00  0.00     0.185 C 
BRANCH  13  14
HETATM   14  C   UNL     1      41.030 -17.017   1.229  1.00  0.00     0.231 C 
HETATM   15  N   UNL     1      42.248 -16.994   1.881  1.00  0.00    -0.326 N 
HETATM   16  H   UNL     1      42.688 -16.077   1.949  1.00  0.00     0.169 HD
HETATM   17  O   UNL     1      40.367 -18.022   0.984  1.00  0.00    -0.272 OA
BRANCH  15  18
HETATM   18  C   UNL     1      42.967 -18.074   2.430  1.00  0.00     0.037 A 
HETATM   19  C   UNL     1      43.021 -19.345   1.845  1.00  0.00     0.061 A 
HETATM   20  C   UNL     1      43.732 -20.313   2.518  1.00  0.00     0.065 A 
HETATM   21  C   UNL     1      44.384 -20.062   3.723  1.00  0.00     0.063 A 
HETATM   22  N   UNL     1      43.940 -21.649   2.192  1.00  0.00    -0.306 N 
HETATM   23  N   UNL     1      44.993 -21.240   4.137  1.00  0.00    -0.307 N 
HETATM   24  C   UNL     1      44.363 -18.828   4.319  1.00  0.00     0.034 A 
HETATM   25  C   UNL     1      44.722 -22.242   3.193  1.00  0.00     0.325 A 
HETATM   26  H   UNL     1      45.538 -21.391   4.970  1.00  0.00     0.170 HD
HETATM   27  O   UNL     1      45.095 -23.401   3.240  1.00  0.00    -0.247 OA
HETATM   28  C   UNL     1      43.641 -17.827   3.657  1.00  0.00     0.032 A 
HETATM   29  H   UNL     1      43.596 -22.137   1.381  1.00  0.00     0.170 HD
ENDBRANCH  15  18
ENDBRANCH  13  14
ENDBRANCH  12  13
ENDBRANCH   6  12
BRANCH   7  30
HETATM   30  C   UNL     1      41.486 -12.621   2.756  1.00  0.00     0.046 A 
HETATM   31  C   UNL     1      40.727 -11.516   3.178  1.00  0.00     0.057 A 
HETATM   32  C   UNL     1      40.602 -10.387   2.365  1.00  0.00     0.074 A 
HETATM   33 CL   UNL     1      39.676  -9.044   2.917  1.00  0.00    -0.081 Cl
HETATM   34  C   UNL     1      41.222 -10.354   1.121  1.00  0.00     0.138 A 
HETATM   35  F   UNL     1      41.111  -9.283   0.323  1.00  0.00    -0.204 F 
HETATM   36  C   UNL     1      41.965 -11.442   0.676  1.00  0.00     0.046 A 
HETATM   37  C   UNL     1      42.092 -12.574   1.488  1.00  0.00     0.033 A 
ENDBRANCH   7  30
TORSDOF 5
ENDMDL
