MODEL 1
REMARK VINA RESULT:      -8.4      0.000      0.000
REMARK  7 active torsions:
REMARK  status: ('A' for Active; 'I' for Inactive)
REMARK    1  A    between atoms: N_2  and  C_4 
REMARK    2  A    between atoms: N_2  and  C_10 
REMARK    3  A    between atoms: C_10  and  C_11 
REMARK    4  A    between atoms: C_12  and  N_13 
REMARK       I    between atoms: N_13  and  C_14 
REMARK       I    between atoms: C_14  and  N_15 
REMARK    5  A    between atoms: N_15  and  C_16 
REMARK    6  A    between atoms: C_16  and  C_17 
REMARK    7  A    between atoms: C_17  and  C_18 
ROOT
HETATM    1  C   UNL     1      43.402 -15.955   5.195  1.00  0.00    -0.006 A 
HETATM    2  C   UNL     1      44.054 -15.902   6.445  1.00  0.00     0.044 A 
HETATM    3  C   UNL     1      44.660 -17.083   6.934  1.00  0.00     0.030 A 
HETATM    4  C   UNL     1      44.668 -18.273   6.209  1.00  0.00     0.002 A 
HETATM    5  C   UNL     1      44.064 -18.320   4.968  1.00  0.00     0.001 A 
HETATM    6  C   UNL     1      43.438 -17.179   4.472  1.00  0.00     0.011 A 
ENDROOT
BRANCH   2   7
HETATM    7  N   UNL     1      44.216 -14.806   7.331  1.00  0.00    -0.308 N 
HETATM    8  C   UNL     1      45.078 -13.748   7.316  1.00  0.00     0.320 C 
HETATM    9  N   UNL     1      44.999 -13.000   8.465  1.00  0.00    -0.343 N 
HETATM   10  O   UNL     1      45.899 -13.501   6.443  1.00  0.00    -0.247 OA
HETATM   11  H   UNL     1      44.183 -13.068   9.057  1.00  0.00     0.164 HD
HETATM   12  H   UNL     1      43.735 -14.902   8.215  1.00  0.00     0.170 HD
BRANCH   9  13
HETATM   13  C   UNL     1      45.899 -11.881   8.708  1.00  0.00     0.130 C 
BRANCH  13  14
HETATM   14  C   UNL     1      45.434 -11.009   9.877  1.00  0.00     0.079 C 
BRANCH  14  15
HETATM   15  C   UNL     1      43.928 -10.947   9.984  1.00  0.00     0.042 A 
HETATM   16  N   UNL     1      43.253 -10.652   8.820  1.00  0.00    -0.248 NA
HETATM   17  C   UNL     1      41.964 -10.596   8.887  1.00  0.00     0.210 A 
HETATM   18  N   UNL     1      41.245 -10.818  10.022  1.00  0.00    -0.318 N 
HETATM   19  C   UNL     1      41.849 -11.138  11.199  1.00  0.00     0.248 A 
HETATM   20  H   UNL     1      40.236 -10.775  10.023  1.00  0.00     0.169 HD
HETATM   21  O   UNL     1      41.236 -11.396  12.226  1.00  0.00    -0.268 OA
HETATM   22  C   UNL     1      43.316 -11.181  11.154  1.00  0.00     0.101 A 
ENDBRANCH  14  15
ENDBRANCH  13  14
ENDBRANCH   9  13
ENDBRANCH   2   7
BRANCH   1  23
HETATM   23  C   UNL     1      42.584 -14.864   4.536  1.00  0.00     0.275 C 
BRANCH  23  24
HETATM   24  N   UNL     1      41.160 -15.181   4.098  1.00  0.00    -0.067 N 
HETATM   25  C   UNL     1      40.132 -14.717   5.095  1.00  0.00     0.270 C 
HETATM   26  H   UNL     1      41.159 -16.220   4.156  1.00  0.00     0.280 HD
BRANCH  24  27
HETATM   27  C   UNL     1      40.807 -14.796   2.661  1.00  0.00     0.188 C 
HETATM   28  C   UNL     1      42.023 -14.723   1.718  1.00  0.00     0.033 C 
HETATM   29  C   UNL     1      42.611 -16.085   1.357  1.00  0.00     0.002 C 
HETATM   30  C   UNL     1      41.552 -17.008   0.772  1.00  0.00     0.000 C 
HETATM   31  C   UNL     1      40.345 -17.139   1.693  1.00  0.00     0.002 C 
HETATM   32  C   UNL     1      39.769 -15.771   2.067  1.00  0.00     0.033 C 
ENDBRANCH  24  27
ENDBRANCH  23  24
ENDBRANCH   1  23
TORSDOF 7
ENDMDL
MODEL 2
REMARK VINA RESULT:      -8.2      4.696      8.811
REMARK  7 active torsions:
REMARK  status: ('A' for Active; 'I' for Inactive)
REMARK    1  A    between atoms: N_2  and  C_4 
REMARK    2  A    between atoms: N_2  and  C_10 
REMARK    3  A    between atoms: C_10  and  C_11 
REMARK    4  A    between atoms: C_12  and  N_13 
REMARK       I    between atoms: N_13  and  C_14 
REMARK       I    between atoms: C_14  and  N_15 
REMARK    5  A    between atoms: N_15  and  C_16 
REMARK    6  A    between atoms: C_16  and  C_17 
REMARK    7  A    between atoms: C_17  and  C_18 
ROOT
HETATM    1  C   UNL     1      43.988 -18.447   4.437  1.00  0.00    -0.006 A 
HETATM    2  C   UNL     1      43.952 -18.616   3.037  1.00  0.00     0.044 A 
HETATM    3  C   UNL     1      44.360 -19.861   2.504  1.00  0.00     0.030 A 
HETATM    4  C   UNL     1      44.754 -20.927   3.310  1.00  0.00     0.002 A 
HETATM    5  C   UNL     1      44.756 -20.778   4.684  1.00  0.00     0.001 A 
HETATM    6  C   UNL     1      44.382 -19.556   5.237  1.00  0.00     0.011 A 
ENDROOT
BRANCH   2   7
HETATM    7  N   UNL     1      43.548 -17.704   2.030  1.00  0.00    -0.308 N 
HETATM    8  C   UNL     1      42.318 -17.221   1.684  1.00  0.00     0.320 C 
HETATM    9  N   UNL     1      42.360 -16.475   0.533  1.00  0.00    -0.343 N 
HETATM   10  O   UNL     1      41.264 -17.463   2.257  1.00  0.00    -0.247 OA
HETATM   11  H   UNL     1      43.239 -16.095   0.209  1.00  0.00     0.164 HD
HETATM   12  H   UNL     1      44.253 -17.501   1.334  1.00  0.00     0.170 HD
BRANCH   9  13
HETATM   13  C   UNL     1      41.147 -15.945  -0.075  1.00  0.00     0.130 C 
BRANCH  13  14
HETATM   14  C   UNL     1      41.446 -14.833  -1.084  1.00  0.00     0.079 C 
BRANCH  14  15
HETATM   15  C   UNL     1      40.380 -14.722  -2.150  1.00  0.00     0.042 A 
HETATM   16  N   UNL     1      39.664 -13.545  -2.165  1.00  0.00    -0.248 NA
HETATM   17  C   UNL     1      38.750 -13.426  -3.070  1.00  0.00     0.210 A 
HETATM   18  N   UNL     1      38.463 -14.380  -3.999  1.00  0.00    -0.318 N 
HETATM   19  C   UNL     1      39.149 -15.554  -4.054  1.00  0.00     0.248 A 
HETATM   20  H   UNL     1      37.745 -14.237  -4.695  1.00  0.00     0.169 HD
HETATM   21  O   UNL     1      38.956 -16.411  -4.906  1.00  0.00    -0.268 OA
HETATM   22  C   UNL     1      40.176 -15.723  -3.019  1.00  0.00     0.101 A 
ENDBRANCH  14  15
ENDBRANCH  13  14
ENDBRANCH   9  13
ENDBRANCH   2   7
BRANCH   1  23
HETATM   23  C   UNL     1      43.723 -17.177   5.219  1.00  0.00     0.275 C 
BRANCH  23  24
HETATM   24  N   UNL     1      42.373 -16.490   5.061  1.00  0.00    -0.067 N 
HETATM   25  C   UNL     1      41.262 -17.234   5.753  1.00  0.00     0.270 C 
HETATM   26  H   UNL     1      42.202 -16.614   4.042  1.00  0.00     0.280 HD
BRANCH  24  27
HETATM   27  C   UNL     1      42.354 -14.989   5.355  1.00  0.00     0.188 C 
HETATM   28  C   UNL     1      43.558 -14.225   4.774  1.00  0.00     0.033 C 
HETATM   29  C   UNL     1      43.521 -14.069   3.255  1.00  0.00     0.002 C 
HETATM   30  C   UNL     1      42.221 -13.423   2.797  1.00  0.00     0.000 C 
HETATM   31  C   UNL     1      41.002 -14.173   3.320  1.00  0.00     0.002 C 
HETATM   32  C   UNL     1      41.052 -14.342   4.840  1.00  0.00     0.033 C 
ENDBRANCH  24  27
ENDBRANCH  23  24
ENDBRANCH   1  23
TORSDOF 7
ENDMDL
MODEL 3
REMARK VINA RESULT:      -8.0      1.684      2.826
REMARK  7 active torsions:
REMARK  status: ('A' for Active; 'I' for Inactive)
REMARK    1  A    between atoms: N_2  and  C_4 
REMARK    2  A    between atoms: N_2  and  C_10 
REMARK    3  A    between atoms: C_10  and  C_11 
REMARK    4  A    between atoms: C_12  and  N_13 
REMARK       I    between atoms: N_13  and  C_14 
REMARK       I    between atoms: C_14  and  N_15 
REMARK    5  A    between atoms: N_15  and  C_16 
REMARK    6  A    between atoms: C_16  and  C_17 
REMARK    7  A    between atoms: C_17  and  C_18 
ROOT
HETATM    1  C   UNL     1      43.183 -16.447   5.189  1.00  0.00    -0.006 A 
HETATM    2  C   UNL     1      43.900 -16.261   6.390  1.00  0.00     0.044 A 
HETATM    3  C   UNL     1      44.789 -17.282   6.802  1.00  0.00     0.030 A 
HETATM    4  C   UNL     1      45.008 -18.433   6.048  1.00  0.00     0.002 A 
HETATM    5  C   UNL     1      44.336 -18.601   4.852  1.00  0.00     0.001 A 
HETATM    6  C   UNL     1      43.437 -17.625   4.432  1.00  0.00     0.011 A 
ENDROOT
BRANCH   2   7
HETATM    7  N   UNL     1      43.879 -15.166   7.290  1.00  0.00    -0.308 N 
HETATM    8  C   UNL     1      44.663 -14.052   7.381  1.00  0.00     0.320 C 
HETATM    9  N   UNL     1      44.396 -13.323   8.513  1.00  0.00    -0.343 N 
HETATM   10  O   UNL     1      45.562 -13.741   6.611  1.00  0.00    -0.247 OA
HETATM   11  H   UNL     1      43.523 -13.452   9.004  1.00  0.00     0.164 HD
HETATM   12  H   UNL     1      43.305 -15.304   8.111  1.00  0.00     0.170 HD
BRANCH   9  13
HETATM   13  C   UNL     1      45.183 -12.148   8.864  1.00  0.00     0.130 C 
BRANCH  13  14
HETATM   14  C   UNL     1      44.980 -11.732  10.323  1.00  0.00     0.079 C 
BRANCH  14  15
HETATM   15  C   UNL     1      43.546 -11.360  10.622  1.00  0.00     0.042 A 
HETATM   16  N   UNL     1      42.809 -10.899   9.553  1.00  0.00    -0.248 NA
HETATM   17  C   UNL     1      41.579 -10.578   9.784  1.00  0.00     0.210 A 
HETATM   18  N   UNL     1      40.977 -10.676  11.002  1.00  0.00    -0.318 N 
HETATM   19  C   UNL     1      41.642 -11.147  12.092  1.00  0.00     0.248 A 
HETATM   20  H   UNL     1      40.007 -10.423  11.131  1.00  0.00     0.169 HD
HETATM   21  O   UNL     1      41.121 -11.299  13.189  1.00  0.00    -0.268 OA
HETATM   22  C   UNL     1      43.049 -11.493  11.860  1.00  0.00     0.101 A 
ENDBRANCH  14  15
ENDBRANCH  13  14
ENDBRANCH   9  13
ENDBRANCH   2   7
BRANCH   1  23
HETATM   23  C   UNL     1      42.095 -15.561   4.619  1.00  0.00     0.275 C 
BRANCH  23  24
HETATM   24  N   UNL     1      42.383 -14.078   4.431  1.00  0.00    -0.067 N 
HETATM   25  C   UNL     1      43.594 -13.828   3.573  1.00  0.00     0.270 C 
HETATM   26  H   UNL     1      42.660 -13.803   5.396  1.00  0.00     0.280 HD
BRANCH  24  27
HETATM   27  C   UNL     1      41.185 -13.215   4.030  1.00  0.00     0.188 C 
HETATM   28  C   UNL     1      39.863 -13.633   4.700  1.00  0.00     0.033 C 
HETATM   29  C   UNL     1      39.787 -13.294   6.187  1.00  0.00     0.002 C 
HETATM   30  C   UNL     1      40.052 -11.815   6.432  1.00  0.00     0.000 C 
HETATM   31  C   UNL     1      41.372 -11.368   5.817  1.00  0.00     0.002 C 
HETATM   32  C   UNL     1      41.452 -11.725   4.331  1.00  0.00     0.033 C 
ENDBRANCH  24  27
ENDBRANCH  23  24
ENDBRANCH   1  23
TORSDOF 7
ENDMDL
MODEL 4
REMARK VINA RESULT:      -7.9      4.912      8.436
REMARK  7 active torsions:
REMARK  status: ('A' for Active; 'I' for Inactive)
REMARK    1  A    between atoms: N_2  and  C_4 
REMARK    2  A    between atoms: N_2  and  C_10 
REMARK    3  A    between atoms: C_10  and  C_11 
REMARK    4  A    between atoms: C_12  and  N_13 
REMARK       I    between atoms: N_13  and  C_14 
REMARK       I    between atoms: C_14  and  N_15 
REMARK    5  A    between atoms: N_15  and  C_16 
REMARK    6  A    between atoms: C_16  and  C_17 
REMARK    7  A    between atoms: C_17  and  C_18 
ROOT
HETATM    1  C   UNL     1      43.812 -18.420   3.676  1.00  0.00    -0.006 A 
HETATM    2  C   UNL     1      43.705 -18.565   2.276  1.00  0.00     0.044 A 
HETATM    3  C   UNL     1      44.024 -19.821   1.708  1.00  0.00     0.030 A 
HETATM    4  C   UNL     1      44.397 -20.918   2.481  1.00  0.00     0.002 A 
HETATM    5  C   UNL     1      44.467 -20.792   3.855  1.00  0.00     0.001 A 
HETATM    6  C   UNL     1      44.182 -19.561   4.441  1.00  0.00     0.011 A 
ENDROOT
BRANCH   2   7
HETATM    7  N   UNL     1      43.305 -17.617   1.301  1.00  0.00    -0.308 N 
HETATM    8  C   UNL     1      42.115 -16.980   1.090  1.00  0.00     0.320 C 
HETATM    9  N   UNL     1      42.116 -16.257  -0.077  1.00  0.00    -0.343 N 
HETATM   10  O   UNL     1      41.114 -17.078   1.787  1.00  0.00    -0.247 OA
HETATM   11  H   UNL     1      42.991 -15.998  -0.511  1.00  0.00     0.164 HD
HETATM   12  H   UNL     1      43.943 -17.515   0.523  1.00  0.00     0.170 HD
BRANCH   9  13
HETATM   13  C   UNL     1      40.918 -15.579  -0.552  1.00  0.00     0.130 C 
BRANCH  13  14
HETATM   14  C   UNL     1      41.025 -15.182  -2.027  1.00  0.00     0.079 C 
BRANCH  14  15
HETATM   15  C   UNL     1      41.616 -13.803  -2.211  1.00  0.00     0.042 A 
HETATM   16  N   UNL     1      42.046 -13.175  -1.063  1.00  0.00    -0.248 NA
HETATM   17  C   UNL     1      42.558 -11.996  -1.196  1.00  0.00     0.210 A 
HETATM   18  N   UNL     1      42.702 -11.353  -2.388  1.00  0.00    -0.318 N 
HETATM   19  C   UNL     1      42.320 -11.929  -3.561  1.00  0.00     0.248 A 
HETATM   20  H   UNL     1      43.119 -10.435  -2.443  1.00  0.00     0.169 HD
HETATM   21  O   UNL     1      42.482 -11.405  -4.655  1.00  0.00    -0.268 OA
HETATM   22  C   UNL     1      41.711 -13.258  -3.432  1.00  0.00     0.101 A 
ENDBRANCH  14  15
ENDBRANCH  13  14
ENDBRANCH   9  13
ENDBRANCH   2   7
BRANCH   1  23
HETATM   23  C   UNL     1      43.648 -17.151   4.486  1.00  0.00     0.275 C 
BRANCH  23  24
HETATM   24  N   UNL     1      42.271 -16.504   4.561  1.00  0.00    -0.067 N 
HETATM   25  C   UNL     1      41.273 -17.353   5.301  1.00  0.00     0.270 C 
HETATM   26  H   UNL     1      41.980 -16.535   3.562  1.00  0.00     0.280 HD
BRANCH  24  27
HETATM   27  C   UNL     1      42.250 -15.041   5.004  1.00  0.00     0.188 C 
HETATM   28  C   UNL     1      43.299 -14.160   4.301  1.00  0.00     0.033 C 
HETATM   29  C   UNL     1      42.982 -13.866   2.836  1.00  0.00     0.002 C 
HETATM   30  C   UNL     1      41.597 -13.252   2.683  1.00  0.00     0.000 C 
HETATM   31  C   UNL     1      40.522 -14.114   3.333  1.00  0.00     0.002 C 
HETATM   32  C   UNL     1      40.852 -14.421   4.795  1.00  0.00     0.033 C 
ENDBRANCH  24  27
ENDBRANCH  23  24
ENDBRANCH   1  23
TORSDOF 7
ENDMDL
MODEL 5
REMARK VINA RESULT:      -7.9      5.005      8.614
REMARK  7 active torsions:
REMARK  status: ('A' for Active; 'I' for Inactive)
REMARK    1  A    between atoms: N_2  and  C_4 
REMARK    2  A    between atoms: N_2  and  C_10 
REMARK    3  A    between atoms: C_10  and  C_11 
REMARK    4  A    between atoms: C_12  and  N_13 
REMARK       I    between atoms: N_13  and  C_14 
REMARK       I    between atoms: C_14  and  N_15 
REMARK    5  A    between atoms: N_15  and  C_16 
REMARK    6  A    between atoms: C_16  and  C_17 
REMARK    7  A    between atoms: C_17  and  C_18 
ROOT
HETATM    1  C   UNL     1      44.473 -19.920   3.895  1.00  0.00    -0.006 A 
HETATM    2  C   UNL     1      44.044 -19.596   2.590  1.00  0.00     0.044 A 
HETATM    3  C   UNL     1      43.947 -20.640   1.640  1.00  0.00     0.030 A 
HETATM    4  C   UNL     1      44.221 -21.969   1.959  1.00  0.00     0.002 A 
HETATM    5  C   UNL     1      44.606 -22.296   3.244  1.00  0.00     0.001 A 
HETATM    6  C   UNL     1      44.732 -21.286   4.195  1.00  0.00     0.011 A 
ENDROOT
BRANCH   2   7
HETATM    7  N   UNL     1      43.669 -18.339   2.052  1.00  0.00    -0.308 N 
HETATM    8  C   UNL     1      42.495 -17.644   2.105  1.00  0.00     0.320 C 
HETATM    9  N   UNL     1      42.517 -16.531   1.301  1.00  0.00    -0.343 N 
HETATM   10  O   UNL     1      41.489 -17.977   2.717  1.00  0.00    -0.247 OA
HETATM   11  H   UNL     1      43.399 -16.146   0.994  1.00  0.00     0.164 HD
HETATM   12  H   UNL     1      44.312 -17.963   1.368  1.00  0.00     0.170 HD
BRANCH   9  13
HETATM   13  C   UNL     1      41.336 -15.696   1.127  1.00  0.00     0.130 C 
BRANCH  13  14
HETATM   14  C   UNL     1      41.693 -14.283   0.655  1.00  0.00     0.079 C 
BRANCH  14  15
HETATM   15  C   UNL     1      41.675 -14.159  -0.852  1.00  0.00     0.042 A 
HETATM   16  N   UNL     1      42.428 -13.135  -1.380  1.00  0.00    -0.248 NA
HETATM   17  C   UNL     1      42.431 -13.012  -2.666  1.00  0.00     0.210 A 
HETATM   18  N   UNL     1      41.749 -13.829  -3.516  1.00  0.00    -0.318 N 
HETATM   19  C   UNL     1      41.006 -14.874  -3.059  1.00  0.00     0.248 A 
HETATM   20  H   UNL     1      41.791 -13.700  -4.517  1.00  0.00     0.169 HD
HETATM   21  O   UNL     1      40.423 -15.661  -3.793  1.00  0.00    -0.268 OA
HETATM   22  C   UNL     1      40.966 -15.018  -1.599  1.00  0.00     0.101 A 
ENDBRANCH  14  15
ENDBRANCH  13  14
ENDBRANCH   9  13
ENDBRANCH   2   7
BRANCH   1  23
HETATM   23  C   UNL     1      44.771 -18.963   5.030  1.00  0.00     0.275 C 
BRANCH  23  24
HETATM   24  N   UNL     1      43.733 -18.788   6.131  1.00  0.00    -0.067 N 
HETATM   25  C   UNL     1      43.661 -19.978   7.051  1.00  0.00     0.270 C 
HETATM   26  H   UNL     1      42.851 -18.806   5.579  1.00  0.00     0.280 HD
BRANCH  24  27
HETATM   27  C   UNL     1      43.783 -17.459   6.884  1.00  0.00     0.188 C 
HETATM   28  C   UNL     1      44.246 -16.270   6.022  1.00  0.00     0.033 C 
HETATM   29  C   UNL     1      43.215 -15.809   4.994  1.00  0.00     0.002 C 
HETATM   30  C   UNL     1      41.882 -15.487   5.654  1.00  0.00     0.000 C 
HETATM   31  C   UNL     1      41.368 -16.654   6.488  1.00  0.00     0.002 C 
HETATM   32  C   UNL     1      42.410 -17.124   7.505  1.00  0.00     0.033 C 
ENDBRANCH  24  27
ENDBRANCH  23  24
ENDBRANCH   1  23
TORSDOF 7
ENDMDL
MODEL 6
REMARK VINA RESULT:      -7.7      4.031      8.251
REMARK  7 active torsions:
REMARK  status: ('A' for Active; 'I' for Inactive)
REMARK    1  A    between atoms: N_2  and  C_4 
REMARK    2  A    between atoms: N_2  and  C_10 
REMARK    3  A    between atoms: C_10  and  C_11 
REMARK    4  A    between atoms: C_12  and  N_13 
REMARK       I    between atoms: N_13  and  C_14 
REMARK       I    between atoms: C_14  and  N_15 
REMARK    5  A    between atoms: N_15  and  C_16 
REMARK    6  A    between atoms: C_16  and  C_17 
REMARK    7  A    between atoms: C_17  and  C_18 
ROOT
HETATM    1  C   UNL     1      42.865 -16.166   5.443  1.00  0.00    -0.006 A 
HETATM    2  C   UNL     1      42.905 -14.926   4.771  1.00  0.00     0.044 A 
HETATM    3  C   UNL     1      43.641 -13.871   5.359  1.00  0.00     0.030 A 
HETATM    4  C   UNL     1      44.352 -14.027   6.547  1.00  0.00     0.002 A 
HETATM    5  C   UNL     1      44.346 -15.249   7.190  1.00  0.00     0.001 A 
HETATM    6  C   UNL     1      43.612 -16.300   6.647  1.00  0.00     0.011 A 
ENDROOT
BRANCH   2   7
HETATM    7  N   UNL     1      42.307 -14.550   3.542  1.00  0.00    -0.308 N 
HETATM    8  C   UNL     1      41.002 -14.360   3.189  1.00  0.00     0.320 C 
HETATM    9  N   UNL     1      40.856 -14.156   1.839  1.00  0.00    -0.343 N 
HETATM   10  O   UNL     1      40.037 -14.435   3.938  1.00  0.00    -0.247 OA
HETATM   11  H   UNL     1      41.649 -13.870   1.282  1.00  0.00     0.164 HD
HETATM   12  H   UNL     1      42.923 -14.593   2.741  1.00  0.00     0.170 HD
BRANCH   9  13
HETATM   13  C   UNL     1      39.540 -14.031   1.227  1.00  0.00     0.130 C 
BRANCH  13  14
HETATM   14  C   UNL     1      39.527 -13.006   0.090  1.00  0.00     0.079 C 
BRANCH  14  15
HETATM   15  C   UNL     1      40.420 -13.413  -1.060  1.00  0.00     0.042 A 
HETATM   16  N   UNL     1      41.668 -12.832  -1.089  1.00  0.00    -0.248 NA
HETATM   17  C   UNL     1      42.450 -13.168  -2.061  1.00  0.00     0.210 A 
HETATM   18  N   UNL     1      42.118 -14.056  -3.040  1.00  0.00    -0.318 N 
HETATM   19  C   UNL     1      40.910 -14.684  -3.055  1.00  0.00     0.248 A 
HETATM   20  H   UNL     1      42.768 -14.296  -3.774  1.00  0.00     0.169 HD
HETATM   21  O   UNL     1      40.596 -15.526  -3.885  1.00  0.00    -0.268 OA
HETATM   22  C   UNL     1      39.995 -14.298  -1.975  1.00  0.00     0.101 A 
ENDBRANCH  14  15
ENDBRANCH  13  14
ENDBRANCH   9  13
ENDBRANCH   2   7
BRANCH   1  23
HETATM   23  C   UNL     1      42.048 -17.388   5.076  1.00  0.00     0.275 C 
BRANCH  23  24
HETATM   24  N   UNL     1      42.446 -18.190   3.844  1.00  0.00    -0.067 N 
HETATM   25  C   UNL     1      41.675 -17.785   2.617  1.00  0.00     0.270 C 
HETATM   26  H   UNL     1      42.093 -19.136   4.099  1.00  0.00     0.280 HD
BRANCH  24  27
HETATM   27  C   UNL     1      43.948 -18.310   3.587  1.00  0.00     0.188 C 
HETATM   28  C   UNL     1      44.702 -19.122   4.657  1.00  0.00     0.033 C 
HETATM   29  C   UNL     1      44.431 -20.624   4.601  1.00  0.00     0.002 C 
HETATM   30  C   UNL     1      44.721 -21.188   3.218  1.00  0.00     0.000 C 
HETATM   31  C   UNL     1      43.964 -20.436   2.131  1.00  0.00     0.002 C 
HETATM   32  C   UNL     1      44.224 -18.930   2.200  1.00  0.00     0.033 C 
ENDBRANCH  24  27
ENDBRANCH  23  24
ENDBRANCH   1  23
TORSDOF 7
ENDMDL
MODEL 7
REMARK VINA RESULT:      -7.2      4.796      7.706
REMARK  7 active torsions:
REMARK  status: ('A' for Active; 'I' for Inactive)
REMARK    1  A    between atoms: N_2  and  C_4 
REMARK    2  A    between atoms: N_2  and  C_10 
REMARK    3  A    between atoms: C_10  and  C_11 
REMARK    4  A    between atoms: C_12  and  N_13 
REMARK       I    between atoms: N_13  and  C_14 
REMARK       I    between atoms: C_14  and  N_15 
REMARK    5  A    between atoms: N_15  and  C_16 
REMARK    6  A    between atoms: C_16  and  C_17 
REMARK    7  A    between atoms: C_17  and  C_18 
ROOT
HETATM    1  C   UNL     1      43.780 -18.617   4.090  1.00  0.00    -0.006 A 
HETATM    2  C   UNL     1      43.323 -19.092   2.843  1.00  0.00     0.044 A 
HETATM    3  C   UNL     1      43.758 -20.367   2.413  1.00  0.00     0.030 A 
HETATM    4  C   UNL     1      44.582 -21.178   3.191  1.00  0.00     0.002 A 
HETATM    5  C   UNL     1      45.002 -20.733   4.430  1.00  0.00     0.001 A 
HETATM    6  C   UNL     1      44.609 -19.471   4.870  1.00  0.00     0.011 A 
ENDROOT
BRANCH   2   7
HETATM    7  N   UNL     1      42.453 -18.474   1.909  1.00  0.00    -0.308 N 
HETATM    8  C   UNL     1      42.591 -17.350   1.146  1.00  0.00     0.320 C 
HETATM    9  N   UNL     1      41.428 -17.021   0.495  1.00  0.00    -0.343 N 
HETATM   10  O   UNL     1      43.588 -16.643   1.083  1.00  0.00    -0.247 OA
HETATM   11  H   UNL     1      40.706 -17.715   0.368  1.00  0.00     0.164 HD
HETATM   12  H   UNL     1      41.501 -18.815   1.928  1.00  0.00     0.170 HD
BRANCH   9  13
HETATM   13  C   UNL     1      41.319 -15.802  -0.296  1.00  0.00     0.130 C 
BRANCH  13  14
HETATM   14  C   UNL     1      40.831 -14.615   0.538  1.00  0.00     0.079 C 
BRANCH  14  15
HETATM   15  C   UNL     1      39.642 -13.923  -0.088  1.00  0.00     0.042 A 
HETATM   16  N   UNL     1      39.593 -13.936  -1.464  1.00  0.00    -0.248 NA
HETATM   17  C   UNL     1      38.583 -13.354  -2.021  1.00  0.00     0.210 A 
HETATM   18  N   UNL     1      37.576 -12.744  -1.335  1.00  0.00    -0.318 N 
HETATM   19  C   UNL     1      37.552 -12.717   0.025  1.00  0.00     0.248 A 
HETATM   20  H   UNL     1      36.800 -12.311  -1.815  1.00  0.00     0.169 HD
HETATM   21  O   UNL     1      36.639 -12.227   0.676  1.00  0.00    -0.268 OA
HETATM   22  C   UNL     1      38.703 -13.350   0.680  1.00  0.00     0.101 A 
ENDBRANCH  14  15
ENDBRANCH  13  14
ENDBRANCH   9  13
ENDBRANCH   2   7
BRANCH   1  23
HETATM   23  C   UNL     1      43.554 -17.246   4.693  1.00  0.00     0.275 C 
BRANCH  23  24
HETATM   24  N   UNL     1      42.126 -16.738   4.840  1.00  0.00    -0.067 N 
HETATM   25  C   UNL     1      41.169 -17.819   5.268  1.00  0.00     0.270 C 
HETATM   26  H   UNL     1      41.885 -16.527   3.850  1.00  0.00     0.280 HD
BRANCH  24  27
HETATM   27  C   UNL     1      41.960 -15.448   5.643  1.00  0.00     0.188 C 
HETATM   28  C   UNL     1      42.824 -14.280   5.133  1.00  0.00     0.033 C 
HETATM   29  C   UNL     1      42.344 -13.684   3.811  1.00  0.00     0.002 C 
HETATM   30  C   UNL     1      40.886 -13.256   3.894  1.00  0.00     0.000 C 
HETATM   31  C   UNL     1      39.988 -14.397   4.359  1.00  0.00     0.002 C 
HETATM   32  C   UNL     1      40.482 -15.003   5.675  1.00  0.00     0.033 C 
ENDBRANCH  24  27
ENDBRANCH  23  24
ENDBRANCH   1  23
TORSDOF 7
ENDMDL
MODEL 8
REMARK VINA RESULT:      -7.1      3.622      4.784
REMARK  7 active torsions:
REMARK  status: ('A' for Active; 'I' for Inactive)
REMARK    1  A    between atoms: N_2  and  C_4 
REMARK    2  A    between atoms: N_2  and  C_10 
REMARK    3  A    between atoms: C_10  and  C_11 
REMARK    4  A    between atoms: C_12  and  N_13 
REMARK       I    between atoms: N_13  and  C_14 
REMARK       I    between atoms: C_14  and  N_15 
REMARK    5  A    between atoms: N_15  and  C_16 
REMARK    6  A    between atoms: C_16  and  C_17 
REMARK    7  A    between atoms: C_17  and  C_18 
ROOT
HETATM    1  C   UNL     1      43.661 -19.991   2.772  1.00  0.00    -0.006 A 
HETATM    2  C   UNL     1      44.384 -20.137   3.975  1.00  0.00     0.044 A 
HETATM    3  C   UNL     1      44.929 -21.407   4.277  1.00  0.00     0.030 A 
HETATM    4  C   UNL     1      44.810 -22.496   3.415  1.00  0.00     0.002 A 
HETATM    5  C   UNL     1      44.135 -22.348   2.219  1.00  0.00     0.001 A 
HETATM    6  C   UNL     1      43.567 -21.115   1.905  1.00  0.00     0.011 A 
ENDROOT
BRANCH   2   7
HETATM    7  N   UNL     1      44.673 -19.174   4.974  1.00  0.00    -0.308 N 
HETATM    8  C   UNL     1      43.863 -18.353   5.705  1.00  0.00     0.320 C 
HETATM    9  N   UNL     1      44.578 -17.451   6.452  1.00  0.00    -0.343 N 
HETATM   10  O   UNL     1      42.640 -18.334   5.669  1.00  0.00    -0.247 OA
HETATM   11  H   UNL     1      45.554 -17.622   6.653  1.00  0.00     0.164 HD
HETATM   12  H   UNL     1      45.649 -18.917   5.044  1.00  0.00     0.170 HD
BRANCH   9  13
HETATM   13  C   UNL     1      43.915 -16.415   7.232  1.00  0.00     0.130 C 
BRANCH  13  14
HETATM   14  C   UNL     1      44.256 -15.009   6.731  1.00  0.00     0.079 C 
BRANCH  14  15
HETATM   15  C   UNL     1      43.100 -14.363   6.001  1.00  0.00     0.042 A 
HETATM   16  N   UNL     1      43.418 -13.288   5.201  1.00  0.00    -0.248 NA
HETATM   17  C   UNL     1      42.446 -12.723   4.565  1.00  0.00     0.210 A 
HETATM   18  N   UNL     1      41.147 -13.128   4.632  1.00  0.00    -0.318 N 
HETATM   19  C   UNL     1      40.771 -14.199   5.384  1.00  0.00     0.248 A 
HETATM   20  H   UNL     1      40.423 -12.661   4.106  1.00  0.00     0.169 HD
HETATM   21  O   UNL     1      39.625 -14.625   5.427  1.00  0.00    -0.268 OA
HETATM   22  C   UNL     1      41.854 -14.841   6.137  1.00  0.00     0.101 A 
ENDBRANCH  14  15
ENDBRANCH  13  14
ENDBRANCH   9  13
ENDBRANCH   2   7
BRANCH   1  23
HETATM   23  C   UNL     1      42.888 -18.776   2.304  1.00  0.00     0.275 C 
BRANCH  23  24
HETATM   24  N   UNL     1      43.501 -17.396   2.505  1.00  0.00    -0.067 N 
HETATM   25  C   UNL     1      44.426 -17.006   1.384  1.00  0.00     0.270 C 
HETATM   26  H   UNL     1      44.114 -17.567   3.329  1.00  0.00     0.280 HD
BRANCH  24  27
HETATM   27  C   UNL     1      42.522 -16.283   2.880  1.00  0.00     0.188 C 
HETATM   28  C   UNL     1      42.540 -15.085   1.914  1.00  0.00     0.033 C 
HETATM   29  C   UNL     1      41.908 -15.374   0.554  1.00  0.00     0.002 C 
HETATM   30  C   UNL     1      40.488 -15.901   0.705  1.00  0.00     0.000 C 
HETATM   31  C   UNL     1      40.430 -17.114   1.625  1.00  0.00     0.002 C 
HETATM   32  C   UNL     1      41.080 -16.826   2.980  1.00  0.00     0.033 C 
ENDBRANCH  24  27
ENDBRANCH  23  24
ENDBRANCH   1  23
TORSDOF 7
ENDMDL
MODEL 9
REMARK VINA RESULT:      -7.1      4.927      8.918
REMARK  7 active torsions:
REMARK  status: ('A' for Active; 'I' for Inactive)
REMARK    1  A    between atoms: N_2  and  C_4 
REMARK    2  A    between atoms: N_2  and  C_10 
REMARK    3  A    between atoms: C_10  and  C_11 
REMARK    4  A    between atoms: C_12  and  N_13 
REMARK       I    between atoms: N_13  and  C_14 
REMARK       I    between atoms: C_14  and  N_15 
REMARK    5  A    between atoms: N_15  and  C_16 
REMARK    6  A    between atoms: C_16  and  C_17 
REMARK    7  A    between atoms: C_17  and  C_18 
ROOT
HETATM    1  C   UNL     1      40.882 -14.597   3.481  1.00  0.00    -0.006 A 
HETATM    2  C   UNL     1      41.513 -13.397   3.092  1.00  0.00     0.044 A 
HETATM    3  C   UNL     1      41.700 -12.393   4.071  1.00  0.00     0.030 A 
HETATM    4  C   UNL     1      41.323 -12.567   5.401  1.00  0.00     0.002 A 
HETATM    5  C   UNL     1      40.739 -13.755   5.795  1.00  0.00     0.001 A 
HETATM    6  C   UNL     1      40.519 -14.752   4.848  1.00  0.00     0.011 A 
ENDROOT
BRANCH   2   7
HETATM    7  N   UNL     1      42.019 -13.016   1.824  1.00  0.00    -0.308 N 
HETATM    8  C   UNL     1      41.554 -12.137   0.888  1.00  0.00     0.320 C 
HETATM    9  N   UNL     1      42.274 -12.195  -0.279  1.00  0.00    -0.343 N 
HETATM   10  O   UNL     1      40.567 -11.423   1.001  1.00  0.00    -0.247 OA
HETATM   11  H   UNL     1      43.200 -12.601  -0.283  1.00  0.00     0.164 HD
HETATM   12  H   UNL     1      42.754 -13.611   1.465  1.00  0.00     0.170 HD
BRANCH   9  13
HETATM   13  C   UNL     1      41.891 -11.416  -1.449  1.00  0.00     0.130 C 
BRANCH  13  14
HETATM   14  C   UNL     1      41.867 -12.263  -2.724  1.00  0.00     0.079 C 
BRANCH  14  15
HETATM   15  C   UNL     1      40.723 -13.252  -2.736  1.00  0.00     0.042 A 
HETATM   16  N   UNL     1      39.685 -12.981  -1.873  1.00  0.00    -0.248 NA
HETATM   17  C   UNL     1      38.694 -13.811  -1.868  1.00  0.00     0.210 A 
HETATM   18  N   UNL     1      38.616 -14.916  -2.661  1.00  0.00    -0.318 N 
HETATM   19  C   UNL     1      39.597 -15.226  -3.553  1.00  0.00     0.248 A 
HETATM   20  H   UNL     1      37.815 -15.530  -2.630  1.00  0.00     0.169 HD
HETATM   21  O   UNL     1      39.538 -16.179  -4.318  1.00  0.00    -0.268 OA
HETATM   22  C   UNL     1      40.745 -14.312  -3.557  1.00  0.00     0.101 A 
ENDBRANCH  14  15
ENDBRANCH  13  14
ENDBRANCH   9  13
ENDBRANCH   2   7
BRANCH   1  23
HETATM   23  C   UNL     1      40.464 -15.748   2.589  1.00  0.00     0.275 C 
BRANCH  23  24
HETATM   24  N   UNL     1      41.538 -16.509   1.824  1.00  0.00    -0.067 N 
HETATM   25  C   UNL     1      41.536 -16.188   0.353  1.00  0.00     0.270 C 
HETATM   26  H   UNL     1      41.185 -17.485   1.899  1.00  0.00     0.280 HD
BRANCH  24  27
HETATM   27  C   UNL     1      42.939 -16.475   2.436  1.00  0.00     0.188 C 
HETATM   28  C   UNL     1      43.016 -17.076   3.852  1.00  0.00     0.033 C 
HETATM   29  C   UNL     1      42.884 -18.597   3.889  1.00  0.00     0.002 C 
HETATM   30  C   UNL     1      43.910 -19.263   2.983  1.00  0.00     0.000 C 
HETATM   31  C   UNL     1      43.842 -18.723   1.560  1.00  0.00     0.002 C 
HETATM   32  C   UNL     1      43.956 -17.198   1.528  1.00  0.00     0.033 C 
ENDBRANCH  24  27
ENDBRANCH  23  24
ENDBRANCH   1  23
TORSDOF 7
ENDMDL
MODEL 10
REMARK VINA RESULT:      -7.0      5.032      8.896
REMARK  7 active torsions:
REMARK  status: ('A' for Active; 'I' for Inactive)
REMARK    1  A    between atoms: N_2  and  C_4 
REMARK    2  A    between atoms: N_2  and  C_10 
REMARK    3  A    between atoms: C_10  and  C_11 
REMARK    4  A    between atoms: C_12  and  N_13 
REMARK       I    between atoms: N_13  and  C_14 
REMARK       I    between atoms: C_14  and  N_15 
REMARK    5  A    between atoms: N_15  and  C_16 
REMARK    6  A    between atoms: C_16  and  C_17 
REMARK    7  A    between atoms: C_17  and  C_18 
ROOT
HETATM    1  C   UNL     1      41.476 -15.228   3.833  1.00  0.00    -0.006 A 
HETATM    2  C   UNL     1      41.947 -14.261   2.920  1.00  0.00     0.044 A 
HETATM    3  C   UNL     1      42.310 -12.989   3.422  1.00  0.00     0.030 A 
HETATM    4  C   UNL     1      42.257 -12.678   4.779  1.00  0.00     0.002 A 
HETATM    5  C   UNL     1      41.832 -13.634   5.681  1.00  0.00     0.001 A 
HETATM    6  C   UNL     1      41.445 -14.888   5.214  1.00  0.00     0.011 A 
ENDROOT
BRANCH   2   7
HETATM    7  N   UNL     1      42.131 -14.361   1.518  1.00  0.00    -0.308 N 
HETATM    8  C   UNL     1      41.322 -14.022   0.471  1.00  0.00     0.320 C 
HETATM    9  N   UNL     1      41.831 -14.444  -0.733  1.00  0.00    -0.343 N 
HETATM   10  O   UNL     1      40.228 -13.480   0.553  1.00  0.00    -0.247 OA
HETATM   11  H   UNL     1      42.811 -14.673  -0.815  1.00  0.00     0.164 HD
HETATM   12  H   UNL     1      42.913 -14.935   1.233  1.00  0.00     0.170 HD
BRANCH   9  13
HETATM   13  C   UNL     1      41.086 -14.277  -1.973  1.00  0.00     0.130 C 
BRANCH  13  14
HETATM   14  C   UNL     1      41.975 -13.787  -3.120  1.00  0.00     0.079 C 
BRANCH  14  15
HETATM   15  C   UNL     1      42.333 -12.325  -2.984  1.00  0.00     0.042 A 
HETATM   16  N   UNL     1      42.904 -11.953  -1.787  1.00  0.00    -0.248 NA
HETATM   17  C   UNL     1      43.222 -10.709  -1.650  1.00  0.00     0.210 A 
HETATM   18  N   UNL     1      43.036  -9.760  -2.609  1.00  0.00    -0.318 N 
HETATM   19  C   UNL     1      42.501 -10.066  -3.822  1.00  0.00     0.248 A 
HETATM   20  H   UNL     1      43.312  -8.800  -2.460  1.00  0.00     0.169 HD
HETATM   21  O   UNL     1      42.367  -9.253  -4.728  1.00  0.00    -0.268 OA
HETATM   22  C   UNL     1      42.107 -11.470  -3.992  1.00  0.00     0.101 A 
ENDBRANCH  14  15
ENDBRANCH  13  14
ENDBRANCH   9  13
ENDBRANCH   2   7
BRANCH   1  23
HETATM   23  C   UNL     1      40.916 -16.599   3.515  1.00  0.00     0.275 C 
BRANCH  23  24
HETATM   24  N   UNL     1      41.796 -17.596   2.774  1.00  0.00    -0.067 N 
HETATM   25  C   UNL     1      41.430 -17.720   1.319  1.00  0.00     0.270 C 
HETATM   26  H   UNL     1      41.501 -18.491   3.215  1.00  0.00     0.280 HD
BRANCH  24  27
HETATM   27  C   UNL     1      43.302 -17.444   2.995  1.00  0.00     0.188 C 
HETATM   28  C   UNL     1      43.757 -17.768   4.430  1.00  0.00     0.033 C 
HETATM   29  C   UNL     1      43.715 -19.255   4.775  1.00  0.00     0.002 C 
HETATM   30  C   UNL     1      44.516 -20.077   3.775  1.00  0.00     0.000 C 
HETATM   31  C   UNL     1      44.070 -19.815   2.342  1.00  0.00     0.002 C 
HETATM   32  C   UNL     1      44.097 -18.323   2.006  1.00  0.00     0.033 C 
ENDBRANCH  24  27
ENDBRANCH  23  24
ENDBRANCH   1  23
TORSDOF 7
ENDMDL
