MODEL 1
REMARK VINA RESULT:      -8.1      0.000      0.000
REMARK  10 active torsions:
REMARK  status: ('A' for Active; 'I' for Inactive)
REMARK    1  A    between atoms: C_2  and  N_3 
REMARK    2  A    between atoms: N_3  and  C_4 
REMARK    3  A    between atoms: N_3  and  C_37 
REMARK    4  A    between atoms: C_7  and  C_8 
REMARK    5  A    between atoms: N_9  and  C_11 
REMARK    6  A    between atoms: C_11  and  C_12 
REMARK       I    between atoms: C_12  and  N_13 
REMARK    7  A    between atoms: N_13  and  C_14 
REMARK    8  A    between atoms: C_20  and  C_21 
REMARK    9  A    between atoms: C_21  and  O_22 
REMARK   10  A    between atoms: C_28  and  O_29 
ROOT
HETATM    1  C   UNL     1      43.611 -18.506   3.493  1.00  0.00     0.228 C 
HETATM    2  N   UNL     1      43.297 -18.182   4.955  1.00  0.00    -0.054 N 
HETATM    3  H   UNL     1      43.650 -17.222   5.033  1.00  0.00     0.281 HD
HETATM    4  C   UNL     1      44.152 -18.942   5.936  1.00  0.00     0.239 C 
HETATM    5  C   UNL     1      44.258 -20.433   5.659  1.00  0.00     0.066 C 
HETATM    6  C   UNL     1      44.575 -20.741   4.197  1.00  0.00     0.065 C 
HETATM    7  C   UNL     1      43.605 -20.027   3.227  1.00  0.00     0.055 C 
HETATM    8  C   UNL     1      44.566 -22.261   3.948  1.00  0.00     0.038 C 
HETATM    9  C   UNL     1      44.894 -22.611   2.496  1.00  0.00     0.003 C 
HETATM   10  C   UNL     1      43.990 -21.870   1.520  1.00  0.00     0.001 C 
HETATM   11  C   UNL     1      43.997 -20.362   1.767  1.00  0.00     0.010 C 
ENDROOT
BRANCH   2  12
HETATM   12  C   UNL     1      41.826 -17.995   5.368  1.00  0.00     0.338 C 
BRANCH  12  13
HETATM   13  C   UNL     1      41.342 -16.587   5.716  1.00  0.00     0.248 C 
HETATM   14  N   UNL     1      41.369 -15.722   4.636  1.00  0.00    -0.319 N 
HETATM   15  H   UNL     1      41.823 -16.013   3.768  1.00  0.00     0.169 HD
HETATM   16  O   UNL     1      41.022 -16.306   6.864  1.00  0.00    -0.271 OA
BRANCH  14  17
HETATM   17  C   UNL     1      40.985 -14.383   4.638  1.00  0.00     0.094 A 
HETATM   18  S   UNL     1      39.395 -13.926   4.287  1.00  0.00    -0.076 SA
HETATM   19  C   UNL     1      39.734 -12.271   4.489  1.00  0.00    -0.012 A 
HETATM   20  C   UNL     1      38.630 -11.275   4.315  1.00  0.00     0.057 C 
HETATM   21  C   UNL     1      41.063 -12.044   4.822  1.00  0.00    -0.030 A 
HETATM   22  C   UNL     1      41.633 -10.683   5.091  1.00  0.00     0.050 C 
HETATM   23  C   UNL     1      41.815 -13.293   4.874  1.00  0.00     0.080 A 
BRANCH  23  24
HETATM   24  C   UNL     1      43.245 -13.485   5.157  1.00  0.00     0.296 C 
HETATM   25  O   UNL     1      44.074 -13.609   4.257  1.00  0.00    -0.259 OA
BRANCH  24  26
HETATM   26  O   UNL     1      43.548 -13.502   6.483  1.00  0.00    -0.322 OA
HETATM   27  C   UNL     1      44.255 -14.662   6.922  1.00  0.00     0.213 C 
ENDBRANCH  24  26
ENDBRANCH  23  24
ENDBRANCH  14  17
ENDBRANCH  12  13
ENDBRANCH   2  12
BRANCH   1  28
HETATM   28  C   UNL     1      42.817 -17.628   2.540  1.00  0.00    -0.027 A 
HETATM   29  C   UNL     1      43.347 -16.390   2.153  1.00  0.00     0.011 A 
HETATM   30  C   UNL     1      42.674 -15.571   1.237  1.00  0.00     0.030 A 
HETATM   31  C   UNL     1      41.443 -15.941   0.684  1.00  0.00     0.030 A 
HETATM   32  C   UNL     1      40.904 -17.164   1.112  1.00  0.00     0.030 A 
HETATM   33  C   UNL     1      41.572 -17.998   2.020  1.00  0.00     0.011 A 
BRANCH  31  34
HETATM   34  N   UNL     1      40.792 -15.182  -0.286  1.00  0.00    -0.382 N 
BRANCH  34  35
HETATM   35  C   UNL     1      41.461 -14.830  -1.550  1.00  0.00     0.118 C 
HETATM   36  C   UNL     1      40.963 -15.694  -2.701  1.00  0.00     0.026 C 
ENDBRANCH  34  35
BRANCH  34  37
HETATM   37  C   UNL     1      39.728 -14.266   0.157  1.00  0.00     0.118 C 
HETATM   38  C   UNL     1      40.303 -12.947   0.656  1.00  0.00     0.026 C 
ENDBRANCH  34  37
ENDBRANCH  31  34
ENDBRANCH   1  28
BRANCH   6  39
HETATM   39  O   UNL     1      45.895 -20.225   3.963  1.00  0.00    -0.389 OA
HETATM   40  H   UNL     1      46.176 -19.708   4.742  1.00  0.00     0.210 HD
ENDBRANCH   6  39
TORSDOF 10
ENDMDL
MODEL 2
REMARK VINA RESULT:      -8.0      2.367      7.329
REMARK  10 active torsions:
REMARK  status: ('A' for Active; 'I' for Inactive)
REMARK    1  A    between atoms: C_2  and  N_3 
REMARK    2  A    between atoms: N_3  and  C_4 
REMARK    3  A    between atoms: N_3  and  C_37 
REMARK    4  A    between atoms: C_7  and  C_8 
REMARK    5  A    between atoms: N_9  and  C_11 
REMARK    6  A    between atoms: C_11  and  C_12 
REMARK       I    between atoms: C_12  and  N_13 
REMARK    7  A    between atoms: N_13  and  C_14 
REMARK    8  A    between atoms: C_20  and  C_21 
REMARK    9  A    between atoms: C_21  and  O_22 
REMARK   10  A    between atoms: C_28  and  O_29 
ROOT
HETATM    1  C   UNL     1      39.849 -13.332   3.109  1.00  0.00     0.228 C 
HETATM    2  N   UNL     1      40.342 -14.419   4.066  1.00  0.00    -0.054 N 
HETATM    3  H   UNL     1      39.737 -15.207   3.810  1.00  0.00     0.281 HD
HETATM    4  C   UNL     1      39.981 -14.162   5.506  1.00  0.00     0.239 C 
HETATM    5  C   UNL     1      40.281 -12.752   5.990  1.00  0.00     0.066 C 
HETATM    6  C   UNL     1      39.779 -11.678   5.027  1.00  0.00     0.065 C 
HETATM    7  C   UNL     1      40.264 -11.921   3.578  1.00  0.00     0.055 C 
HETATM    8  C   UNL     1      40.200 -10.277   5.509  1.00  0.00     0.038 C 
HETATM    9  C   UNL     1      39.704  -9.171   4.577  1.00  0.00     0.003 C 
HETATM   10  C   UNL     1      40.118  -9.423   3.134  1.00  0.00     0.001 C 
HETATM   11  C   UNL     1      39.702 -10.813   2.654  1.00  0.00     0.010 C 
ENDROOT
BRANCH   2  12
HETATM   12  C   UNL     1      41.738 -15.026   3.833  1.00  0.00     0.338 C 
BRANCH  12  13
HETATM   13  C   UNL     1      41.857 -16.544   3.696  1.00  0.00     0.248 C 
HETATM   14  N   UNL     1      43.169 -16.986   3.682  1.00  0.00    -0.319 N 
HETATM   15  H   UNL     1      43.929 -16.306   3.615  1.00  0.00     0.169 HD
HETATM   16  O   UNL     1      40.855 -17.237   3.567  1.00  0.00    -0.271 OA
BRANCH  14  17
HETATM   17  C   UNL     1      43.595 -18.308   3.575  1.00  0.00     0.094 A 
HETATM   18  S   UNL     1      43.480 -19.152   2.114  1.00  0.00    -0.076 SA
HETATM   19  C   UNL     1      44.155 -20.566   2.777  1.00  0.00    -0.012 A 
HETATM   20  C   UNL     1      44.346 -21.762   1.898  1.00  0.00     0.057 C 
HETATM   21  C   UNL     1      44.472 -20.416   4.120  1.00  0.00    -0.030 A 
HETATM   22  C   UNL     1      45.110 -21.491   4.949  1.00  0.00     0.050 C 
HETATM   23  C   UNL     1      44.106 -19.089   4.605  1.00  0.00     0.080 A 
BRANCH  23  24
HETATM   24  C   UNL     1      44.245 -18.545   5.963  1.00  0.00     0.296 C 
HETATM   25  O   UNL     1      45.332 -18.174   6.406  1.00  0.00    -0.259 OA
BRANCH  24  26
HETATM   26  O   UNL     1      43.078 -18.487   6.658  1.00  0.00    -0.322 OA
HETATM   27  C   UNL     1      42.843 -17.253   7.336  1.00  0.00     0.213 C 
ENDBRANCH  24  26
ENDBRANCH  23  24
ENDBRANCH  14  17
ENDBRANCH  12  13
ENDBRANCH   2  12
BRANCH   1  28
HETATM   28  C   UNL     1      40.124 -13.693   1.658  1.00  0.00    -0.027 A 
HETATM   29  C   UNL     1      39.053 -14.061   0.833  1.00  0.00     0.011 A 
HETATM   30  C   UNL     1      39.252 -14.352  -0.522  1.00  0.00     0.030 A 
HETATM   31  C   UNL     1      40.523 -14.305  -1.107  1.00  0.00     0.030 A 
HETATM   32  C   UNL     1      41.592 -13.976  -0.260  1.00  0.00     0.030 A 
HETATM   33  C   UNL     1      41.404 -13.673   1.096  1.00  0.00     0.011 A 
BRANCH  31  34
HETATM   34  N   UNL     1      40.736 -14.514  -2.467  1.00  0.00    -0.382 N 
BRANCH  34  35
HETATM   35  C   UNL     1      40.597 -15.855  -3.061  1.00  0.00     0.118 C 
HETATM   36  C   UNL     1      39.321 -15.967  -3.886  1.00  0.00     0.026 C 
ENDBRANCH  34  35
BRANCH  34  37
HETATM   37  C   UNL     1      41.636 -13.587  -3.172  1.00  0.00     0.118 C 
HETATM   38  C   UNL     1      40.902 -12.327  -3.612  1.00  0.00     0.026 C 
ENDBRANCH  34  37
ENDBRANCH  31  34
ENDBRANCH   1  28
BRANCH   6  39
HETATM   39  O   UNL     1      38.346 -11.777   5.037  1.00  0.00    -0.389 OA
HETATM   40  H   UNL     1      38.075 -12.507   4.447  1.00  0.00     0.210 HD
ENDBRANCH   6  39
TORSDOF 10
ENDMDL
MODEL 3
REMARK VINA RESULT:      -7.7      2.424      3.238
REMARK  10 active torsions:
REMARK  status: ('A' for Active; 'I' for Inactive)
REMARK    1  A    between atoms: C_2  and  N_3 
REMARK    2  A    between atoms: N_3  and  C_4 
REMARK    3  A    between atoms: N_3  and  C_37 
REMARK    4  A    between atoms: C_7  and  C_8 
REMARK    5  A    between atoms: N_9  and  C_11 
REMARK    6  A    between atoms: C_11  and  C_12 
REMARK       I    between atoms: C_12  and  N_13 
REMARK    7  A    between atoms: N_13  and  C_14 
REMARK    8  A    between atoms: C_20  and  C_21 
REMARK    9  A    between atoms: C_21  and  O_22 
REMARK   10  A    between atoms: C_28  and  O_29 
ROOT
HETATM    1  C   UNL     1      43.236 -16.475   4.956  1.00  0.00     0.228 C 
HETATM    2  N   UNL     1      42.547 -15.946   6.216  1.00  0.00    -0.054 N 
HETATM    3  H   UNL     1      42.862 -14.970   6.227  1.00  0.00     0.281 HD
HETATM    4  C   UNL     1      43.116 -16.506   7.493  1.00  0.00     0.239 C 
HETATM    5  C   UNL     1      43.298 -18.016   7.496  1.00  0.00     0.066 C 
HETATM    6  C   UNL     1      43.991 -18.529   6.235  1.00  0.00     0.065 C 
HETATM    7  C   UNL     1      43.307 -18.018   4.945  1.00  0.00     0.055 C 
HETATM    8  C   UNL     1      44.055 -20.068   6.239  1.00  0.00     0.038 C 
HETATM    9  C   UNL     1      44.755 -20.621   4.998  1.00  0.00     0.003 C 
HETATM   10  C   UNL     1      44.137 -20.081   3.715  1.00  0.00     0.001 C 
HETATM   11  C   UNL     1      44.071 -18.554   3.710  1.00  0.00     0.010 C 
ENDROOT
BRANCH   2  12
HETATM   12  C   UNL     1      41.017 -15.767   6.197  1.00  0.00     0.338 C 
BRANCH  12  13
HETATM   13  C   UNL     1      40.447 -14.444   5.685  1.00  0.00     0.248 C 
HETATM   14  N   UNL     1      41.093 -13.337   6.207  1.00  0.00    -0.319 N 
HETATM   15  H   UNL     1      41.765 -13.457   6.967  1.00  0.00     0.169 HD
HETATM   16  O   UNL     1      39.484 -14.433   4.929  1.00  0.00    -0.271 OA
BRANCH  14  17
HETATM   17  C   UNL     1      40.807 -12.002   5.926  1.00  0.00     0.094 A 
HETATM   18  S   UNL     1      41.236 -11.305   4.447  1.00  0.00    -0.076 SA
HETATM   19  C   UNL     1      40.585  -9.792   4.872  1.00  0.00    -0.012 A 
HETATM   20  C   UNL     1      40.647  -8.669   3.883  1.00  0.00     0.057 C 
HETATM   21  C   UNL     1      40.036  -9.796   6.147  1.00  0.00    -0.030 A 
HETATM   22  C   UNL     1      39.364  -8.607   6.768  1.00  0.00     0.050 C 
HETATM   23  C   UNL     1      40.200 -11.096   6.789  1.00  0.00     0.080 A 
BRANCH  23  24
HETATM   24  C   UNL     1      39.790 -11.504   8.140  1.00  0.00     0.296 C 
HETATM   25  O   UNL     1      38.852 -12.277   8.329  1.00  0.00    -0.259 OA
BRANCH  24  26
HETATM   26  O   UNL     1      40.542 -10.959   9.133  1.00  0.00    -0.322 OA
HETATM   27  C   UNL     1      39.841 -10.721  10.354  1.00  0.00     0.213 C 
ENDBRANCH  24  26
ENDBRANCH  23  24
ENDBRANCH  14  17
ENDBRANCH  12  13
ENDBRANCH   2  12
BRANCH   1  28
HETATM   28  C   UNL     1      42.716 -15.793   3.702  1.00  0.00    -0.027 A 
HETATM   29  C   UNL     1      43.183 -14.510   3.382  1.00  0.00     0.011 A 
HETATM   30  C   UNL     1      42.771 -13.864   2.210  1.00  0.00     0.030 A 
HETATM   31  C   UNL     1      41.868 -14.457   1.319  1.00  0.00     0.030 A 
HETATM   32  C   UNL     1      41.377 -15.723   1.673  1.00  0.00     0.030 A 
HETATM   33  C   UNL     1      41.789 -16.385   2.839  1.00  0.00     0.011 A 
BRANCH  31  34
HETATM   34  N   UNL     1      41.503 -13.869   0.111  1.00  0.00    -0.382 N 
BRANCH  34  35
HETATM   35  C   UNL     1      41.614 -12.414  -0.090  1.00  0.00     0.118 C 
HETATM   36  C   UNL     1      42.569 -12.082  -1.230  1.00  0.00     0.026 C 
ENDBRANCH  34  35
BRANCH  34  37
HETATM   37  C   UNL     1      40.498 -14.559  -0.714  1.00  0.00     0.118 C 
HETATM   38  C   UNL     1      39.192 -13.776  -0.768  1.00  0.00     0.026 C 
ENDBRANCH  34  37
ENDBRANCH  31  34
ENDBRANCH   1  28
BRANCH   6  39
HETATM   39  O   UNL     1      45.324 -17.994   6.271  1.00  0.00    -0.389 OA
HETATM   40  H   UNL     1      45.282 -17.029   6.124  1.00  0.00     0.210 HD
ENDBRANCH   6  39
TORSDOF 10
ENDMDL
MODEL 4
REMARK VINA RESULT:      -7.6      2.399      7.584
REMARK  10 active torsions:
REMARK  status: ('A' for Active; 'I' for Inactive)
REMARK    1  A    between atoms: C_2  and  N_3 
REMARK    2  A    between atoms: N_3  and  C_4 
REMARK    3  A    between atoms: N_3  and  C_37 
REMARK    4  A    between atoms: C_7  and  C_8 
REMARK    5  A    between atoms: N_9  and  C_11 
REMARK    6  A    between atoms: C_11  and  C_12 
REMARK       I    between atoms: C_12  and  N_13 
REMARK    7  A    between atoms: N_13  and  C_14 
REMARK    8  A    between atoms: C_20  and  C_21 
REMARK    9  A    between atoms: C_21  and  O_22 
REMARK   10  A    between atoms: C_28  and  O_29 
ROOT
HETATM    1  C   UNL     1      40.076 -12.858   3.535  1.00  0.00     0.228 C 
HETATM    2  N   UNL     1      40.511 -13.944   4.522  1.00  0.00    -0.054 N 
HETATM    3  H   UNL     1      39.891 -14.718   4.261  1.00  0.00     0.281 HD
HETATM    4  C   UNL     1      40.118 -13.654   5.947  1.00  0.00     0.239 C 
HETATM    5  C   UNL     1      40.444 -12.246   6.419  1.00  0.00     0.066 C 
HETATM    6  C   UNL     1      40.001 -11.173   5.426  1.00  0.00     0.065 C 
HETATM    7  C   UNL     1      40.518 -11.452   3.996  1.00  0.00     0.055 C 
HETATM    8  C   UNL     1      40.449  -9.777   5.900  1.00  0.00     0.038 C 
HETATM    9  C   UNL     1      40.011  -8.672   4.938  1.00  0.00     0.003 C 
HETATM   10  C   UNL     1      40.457  -8.959   3.510  1.00  0.00     0.001 C 
HETATM   11  C   UNL     1      40.014 -10.343   3.040  1.00  0.00     0.010 C 
ENDROOT
BRANCH   2  12
HETATM   12  C   UNL     1      41.895 -14.594   4.338  1.00  0.00     0.338 C 
BRANCH  12  13
HETATM   13  C   UNL     1      41.983 -16.120   4.313  1.00  0.00     0.248 C 
HETATM   14  N   UNL     1      43.260 -16.585   4.050  1.00  0.00    -0.319 N 
HETATM   15  H   UNL     1      43.985 -15.927   3.757  1.00  0.00     0.169 HD
HETATM   16  O   UNL     1      40.979 -16.803   4.470  1.00  0.00    -0.271 OA
BRANCH  14  17
HETATM   17  C   UNL     1      43.655 -17.918   3.970  1.00  0.00     0.094 A 
HETATM   18  S   UNL     1      44.255 -18.738   5.321  1.00  0.00    -0.076 SA
HETATM   19  C   UNL     1      44.481 -20.184   4.453  1.00  0.00    -0.012 A 
HETATM   20  C   UNL     1      45.015 -21.386   5.167  1.00  0.00     0.057 C 
HETATM   21  C   UNL     1      44.108 -20.060   3.121  1.00  0.00    -0.030 A 
HETATM   22  C   UNL     1      44.170 -21.185   2.132  1.00  0.00     0.050 C 
HETATM   23  C   UNL     1      43.652 -18.706   2.824  1.00  0.00     0.080 A 
BRANCH  23  24
HETATM   24  C   UNL     1      43.203 -18.157   1.536  1.00  0.00     0.296 C 
HETATM   25  O   UNL     1      43.958 -17.518   0.804  1.00  0.00    -0.259 OA
BRANCH  24  26
HETATM   26  O   UNL     1      41.904 -18.430   1.243  1.00  0.00    -0.322 OA
HETATM   27  C   UNL     1      41.099 -17.284   0.964  1.00  0.00     0.213 C 
ENDBRANCH  24  26
ENDBRANCH  23  24
ENDBRANCH  14  17
ENDBRANCH  12  13
ENDBRANCH   2  12
BRANCH   1  28
HETATM   28  C   UNL     1      40.380 -13.249   2.099  1.00  0.00    -0.027 A 
HETATM   29  C   UNL     1      39.360 -13.801   1.312  1.00  0.00     0.011 A 
HETATM   30  C   UNL     1      39.581 -14.128  -0.031  1.00  0.00     0.030 A 
HETATM   31  C   UNL     1      40.826 -13.937  -0.642  1.00  0.00     0.030 A 
HETATM   32  C   UNL     1      41.850 -13.424   0.169  1.00  0.00     0.030 A 
HETATM   33  C   UNL     1      41.639 -13.082   1.513  1.00  0.00     0.011 A 
BRANCH  31  34
HETATM   34  N   UNL     1      41.049 -14.182  -1.994  1.00  0.00    -0.382 N 
BRANCH  34  35
HETATM   35  C   UNL     1      40.816 -13.136  -3.004  1.00  0.00     0.118 C 
HETATM   36  C   UNL     1      42.116 -12.449  -3.402  1.00  0.00     0.026 C 
ENDBRANCH  34  35
BRANCH  34  37
HETATM   37  C   UNL     1      40.941 -15.572  -2.468  1.00  0.00     0.118 C 
HETATM   38  C   UNL     1      39.818 -15.726  -3.485  1.00  0.00     0.026 C 
ENDBRANCH  34  37
ENDBRANCH  31  34
ENDBRANCH   1  28
BRANCH   6  39
HETATM   39  O   UNL     1      38.566 -11.231   5.397  1.00  0.00    -0.389 OA
HETATM   40  H   UNL     1      38.271 -12.020   5.892  1.00  0.00     0.210 HD
ENDBRANCH   6  39
TORSDOF 10
ENDMDL
MODEL 5
REMARK VINA RESULT:      -7.6      3.579      8.057
REMARK  10 active torsions:
REMARK  status: ('A' for Active; 'I' for Inactive)
REMARK    1  A    between atoms: C_2  and  N_3 
REMARK    2  A    between atoms: N_3  and  C_4 
REMARK    3  A    between atoms: N_3  and  C_37 
REMARK    4  A    between atoms: C_7  and  C_8 
REMARK    5  A    between atoms: N_9  and  C_11 
REMARK    6  A    between atoms: C_11  and  C_12 
REMARK       I    between atoms: C_12  and  N_13 
REMARK    7  A    between atoms: N_13  and  C_14 
REMARK    8  A    between atoms: C_20  and  C_21 
REMARK    9  A    between atoms: C_21  and  O_22 
REMARK   10  A    between atoms: C_28  and  O_29 
ROOT
HETATM    1  C   UNL     1      42.085 -14.603   2.258  1.00  0.00     0.228 C 
HETATM    2  N   UNL     1      41.846 -14.205   0.800  1.00  0.00    -0.054 N 
HETATM    3  H   UNL     1      42.784 -14.316   0.401  1.00  0.00     0.281 HD
HETATM    4  C   UNL     1      41.565 -12.736   0.616  1.00  0.00     0.239 C 
HETATM    5  C   UNL     1      40.531 -12.166   1.573  1.00  0.00     0.066 C 
HETATM    6  C   UNL     1      40.785 -12.567   3.024  1.00  0.00     0.065 C 
HETATM    7  C   UNL     1      40.958 -14.096   3.185  1.00  0.00     0.055 C 
HETATM    8  C   UNL     1      39.653 -12.054   3.935  1.00  0.00     0.038 C 
HETATM    9  C   UNL     1      39.878 -12.425   5.401  1.00  0.00     0.003 C 
HETATM   10  C   UNL     1      40.114 -13.919   5.575  1.00  0.00     0.001 C 
HETATM   11  C   UNL     1      41.235 -14.430   4.671  1.00  0.00     0.010 C 
ENDROOT
BRANCH   2  12
HETATM   12  C   UNL     1      41.026 -15.152  -0.095  1.00  0.00     0.338 C 
BRANCH  12  13
HETATM   13  C   UNL     1      40.375 -14.578  -1.355  1.00  0.00     0.248 C 
HETATM   14  N   UNL     1      38.997 -14.492  -1.262  1.00  0.00    -0.319 N 
HETATM   15  H   UNL     1      38.517 -14.929  -0.472  1.00  0.00     0.169 HD
HETATM   16  O   UNL     1      41.057 -14.289  -2.330  1.00  0.00    -0.271 OA
BRANCH  14  17
HETATM   17  C   UNL     1      38.130 -14.007  -2.239  1.00  0.00     0.094 A 
HETATM   18  S   UNL     1      37.544 -15.011  -3.467  1.00  0.00    -0.076 SA
HETATM   19  C   UNL     1      36.633 -13.759  -4.174  1.00  0.00    -0.012 A 
HETATM   20  C   UNL     1      35.810 -14.055  -5.388  1.00  0.00     0.057 C 
HETATM   21  C   UNL     1      36.768 -12.560  -3.487  1.00  0.00    -0.030 A 
HETATM   22  C   UNL     1      36.052 -11.298  -3.869  1.00  0.00     0.050 C 
HETATM   23  C   UNL     1      37.685 -12.696  -2.361  1.00  0.00     0.080 A 
BRANCH  23  24
HETATM   24  C   UNL     1      38.119 -11.663  -1.409  1.00  0.00     0.296 C 
HETATM   25  O   UNL     1      39.265 -11.214  -1.417  1.00  0.00    -0.259 OA
BRANCH  24  26
HETATM   26  O   UNL     1      37.147 -11.261  -0.548  1.00  0.00    -0.322 OA
HETATM   27  C   UNL     1      36.947 -12.121   0.574  1.00  0.00     0.213 C 
ENDBRANCH  24  26
ENDBRANCH  23  24
ENDBRANCH  14  17
ENDBRANCH  12  13
ENDBRANCH   2  12
BRANCH   1  28
HETATM   28  C   UNL     1      42.487 -16.063   2.384  1.00  0.00    -0.027 A 
HETATM   29  C   UNL     1      43.725 -16.475   1.872  1.00  0.00     0.011 A 
HETATM   30  C   UNL     1      44.159 -17.800   2.010  1.00  0.00     0.030 A 
HETATM   31  C   UNL     1      43.375 -18.769   2.647  1.00  0.00     0.030 A 
HETATM   32  C   UNL     1      42.121 -18.352   3.118  1.00  0.00     0.030 A 
HETATM   33  C   UNL     1      41.679 -17.027   2.994  1.00  0.00     0.011 A 
BRANCH  31  34
HETATM   34  N   UNL     1      43.816 -20.072   2.866  1.00  0.00    -0.382 N 
BRANCH  34  35
HETATM   35  C   UNL     1      44.944 -20.350   3.771  1.00  0.00     0.118 C 
HETATM   36  C   UNL     1      44.510 -20.296   5.231  1.00  0.00     0.026 C 
ENDBRANCH  34  35
BRANCH  34  37
HETATM   37  C   UNL     1      43.582 -21.064   1.804  1.00  0.00     0.118 C 
HETATM   38  C   UNL     1      44.595 -22.200   1.872  1.00  0.00     0.026 C 
ENDBRANCH  34  37
ENDBRANCH  31  34
ENDBRANCH   1  28
BRANCH   6  39
HETATM   39  O   UNL     1      42.021 -11.939   3.398  1.00  0.00    -0.389 OA
HETATM   40  H   UNL     1      42.527 -11.730   2.588  1.00  0.00     0.210 HD
ENDBRANCH   6  39
TORSDOF 10
ENDMDL
MODEL 6
REMARK VINA RESULT:      -7.5      2.931      5.666
REMARK  10 active torsions:
REMARK  status: ('A' for Active; 'I' for Inactive)
REMARK    1  A    between atoms: C_2  and  N_3 
REMARK    2  A    between atoms: N_3  and  C_4 
REMARK    3  A    between atoms: N_3  and  C_37 
REMARK    4  A    between atoms: C_7  and  C_8 
REMARK    5  A    between atoms: N_9  and  C_11 
REMARK    6  A    between atoms: C_11  and  C_12 
REMARK       I    between atoms: C_12  and  N_13 
REMARK    7  A    between atoms: N_13  and  C_14 
REMARK    8  A    between atoms: C_20  and  C_21 
REMARK    9  A    between atoms: C_21  and  O_22 
REMARK   10  A    between atoms: C_28  and  O_29 
ROOT
HETATM    1  C   UNL     1      42.045 -16.387   3.879  1.00  0.00     0.228 C 
HETATM    2  N   UNL     1      42.088 -16.923   2.446  1.00  0.00    -0.054 N 
HETATM    3  H   UNL     1      41.094 -16.913   2.194  1.00  0.00     0.281 HD
HETATM    4  C   UNL     1      42.450 -18.383   2.361  1.00  0.00     0.239 C 
HETATM    5  C   UNL     1      43.660 -18.784   3.191  1.00  0.00     0.066 C 
HETATM    6  C   UNL     1      43.600 -18.246   4.619  1.00  0.00     0.065 C 
HETATM    7  C   UNL     1      43.336 -16.722   4.658  1.00  0.00     0.055 C 
HETATM    8  C   UNL     1      44.894 -18.588   5.382  1.00  0.00     0.038 C 
HETATM    9  C   UNL     1      44.868 -18.077   6.823  1.00  0.00     0.003 C 
HETATM   10  C   UNL     1      44.547 -16.590   6.888  1.00  0.00     0.001 C 
HETATM   11  C   UNL     1      43.265 -16.249   6.130  1.00  0.00     0.010 C 
ENDROOT
BRANCH   2  12
HETATM   12  C   UNL     1      42.686 -16.029   1.344  1.00  0.00     0.338 C 
BRANCH  12  13
HETATM   13  C   UNL     1      41.749 -15.475   0.270  1.00  0.00     0.248 C 
HETATM   14  N   UNL     1      41.471 -14.130   0.435  1.00  0.00    -0.319 N 
HETATM   15  H   UNL     1      41.764 -13.656   1.292  1.00  0.00     0.169 HD
HETATM   16  O   UNL     1      41.289 -16.212  -0.593  1.00  0.00    -0.271 OA
BRANCH  14  17
HETATM   17  C   UNL     1      40.659 -13.346  -0.383  1.00  0.00     0.094 A 
HETATM   18  S   UNL     1      38.975 -13.382  -0.239  1.00  0.00    -0.076 SA
HETATM   19  C   UNL     1      38.758 -12.243  -1.484  1.00  0.00    -0.012 A 
HETATM   20  C   UNL     1      37.370 -11.813  -1.844  1.00  0.00     0.057 C 
HETATM   21  C   UNL     1      39.964 -11.824  -2.029  1.00  0.00    -0.030 A 
HETATM   22  C   UNL     1      40.074 -10.800  -3.119  1.00  0.00     0.050 C 
HETATM   23  C   UNL     1      41.092 -12.505  -1.402  1.00  0.00     0.080 A 
BRANCH  23  24
HETATM   24  C   UNL     1      42.523 -12.371  -1.708  1.00  0.00     0.296 C 
HETATM   25  O   UNL     1      43.031 -12.914  -2.689  1.00  0.00    -0.259 OA
BRANCH  24  26
HETATM   26  O   UNL     1      43.207 -11.598  -0.823  1.00  0.00    -0.322 OA
HETATM   27  C   UNL     1      43.490 -10.274  -1.277  1.00  0.00     0.213 C 
ENDBRANCH  24  26
ENDBRANCH  23  24
ENDBRANCH  14  17
ENDBRANCH  12  13
ENDBRANCH   2  12
BRANCH   1  28
HETATM   28  C   UNL     1      41.555 -14.949   3.927  1.00  0.00    -0.027 A 
HETATM   29  C   UNL     1      42.490 -13.917   4.093  1.00  0.00     0.011 A 
HETATM   30  C   UNL     1      42.090 -12.575   4.092  1.00  0.00     0.030 A 
HETATM   31  C   UNL     1      40.749 -12.205   3.943  1.00  0.00     0.030 A 
HETATM   32  C   UNL     1      39.820 -13.249   3.819  1.00  0.00     0.030 A 
HETATM   33  C   UNL     1      40.207 -14.597   3.809  1.00  0.00     0.011 A 
BRANCH  31  34
HETATM   34  N   UNL     1      40.337 -10.878   3.861  1.00  0.00    -0.382 N 
BRANCH  34  35
HETATM   35  C   UNL     1      39.735 -10.344   2.627  1.00  0.00     0.118 C 
HETATM   36  C   UNL     1      40.764 -10.232   1.510  1.00  0.00     0.026 C 
ENDBRANCH  34  35
BRANCH  34  37
HETATM   37  C   UNL     1      41.006  -9.895   4.729  1.00  0.00     0.118 C 
HETATM   38  C   UNL     1      40.228  -9.673   6.019  1.00  0.00     0.026 C 
ENDBRANCH  34  37
ENDBRANCH  31  34
ENDBRANCH   1  28
BRANCH   6  39
HETATM   39  O   UNL     1      42.487 -18.905   5.244  1.00  0.00    -0.389 OA
HETATM   40  H   UNL     1      41.689 -18.763   4.699  1.00  0.00     0.210 HD
ENDBRANCH   6  39
TORSDOF 10
ENDMDL
MODEL 7
REMARK VINA RESULT:      -7.5      3.381      8.677
REMARK  10 active torsions:
REMARK  status: ('A' for Active; 'I' for Inactive)
REMARK    1  A    between atoms: C_2  and  N_3 
REMARK    2  A    between atoms: N_3  and  C_4 
REMARK    3  A    between atoms: N_3  and  C_37 
REMARK    4  A    between atoms: C_7  and  C_8 
REMARK    5  A    between atoms: N_9  and  C_11 
REMARK    6  A    between atoms: C_11  and  C_12 
REMARK       I    between atoms: C_12  and  N_13 
REMARK    7  A    between atoms: N_13  and  C_14 
REMARK    8  A    between atoms: C_20  and  C_21 
REMARK    9  A    between atoms: C_21  and  O_22 
REMARK   10  A    between atoms: C_28  and  O_29 
ROOT
HETATM    1  C   UNL     1      41.617 -12.145   4.796  1.00  0.00     0.228 C 
HETATM    2  N   UNL     1      42.674 -13.247   4.887  1.00  0.00    -0.054 N 
HETATM    3  H   UNL     1      43.438 -12.759   5.365  1.00  0.00     0.281 HD
HETATM    4  C   UNL     1      43.278 -13.613   3.557  1.00  0.00     0.239 C 
HETATM    5  C   UNL     1      42.267 -13.839   2.444  1.00  0.00     0.066 C 
HETATM    6  C   UNL     1      41.221 -12.729   2.362  1.00  0.00     0.065 C 
HETATM    7  C   UNL     1      40.547 -12.461   3.728  1.00  0.00     0.055 C 
HETATM    8  C   UNL     1      40.162 -13.058   1.293  1.00  0.00     0.038 C 
HETATM    9  C   UNL     1      39.103 -11.963   1.170  1.00  0.00     0.003 C 
HETATM   10  C   UNL     1      38.470 -11.639   2.517  1.00  0.00     0.001 C 
HETATM   11  C   UNL     1      39.519 -11.313   3.579  1.00  0.00     0.010 C 
ENDROOT
BRANCH   2  12
HETATM   12  C   UNL     1      42.426 -14.426   5.846  1.00  0.00     0.338 C 
BRANCH  12  13
HETATM   13  C   UNL     1      43.315 -15.664   5.721  1.00  0.00     0.248 C 
HETATM   14  N   UNL     1      42.725 -16.685   4.998  1.00  0.00    -0.319 N 
HETATM   15  H   UNL     1      41.739 -16.615   4.739  1.00  0.00     0.169 HD
HETATM   16  O   UNL     1      44.409 -15.701   6.270  1.00  0.00    -0.271 OA
BRANCH  14  17
HETATM   17  C   UNL     1      43.287 -17.927   4.710  1.00  0.00     0.094 A 
HETATM   18  S   UNL     1      43.683 -19.017   5.940  1.00  0.00    -0.076 SA
HETATM   19  C   UNL     1      44.261 -20.181   4.842  1.00  0.00    -0.012 A 
HETATM   20  C   UNL     1      44.774 -21.486   5.367  1.00  0.00     0.057 C 
HETATM   21  C   UNL     1      44.164 -19.753   3.525  1.00  0.00    -0.030 A 
HETATM   22  C   UNL     1      44.570 -20.589   2.347  1.00  0.00     0.050 C 
HETATM   23  C   UNL     1      43.621 -18.401   3.446  1.00  0.00     0.080 A 
BRANCH  23  24
HETATM   24  C   UNL     1      43.391 -17.579   2.250  1.00  0.00     0.296 C 
HETATM   25  O   UNL     1      44.322 -17.121   1.588  1.00  0.00    -0.259 OA
BRANCH  24  26
HETATM   26  O   UNL     1      42.078 -17.390   1.954  1.00  0.00    -0.322 OA
HETATM   27  C   UNL     1      41.824 -16.898   0.638  1.00  0.00     0.213 C 
ENDBRANCH  24  26
ENDBRANCH  23  24
ENDBRANCH  14  17
ENDBRANCH  12  13
ENDBRANCH   2  12
BRANCH   1  28
HETATM   28  C   UNL     1      41.126 -11.721   6.170  1.00  0.00    -0.027 A 
HETATM   29  C   UNL     1      41.935 -10.888   6.955  1.00  0.00     0.011 A 
HETATM   30  C   UNL     1      41.501 -10.432   8.206  1.00  0.00     0.030 A 
HETATM   31  C   UNL     1      40.257 -10.796   8.733  1.00  0.00     0.030 A 
HETATM   32  C   UNL     1      39.476 -11.664   7.955  1.00  0.00     0.030 A 
HETATM   33  C   UNL     1      39.893 -12.120   6.697  1.00  0.00     0.011 A 
BRANCH  31  34
HETATM   34  N   UNL     1      39.771 -10.294   9.938  1.00  0.00    -0.382 N 
BRANCH  34  35
HETATM   35  C   UNL     1      40.110 -10.935  11.220  1.00  0.00     0.118 C 
HETATM   36  C   UNL     1      40.252  -9.907  12.335  1.00  0.00     0.026 C 
ENDBRANCH  34  35
BRANCH  34  37
HETATM   37  C   UNL     1      38.508  -9.539   9.908  1.00  0.00     0.118 C 
HETATM   38  C   UNL     1      38.739  -8.084   9.524  1.00  0.00     0.026 C 
ENDBRANCH  34  37
ENDBRANCH  31  34
ENDBRANCH   1  28
BRANCH   6  39
HETATM   39  O   UNL     1      41.934 -11.542   1.979  1.00  0.00    -0.389 OA
HETATM   40  H   UNL     1      41.348 -10.983   1.433  1.00  0.00     0.210 HD
ENDBRANCH   6  39
TORSDOF 10
ENDMDL
MODEL 8
REMARK VINA RESULT:      -7.4      2.764      6.175
REMARK  10 active torsions:
REMARK  status: ('A' for Active; 'I' for Inactive)
REMARK    1  A    between atoms: C_2  and  N_3 
REMARK    2  A    between atoms: N_3  and  C_4 
REMARK    3  A    between atoms: N_3  and  C_37 
REMARK    4  A    between atoms: C_7  and  C_8 
REMARK    5  A    between atoms: N_9  and  C_11 
REMARK    6  A    between atoms: C_11  and  C_12 
REMARK       I    between atoms: C_12  and  N_13 
REMARK    7  A    between atoms: N_13  and  C_14 
REMARK    8  A    between atoms: C_20  and  C_21 
REMARK    9  A    between atoms: C_21  and  O_22 
REMARK   10  A    between atoms: C_28  and  O_29 
ROOT
HETATM    1  C   UNL     1      41.941 -16.040   4.846  1.00  0.00     0.228 C 
HETATM    2  N   UNL     1      42.367 -15.991   3.377  1.00  0.00    -0.054 N 
HETATM    3  H   UNL     1      41.462 -15.890   2.905  1.00  0.00     0.281 HD
HETATM    4  C   UNL     1      42.880 -17.308   2.856  1.00  0.00     0.239 C 
HETATM    5  C   UNL     1      43.899 -17.990   3.755  1.00  0.00     0.066 C 
HETATM    6  C   UNL     1      43.459 -18.035   5.217  1.00  0.00     0.065 C 
HETATM    7  C   UNL     1      43.044 -16.642   5.745  1.00  0.00     0.055 C 
HETATM    8  C   UNL     1      44.568 -18.638   6.100  1.00  0.00     0.038 C 
HETATM    9  C   UNL     1      44.160 -18.713   7.571  1.00  0.00     0.003 C 
HETATM   10  C   UNL     1      43.687 -17.364   8.095  1.00  0.00     0.001 C 
HETATM   11  C   UNL     1      42.588 -16.764   7.220  1.00  0.00     0.010 C 
ENDROOT
BRANCH   2  12
HETATM   12  C   UNL     1      43.112 -14.744   2.869  1.00  0.00     0.338 C 
BRANCH  12  13
HETATM   13  C   UNL     1      42.407 -13.836   1.860  1.00  0.00     0.248 C 
HETATM   14  N   UNL     1      41.666 -14.538   0.925  1.00  0.00    -0.319 N 
HETATM   15  H   UNL     1      41.752 -15.555   0.874  1.00  0.00     0.169 HD
HETATM   16  O   UNL     1      42.561 -12.622   1.902  1.00  0.00    -0.271 OA
BRANCH  14  17
HETATM   17  C   UNL     1      40.911 -13.993  -0.111  1.00  0.00     0.094 A 
HETATM   18  S   UNL     1      41.627 -13.545  -1.576  1.00  0.00    -0.076 SA
HETATM   19  C   UNL     1      40.150 -13.019  -2.237  1.00  0.00    -0.012 A 
HETATM   20  C   UNL     1      40.127 -12.486  -3.636  1.00  0.00     0.057 C 
HETATM   21  C   UNL     1      39.094 -13.173  -1.350  1.00  0.00    -0.030 A 
HETATM   22  C   UNL     1      37.673 -12.822  -1.679  1.00  0.00     0.050 C 
HETATM   23  C   UNL     1      39.549 -13.716  -0.074  1.00  0.00     0.080 A 
BRANCH  23  24
HETATM   24  C   UNL     1      38.757 -13.997   1.132  1.00  0.00     0.296 C 
HETATM   25  O   UNL     1      38.744 -15.111   1.655  1.00  0.00    -0.259 OA
BRANCH  24  26
HETATM   26  O   UNL     1      38.067 -12.925   1.601  1.00  0.00    -0.322 OA
HETATM   27  C   UNL     1      38.870 -11.912   2.208  1.00  0.00     0.213 C 
ENDBRANCH  24  26
ENDBRANCH  23  24
ENDBRANCH  14  17
ENDBRANCH  12  13
ENDBRANCH   2  12
BRANCH   1  28
HETATM   28  C   UNL     1      41.315 -14.730   5.294  1.00  0.00    -0.027 A 
HETATM   29  C   UNL     1      42.147 -13.699   5.752  1.00  0.00     0.011 A 
HETATM   30  C   UNL     1      41.619 -12.458   6.127  1.00  0.00     0.030 A 
HETATM   31  C   UNL     1      40.245 -12.196   6.078  1.00  0.00     0.030 A 
HETATM   32  C   UNL     1      39.420 -13.250   5.657  1.00  0.00     0.030 A 
HETATM   33  C   UNL     1      39.937 -14.495   5.270  1.00  0.00     0.011 A 
BRANCH  31  34
HETATM   34  N   UNL     1      39.703 -10.947   6.371  1.00  0.00    -0.382 N 
BRANCH  34  35
HETATM   35  C   UNL     1      39.376  -9.991   5.299  1.00  0.00     0.118 C 
HETATM   36  C   UNL     1      40.635  -9.403   4.676  1.00  0.00     0.026 C 
ENDBRANCH  34  35
BRANCH  34  37
HETATM   37  C   UNL     1      39.997 -10.362   7.689  1.00  0.00     0.118 C 
HETATM   38  C   UNL     1      39.331 -11.152   8.808  1.00  0.00     0.026 C 
ENDBRANCH  34  37
ENDBRANCH  31  34
ENDBRANCH   1  28
BRANCH   6  39
HETATM   39  O   UNL     1      42.302 -18.886   5.255  1.00  0.00    -0.389 OA
HETATM   40  H   UNL     1      41.511 -18.355   5.039  1.00  0.00     0.210 HD
ENDBRANCH   6  39
TORSDOF 10
ENDMDL
MODEL 9
REMARK VINA RESULT:      -7.4      4.438      8.255
REMARK  10 active torsions:
REMARK  status: ('A' for Active; 'I' for Inactive)
REMARK    1  A    between atoms: C_2  and  N_3 
REMARK    2  A    between atoms: N_3  and  C_4 
REMARK    3  A    between atoms: N_3  and  C_37 
REMARK    4  A    between atoms: C_7  and  C_8 
REMARK    5  A    between atoms: N_9  and  C_11 
REMARK    6  A    between atoms: C_11  and  C_12 
REMARK       I    between atoms: C_12  and  N_13 
REMARK    7  A    between atoms: N_13  and  C_14 
REMARK    8  A    between atoms: C_20  and  C_21 
REMARK    9  A    between atoms: C_21  and  O_22 
REMARK   10  A    between atoms: C_28  and  O_29 
ROOT
HETATM    1  C   UNL     1      40.300 -12.771   5.391  1.00  0.00     0.228 C 
HETATM    2  N   UNL     1      40.451 -11.971   6.687  1.00  0.00    -0.054 N 
HETATM    3  H   UNL     1      40.098 -12.637   7.381  1.00  0.00     0.281 HD
HETATM    4  C   UNL     1      39.488 -10.818   6.797  1.00  0.00     0.239 C 
HETATM    5  C   UNL     1      39.404  -9.943   5.555  1.00  0.00     0.066 C 
HETATM    6  C   UNL     1      39.249 -10.755   4.271  1.00  0.00     0.065 C 
HETATM    7  C   UNL     1      40.326 -11.858   4.145  1.00  0.00     0.055 C 
HETATM    8  C   UNL     1      39.276  -9.832   3.038  1.00  0.00     0.038 C 
HETATM    9  C   UNL     1      39.110 -10.607   1.731  1.00  0.00     0.003 C 
HETATM   10  C   UNL     1      40.122 -11.739   1.615  1.00  0.00     0.001 C 
HETATM   11  C   UNL     1      40.097 -12.655   2.838  1.00  0.00     0.010 C 
ENDROOT
BRANCH   2  12
HETATM   12  C   UNL     1      41.869 -11.700   7.223  1.00  0.00     0.338 C 
BRANCH  12  13
HETATM   13  C   UNL     1      42.043 -10.647   8.317  1.00  0.00     0.248 C 
HETATM   14  N   UNL     1      41.672 -11.101   9.572  1.00  0.00    -0.319 N 
HETATM   15  H   UNL     1      41.194 -12.000   9.661  1.00  0.00     0.169 HD
HETATM   16  O   UNL     1      42.429  -9.519   8.038  1.00  0.00    -0.271 OA
BRANCH  14  17
HETATM   17  C   UNL     1      41.723 -10.378  10.762  1.00  0.00     0.094 A 
HETATM   18  S   UNL     1      40.477  -9.324  11.201  1.00  0.00    -0.076 SA
HETATM   19  C   UNL     1      41.244  -8.884  12.655  1.00  0.00    -0.012 A 
HETATM   20  C   UNL     1      40.568  -7.911  13.570  1.00  0.00     0.057 C 
HETATM   21  C   UNL     1      42.461  -9.530  12.822  1.00  0.00    -0.030 A 
HETATM   22  C   UNL     1      43.337  -9.356  14.027  1.00  0.00     0.050 C 
HETATM   23  C   UNL     1      42.765 -10.389  11.682  1.00  0.00     0.080 A 
BRANCH  23  24
HETATM   24  C   UNL     1      43.960 -11.214  11.455  1.00  0.00     0.296 C 
HETATM   25  O   UNL     1      43.970 -12.422  11.694  1.00  0.00    -0.259 OA
BRANCH  24  26
HETATM   26  O   UNL     1      45.021 -10.525  10.959  1.00  0.00    -0.322 OA
HETATM   27  C   UNL     1      45.565 -11.050   9.748  1.00  0.00     0.213 C 
ENDBRANCH  24  26
ENDBRANCH  23  24
ENDBRANCH  14  17
ENDBRANCH  12  13
ENDBRANCH   2  12
BRANCH   1  28
HETATM   28  C   UNL     1      41.201 -13.994   5.378  1.00  0.00    -0.027 A 
HETATM   29  C   UNL     1      40.718 -15.202   5.899  1.00  0.00     0.011 A 
HETATM   30  C   UNL     1      41.494 -16.367   5.861  1.00  0.00     0.030 A 
HETATM   31  C   UNL     1      42.785 -16.375   5.321  1.00  0.00     0.030 A 
HETATM   32  C   UNL     1      43.272 -15.150   4.840  1.00  0.00     0.030 A 
HETATM   33  C   UNL     1      42.502 -13.979   4.863  1.00  0.00     0.011 A 
BRANCH  31  34
HETATM   34  N   UNL     1      43.546 -17.535   5.201  1.00  0.00    -0.382 N 
BRANCH  34  35
HETATM   35  C   UNL     1      43.070 -18.677   4.402  1.00  0.00     0.118 C 
HETATM   36  C   UNL     1      43.053 -18.346   2.915  1.00  0.00     0.026 C 
ENDBRANCH  34  35
BRANCH  34  37
HETATM   37  C   UNL     1      44.486 -17.856   6.288  1.00  0.00     0.118 C 
HETATM   38  C   UNL     1      43.904 -18.896   7.236  1.00  0.00     0.026 C 
ENDBRANCH  34  37
ENDBRANCH  31  34
ENDBRANCH   1  28
BRANCH   6  39
HETATM   39  O   UNL     1      37.967 -11.396   4.361  1.00  0.00    -0.389 OA
HETATM   40  H   UNL     1      38.072 -12.252   4.820  1.00  0.00     0.210 HD
ENDBRANCH   6  39
TORSDOF 10
ENDMDL
MODEL 10
REMARK VINA RESULT:      -7.4      1.787      2.696
REMARK  10 active torsions:
REMARK  status: ('A' for Active; 'I' for Inactive)
REMARK    1  A    between atoms: C_2  and  N_3 
REMARK    2  A    between atoms: N_3  and  C_4 
REMARK    3  A    between atoms: N_3  and  C_37 
REMARK    4  A    between atoms: C_7  and  C_8 
REMARK    5  A    between atoms: N_9  and  C_11 
REMARK    6  A    between atoms: C_11  and  C_12 
REMARK       I    between atoms: C_12  and  N_13 
REMARK    7  A    between atoms: N_13  and  C_14 
REMARK    8  A    between atoms: C_20  and  C_21 
REMARK    9  A    between atoms: C_21  and  O_22 
REMARK   10  A    between atoms: C_28  and  O_29 
ROOT
HETATM    1  C   UNL     1      43.217 -17.081   4.412  1.00  0.00     0.228 C 
HETATM    2  N   UNL     1      42.575 -16.429   5.639  1.00  0.00    -0.054 N 
HETATM    3  H   UNL     1      42.864 -15.452   5.527  1.00  0.00     0.281 HD
HETATM    4  C   UNL     1      43.221 -16.831   6.939  1.00  0.00     0.239 C 
HETATM    5  C   UNL     1      43.444 -18.327   7.099  1.00  0.00     0.066 C 
HETATM    6  C   UNL     1      44.088 -18.962   5.868  1.00  0.00     0.065 C 
HETATM    7  C   UNL     1      43.329 -18.613   4.566  1.00  0.00     0.055 C 
HETATM    8  C   UNL     1      44.193 -20.490   6.038  1.00  0.00     0.038 C 
HETATM    9  C   UNL     1      44.847 -21.162   4.831  1.00  0.00     0.003 C 
HETATM   10  C   UNL     1      44.153 -20.782   3.530  1.00  0.00     0.001 C 
HETATM   11  C   UNL     1      44.046 -19.267   3.360  1.00  0.00     0.010 C 
ENDROOT
BRANCH   2  12
HETATM   12  C   UNL     1      41.043 -16.286   5.679  1.00  0.00     0.338 C 
BRANCH  12  13
HETATM   13  C   UNL     1      40.433 -14.915   5.386  1.00  0.00     0.248 C 
HETATM   14  N   UNL     1      40.895 -13.924   6.235  1.00  0.00    -0.319 N 
HETATM   15  H   UNL     1      41.459 -14.179   7.048  1.00  0.00     0.169 HD
HETATM   16  O   UNL     1      39.592 -14.784   4.506  1.00  0.00    -0.271 OA
BRANCH  14  17
HETATM   17  C   UNL     1      40.531 -12.579   6.213  1.00  0.00     0.094 A 
HETATM   18  S   UNL     1      39.644 -11.889   7.476  1.00  0.00    -0.076 SA
HETATM   19  C   UNL     1      39.622 -10.356   6.739  1.00  0.00    -0.012 A 
HETATM   20  C   UNL     1      38.943  -9.221   7.440  1.00  0.00     0.057 C 
HETATM   21  C   UNL     1      40.286 -10.350   5.520  1.00  0.00    -0.030 A 
HETATM   22  C   UNL     1      40.451  -9.126   4.668  1.00  0.00     0.050 C 
HETATM   23  C   UNL     1      40.793 -11.677   5.188  1.00  0.00     0.080 A 
BRANCH  23  24
HETATM   24  C   UNL     1      41.520 -12.100   3.982  1.00  0.00     0.296 C 
HETATM   25  O   UNL     1      42.710 -12.411   4.017  1.00  0.00    -0.259 OA
BRANCH  24  26
HETATM   26  O   UNL     1      40.758 -12.119   2.856  1.00  0.00    -0.322 OA
HETATM   27  C   UNL     1      41.237 -11.293   1.794  1.00  0.00     0.213 C 
ENDBRANCH  24  26
ENDBRANCH  23  24
ENDBRANCH  14  17
ENDBRANCH  12  13
ENDBRANCH   2  12
BRANCH   1  28
HETATM   28  C   UNL     1      42.619 -16.553   3.118  1.00  0.00    -0.027 A 
HETATM   29  C   UNL     1      43.052 -15.316   2.622  1.00  0.00     0.011 A 
HETATM   30  C   UNL     1      42.567 -14.814   1.408  1.00  0.00     0.030 A 
HETATM   31  C   UNL     1      41.621 -15.511   0.648  1.00  0.00     0.030 A 
HETATM   32  C   UNL     1      41.165 -16.728   1.177  1.00  0.00     0.030 A 
HETATM   33  C   UNL     1      41.650 -17.247   2.386  1.00  0.00     0.011 A 
BRANCH  31  34
HETATM   34  N   UNL     1      41.181 -15.072  -0.598  1.00  0.00    -0.382 N 
BRANCH  34  35
HETATM   35  C   UNL     1      40.430 -13.813  -0.737  1.00  0.00     0.118 C 
HETATM   36  C   UNL     1      39.054 -13.913  -0.091  1.00  0.00     0.026 C 
ENDBRANCH  34  35
BRANCH  34  37
HETATM   37  C   UNL     1      40.942 -16.084  -1.639  1.00  0.00     0.118 C 
HETATM   38  C   UNL     1      40.992 -15.471  -3.032  1.00  0.00     0.026 C 
ENDBRANCH  34  37
ENDBRANCH  31  34
ENDBRANCH   1  28
BRANCH   6  39
HETATM   39  O   UNL     1      45.406 -18.399   5.777  1.00  0.00    -0.389 OA
HETATM   40  H   UNL     1      46.028 -19.095   5.489  1.00  0.00     0.210 HD
ENDBRANCH   6  39
TORSDOF 10
ENDMDL
