MODEL 1
REMARK VINA RESULT:      -9.4      0.000      0.000
REMARK  9 active torsions:
REMARK  status: ('A' for Active; 'I' for Inactive)
REMARK    1  A    between atoms: C_2  and  O_3 
REMARK    2  A    between atoms: O_3  and  C_4 
REMARK    3  A    between atoms: C_4  and  C_5 
REMARK    4  A    between atoms: C_8  and  N_9 
REMARK       I    between atoms: N_9  and  C_10 
REMARK    5  A    between atoms: C_10  and  C_11 
REMARK    6  A    between atoms: C_13  and  N_14 
REMARK    7  A    between atoms: N_17  and  C_19 
REMARK    8  A    between atoms: C_19  and  C_20 
REMARK    9  A    between atoms: C_19  and  C_26 
ROOT
HETATM    1  C   UNL     1      40.487 -13.064   2.225  1.00  0.00     0.164 C 
HETATM    2  N   UNL     1      41.262 -14.151   1.603  1.00  0.00    -0.249 NA
HETATM    3  C   UNL     1      40.674 -15.334   1.293  1.00  0.00     0.181 C 
HETATM    4  N   UNL     1      39.398 -15.527   1.244  1.00  0.00    -0.185 NA
HETATM    5  C   UNL     1      38.615 -14.445   1.569  1.00  0.00     0.247 C 
HETATM    6  O   UNL     1      37.527 -14.230   1.047  1.00  0.00    -0.271 OA
HETATM    7  C   UNL     1      39.134 -13.566   2.672  1.00  0.00     0.134 C 
HETATM    8  H   UNL     1      42.138 -14.272   2.123  1.00  0.00     0.131 HD
ENDROOT
BRANCH   3   9
HETATM    9  N   UNL     1      41.581 -16.345   1.063  1.00  0.00    -0.353 N 
HETATM   10  C   UNL     1      41.280 -17.751   1.402  1.00  0.00     0.153 C 
HETATM   11  C   UNL     1      41.901 -18.115   2.765  1.00  0.00     0.256 C 
HETATM   12  N   UNL     1      43.410 -17.875   2.701  1.00  0.00    -0.056 N 
HETATM   13  H   UNL     1      43.769 -18.354   1.873  1.00  0.00     0.281 HD
HETATM   14  C   UNL     1      43.662 -16.385   2.429  1.00  0.00     0.256 C 
HETATM   15  C   UNL     1      43.024 -16.020   1.072  1.00  0.00     0.153 C 
BRANCH  12  16
HETATM   16  C   UNL     1      44.220 -18.454   3.856  1.00  0.00     0.254 C 
BRANCH  16  17
HETATM   17  C   UNL     1      43.775 -17.918   5.214  1.00  0.00    -0.023 A 
HETATM   18  C   UNL     1      42.426 -17.644   5.500  1.00  0.00     0.009 A 
HETATM   19  C   UNL     1      42.047 -17.150   6.749  1.00  0.00     0.001 A 
HETATM   20  C   UNL     1      43.008 -16.925   7.731  1.00  0.00     0.000 A 
HETATM   21  C   UNL     1      44.349 -17.194   7.469  1.00  0.00     0.001 A 
HETATM   22  C   UNL     1      44.731 -17.688   6.221  1.00  0.00     0.009 A 
ENDBRANCH  16  17
BRANCH  16  23
HETATM   23  C   UNL     1      44.420 -19.981   3.801  1.00  0.00    -0.023 A 
HETATM   24  C   UNL     1      44.702 -20.774   4.931  1.00  0.00     0.009 A 
HETATM   25  C   UNL     1      44.843 -22.162   4.826  1.00  0.00     0.001 A 
HETATM   26  C   UNL     1      44.687 -22.793   3.597  1.00  0.00     0.000 A 
HETATM   27  C   UNL     1      44.377 -22.039   2.472  1.00  0.00     0.001 A 
HETATM   28  C   UNL     1      44.234 -20.652   2.574  1.00  0.00     0.009 A 
ENDBRANCH  16  23
ENDBRANCH  12  16
ENDBRANCH   3   9
BRANCH   1  29
HETATM   29  C   UNL     1      41.327 -12.544   3.414  1.00  0.00     0.240 C 
HETATM   30  N   UNL     1      41.986 -13.515   4.143  1.00  0.00    -0.326 N 
HETATM   31  H   UNL     1      41.919 -14.476   3.831  1.00  0.00     0.169 HD
HETATM   32  O   UNL     1      41.326 -11.333   3.648  1.00  0.00    -0.271 OA
BRANCH  30  33
HETATM   33  C   UNL     1      42.747 -13.312   5.319  1.00  0.00     0.034 A 
HETATM   34  C   UNL     1      42.342 -12.495   6.378  1.00  0.00     0.030 A 
HETATM   35  C   UNL     1      43.136 -12.362   7.523  1.00  0.00     0.020 A 
HETATM   36  C   UNL     1      44.354 -13.040   7.629  1.00  0.00     0.039 A 
HETATM   37  C   UNL     1      44.770 -13.852   6.569  1.00  0.00     0.020 A 
HETATM   38  C   UNL     1      43.970 -13.987   5.425  1.00  0.00     0.030 A 
BRANCH  36  39
HETATM   39  C   UNL     1      45.140 -12.866   8.880  1.00  0.00     0.293 C 
HETATM   40  O   UNL     1      46.330 -12.595   8.889  1.00  0.00    -0.259 OA
BRANCH  39  41
HETATM   41  O   UNL     1      44.354 -13.050   9.969  1.00  0.00    -0.318 OA
BRANCH  41  42
HETATM   42  C   UNL     1      44.503 -12.071  11.010  1.00  0.00     0.174 C 
HETATM   43  C   UNL     1      44.613 -10.681  10.414  1.00  0.00     0.034 C 
ENDBRANCH  41  42
ENDBRANCH  39  41
ENDBRANCH  36  39
ENDBRANCH  30  33
ENDBRANCH   1  29
TORSDOF 9
ENDMDL
MODEL 2
REMARK VINA RESULT:      -9.4      2.030      2.598
REMARK  9 active torsions:
REMARK  status: ('A' for Active; 'I' for Inactive)
REMARK    1  A    between atoms: C_2  and  O_3 
REMARK    2  A    between atoms: O_3  and  C_4 
REMARK    3  A    between atoms: C_4  and  C_5 
REMARK    4  A    between atoms: C_8  and  N_9 
REMARK       I    between atoms: N_9  and  C_10 
REMARK    5  A    between atoms: C_10  and  C_11 
REMARK    6  A    between atoms: C_13  and  N_14 
REMARK    7  A    between atoms: N_17  and  C_19 
REMARK    8  A    between atoms: C_19  and  C_20 
REMARK    9  A    between atoms: C_19  and  C_26 
ROOT
HETATM    1  C   UNL     1      40.244 -12.300   3.092  1.00  0.00     0.164 C 
HETATM    2  N   UNL     1      40.748 -13.523   2.442  1.00  0.00    -0.249 NA
HETATM    3  C   UNL     1      39.960 -14.237   1.600  1.00  0.00     0.181 C 
HETATM    4  N   UNL     1      38.859 -13.803   1.082  1.00  0.00    -0.185 NA
HETATM    5  C   UNL     1      38.475 -12.539   1.463  1.00  0.00     0.247 C 
HETATM    6  O   UNL     1      37.883 -11.770   0.715  1.00  0.00    -0.271 OA
HETATM    7  C   UNL     1      38.752 -12.171   2.894  1.00  0.00     0.134 C 
HETATM    8  H   UNL     1      41.201 -14.110   3.151  1.00  0.00     0.131 HD
ENDROOT
BRANCH   3   9
HETATM    9  N   UNL     1      40.432 -15.509   1.366  1.00  0.00    -0.353 N 
HETATM   10  C   UNL     1      40.041 -16.652   2.218  1.00  0.00     0.153 C 
HETATM   11  C   UNL     1      41.130 -16.926   3.274  1.00  0.00     0.256 C 
HETATM   12  N   UNL     1      42.454 -17.200   2.560  1.00  0.00    -0.056 N 
HETATM   13  H   UNL     1      42.287 -17.919   1.852  1.00  0.00     0.281 HD
HETATM   14  C   UNL     1      42.850 -15.951   1.759  1.00  0.00     0.256 C 
HETATM   15  C   UNL     1      41.751 -15.669   0.714  1.00  0.00     0.153 C 
BRANCH  12  16
HETATM   16  C   UNL     1      43.567 -17.775   3.430  1.00  0.00     0.254 C 
BRANCH  16  17
HETATM   17  C   UNL     1      43.410 -17.410   4.903  1.00  0.00    -0.023 A 
HETATM   18  C   UNL     1      42.832 -18.294   5.831  1.00  0.00     0.009 A 
HETATM   19  C   UNL     1      42.697 -17.933   7.172  1.00  0.00     0.001 A 
HETATM   20  C   UNL     1      43.138 -16.687   7.607  1.00  0.00     0.000 A 
HETATM   21  C   UNL     1      43.717 -15.799   6.705  1.00  0.00     0.001 A 
HETATM   22  C   UNL     1      43.854 -16.156   5.363  1.00  0.00     0.009 A 
ENDBRANCH  16  17
BRANCH  16  23
HETATM   23  C   UNL     1      43.890 -19.258   3.165  1.00  0.00    -0.023 A 
HETATM   24  C   UNL     1      44.648 -20.062   4.040  1.00  0.00     0.009 A 
HETATM   25  C   UNL     1      44.885 -21.412   3.763  1.00  0.00     0.001 A 
HETATM   26  C   UNL     1      44.356 -21.997   2.617  1.00  0.00     0.000 A 
HETATM   27  C   UNL     1      43.579 -21.236   1.752  1.00  0.00     0.001 A 
HETATM   28  C   UNL     1      43.340 -19.886   2.028  1.00  0.00     0.009 A 
ENDBRANCH  16  23
ENDBRANCH  12  16
ENDBRANCH   3   9
BRANCH   1  29
HETATM   29  C   UNL     1      40.616 -12.407   4.589  1.00  0.00     0.240 C 
HETATM   30  N   UNL     1      40.267 -11.320   5.365  1.00  0.00    -0.326 N 
HETATM   31  H   UNL     1      39.760 -10.560   4.926  1.00  0.00     0.169 HD
HETATM   32  O   UNL     1      41.213 -13.416   4.975  1.00  0.00    -0.271 OA
BRANCH  30  33
HETATM   33  C   UNL     1      40.567 -11.133   6.736  1.00  0.00     0.034 A 
HETATM   34  C   UNL     1      41.820 -10.742   7.214  1.00  0.00     0.030 A 
HETATM   35  C   UNL     1      42.037 -10.553   8.583  1.00  0.00     0.020 A 
HETATM   36  C   UNL     1      41.004 -10.756   9.503  1.00  0.00     0.039 A 
HETATM   37  C   UNL     1      39.749 -11.156   9.033  1.00  0.00     0.020 A 
HETATM   38  C   UNL     1      39.534 -11.341   7.659  1.00  0.00     0.030 A 
BRANCH  36  39
HETATM   39  C   UNL     1      41.299 -10.521  10.943  1.00  0.00     0.293 C 
HETATM   40  O   UNL     1      40.430 -10.391  11.789  1.00  0.00    -0.259 OA
BRANCH  39  41
HETATM   41  O   UNL     1      42.637 -10.477  11.156  1.00  0.00    -0.318 OA
BRANCH  41  42
HETATM   42  C   UNL     1      43.178 -11.577  11.905  1.00  0.00     0.174 C 
HETATM   43  C   UNL     1      44.343 -12.200  11.161  1.00  0.00     0.034 C 
ENDBRANCH  41  42
ENDBRANCH  39  41
ENDBRANCH  36  39
ENDBRANCH  30  33
ENDBRANCH   1  29
TORSDOF 9
ENDMDL
MODEL 3
REMARK VINA RESULT:      -9.3      3.525      9.099
REMARK  9 active torsions:
REMARK  status: ('A' for Active; 'I' for Inactive)
REMARK    1  A    between atoms: C_2  and  O_3 
REMARK    2  A    between atoms: O_3  and  C_4 
REMARK    3  A    between atoms: C_4  and  C_5 
REMARK    4  A    between atoms: C_8  and  N_9 
REMARK       I    between atoms: N_9  and  C_10 
REMARK    5  A    between atoms: C_10  and  C_11 
REMARK    6  A    between atoms: C_13  and  N_14 
REMARK    7  A    between atoms: N_17  and  C_19 
REMARK    8  A    between atoms: C_19  and  C_20 
REMARK    9  A    between atoms: C_19  and  C_26 
ROOT
HETATM    1  C   UNL     1      39.233 -12.543   5.135  1.00  0.00     0.164 C 
HETATM    2  N   UNL     1      39.366 -11.662   6.308  1.00  0.00    -0.249 NA
HETATM    3  C   UNL     1      39.228 -10.317   6.186  1.00  0.00     0.181 C 
HETATM    4  N   UNL     1      38.716  -9.724   5.160  1.00  0.00    -0.185 NA
HETATM    5  C   UNL     1      38.328 -10.541   4.126  1.00  0.00     0.247 C 
HETATM    6  O   UNL     1      37.363 -10.298   3.412  1.00  0.00    -0.271 OA
HETATM    7  C   UNL     1      39.210 -11.730   3.862  1.00  0.00     0.134 C 
HETATM    8  H   UNL     1      40.212 -11.926   6.825  1.00  0.00     0.131 HD
ENDROOT
BRANCH   3   9
HETATM    9  N   UNL     1      39.726  -9.623   7.267  1.00  0.00    -0.353 N 
HETATM   10  C   UNL     1      41.117  -9.126   7.296  1.00  0.00     0.153 C 
HETATM   11  C   UNL     1      42.016 -10.102   8.081  1.00  0.00     0.256 C 
HETATM   12  N   UNL     1      41.458 -10.261   9.496  1.00  0.00    -0.056 N 
HETATM   13  H   UNL     1      41.319  -9.326   9.885  1.00  0.00     0.281 HD
HETATM   14  C   UNL     1      40.046 -10.858   9.405  1.00  0.00     0.256 C 
HETATM   15  C   UNL     1      39.153  -9.886   8.605  1.00  0.00     0.153 C 
BRANCH  12  16
HETATM   16  C   UNL     1      42.377 -10.957  10.494  1.00  0.00     0.254 C 
BRANCH  16  17
HETATM   17  C   UNL     1      43.730 -11.324   9.891  1.00  0.00    -0.023 A 
HETATM   18  C   UNL     1      44.903 -10.616  10.209  1.00  0.00     0.009 A 
HETATM   19  C   UNL     1      46.126 -10.971   9.640  1.00  0.00     0.001 A 
HETATM   20  C   UNL     1      46.199 -12.037   8.748  1.00  0.00     0.000 A 
HETATM   21  C   UNL     1      45.049 -12.753   8.424  1.00  0.00     0.001 A 
HETATM   22  C   UNL     1      43.824 -12.402   8.991  1.00  0.00     0.009 A 
ENDBRANCH  16  17
BRANCH  16  23
HETATM   23  C   UNL     1      42.450 -10.284  11.878  1.00  0.00    -0.023 A 
HETATM   24  C   UNL     1      42.491 -10.997  13.093  1.00  0.00     0.009 A 
HETATM   25  C   UNL     1      42.588 -10.333  14.321  1.00  0.00     0.001 A 
HETATM   26  C   UNL     1      42.666  -8.946  14.365  1.00  0.00     0.000 A 
HETATM   27  C   UNL     1      42.660  -8.218  13.181  1.00  0.00     0.001 A 
HETATM   28  C   UNL     1      42.564  -8.880  11.952  1.00  0.00     0.009 A 
ENDBRANCH  16  23
ENDBRANCH  12  16
ENDBRANCH   3   9
BRANCH   1  29
HETATM   29  C   UNL     1      40.434 -13.515   5.171  1.00  0.00     0.240 C 
HETATM   30  N   UNL     1      40.192 -14.774   4.656  1.00  0.00    -0.326 N 
HETATM   31  H   UNL     1      39.281 -14.960   4.253  1.00  0.00     0.169 HD
HETATM   32  O   UNL     1      41.491 -13.125   5.673  1.00  0.00    -0.271 OA
BRANCH  30  33
HETATM   33  C   UNL     1      41.092 -15.867   4.648  1.00  0.00     0.034 A 
HETATM   34  C   UNL     1      41.081 -16.892   5.598  1.00  0.00     0.030 A 
HETATM   35  C   UNL     1      41.987 -17.955   5.512  1.00  0.00     0.020 A 
HETATM   36  C   UNL     1      42.924 -18.012   4.477  1.00  0.00     0.039 A 
HETATM   37  C   UNL     1      42.946 -16.985   3.527  1.00  0.00     0.020 A 
HETATM   38  C   UNL     1      42.035 -15.923   3.614  1.00  0.00     0.030 A 
BRANCH  36  39
HETATM   39  C   UNL     1      43.846 -19.180   4.436  1.00  0.00     0.293 C 
HETATM   40  O   UNL     1      44.231 -19.761   5.437  1.00  0.00    -0.259 OA
BRANCH  39  41
HETATM   41  O   UNL     1      44.178 -19.483   3.157  1.00  0.00    -0.318 OA
BRANCH  41  42
HETATM   42  C   UNL     1      44.589 -20.841   2.933  1.00  0.00     0.174 C 
HETATM   43  C   UNL     1      43.814 -21.443   1.777  1.00  0.00     0.034 C 
ENDBRANCH  41  42
ENDBRANCH  39  41
ENDBRANCH  36  39
ENDBRANCH  30  33
ENDBRANCH   1  29
TORSDOF 9
ENDMDL
MODEL 4
REMARK VINA RESULT:      -9.2      3.168      7.074
REMARK  9 active torsions:
REMARK  status: ('A' for Active; 'I' for Inactive)
REMARK    1  A    between atoms: C_2  and  O_3 
REMARK    2  A    between atoms: O_3  and  C_4 
REMARK    3  A    between atoms: C_4  and  C_5 
REMARK    4  A    between atoms: C_8  and  N_9 
REMARK       I    between atoms: N_9  and  C_10 
REMARK    5  A    between atoms: C_10  and  C_11 
REMARK    6  A    between atoms: C_13  and  N_14 
REMARK    7  A    between atoms: N_17  and  C_19 
REMARK    8  A    between atoms: C_19  and  C_20 
REMARK    9  A    between atoms: C_19  and  C_26 
ROOT
HETATM    1  C   UNL     1      40.895 -12.853   5.874  1.00  0.00     0.164 C 
HETATM    2  N   UNL     1      40.880 -12.362   4.485  1.00  0.00    -0.249 NA
HETATM    3  C   UNL     1      39.914 -11.509   4.061  1.00  0.00     0.181 C 
HETATM    4  N   UNL     1      39.124 -10.850   4.842  1.00  0.00    -0.185 NA
HETATM    5  C   UNL     1      39.280 -11.082   6.187  1.00  0.00     0.247 C 
HETATM    6  O   UNL     1      39.105 -10.217   7.037  1.00  0.00    -0.271 OA
HETATM    7  C   UNL     1      39.606 -12.497   6.576  1.00  0.00     0.134 C 
HETATM    8  H   UNL     1      41.007 -13.159   3.852  1.00  0.00     0.131 HD
ENDROOT
BRANCH   3   9
HETATM    9  N   UNL     1      39.826 -11.432   2.688  1.00  0.00    -0.353 N 
HETATM   10  C   UNL     1      38.739 -12.098   1.941  1.00  0.00     0.153 C 
HETATM   11  C   UNL     1      39.227 -13.450   1.384  1.00  0.00     0.256 C 
HETATM   12  N   UNL     1      40.442 -13.207   0.489  1.00  0.00    -0.056 N 
HETATM   13  H   UNL     1      40.197 -12.478  -0.184  1.00  0.00     0.281 HD
HETATM   14  C   UNL     1      41.565 -12.592   1.336  1.00  0.00     0.256 C 
HETATM   15  C   UNL     1      41.068 -11.247   1.907  1.00  0.00     0.153 C 
BRANCH  12  16
HETATM   16  C   UNL     1      40.875 -14.389  -0.373  1.00  0.00     0.254 C 
BRANCH  16  17
HETATM   17  C   UNL     1      41.236 -15.619   0.454  1.00  0.00    -0.023 A 
HETATM   18  C   UNL     1      40.337 -16.187   1.375  1.00  0.00     0.009 A 
HETATM   19  C   UNL     1      40.695 -17.310   2.121  1.00  0.00     0.001 A 
HETATM   20  C   UNL     1      41.953 -17.885   1.958  1.00  0.00     0.000 A 
HETATM   21  C   UNL     1      42.855 -17.340   1.048  1.00  0.00     0.001 A 
HETATM   22  C   UNL     1      42.501 -16.217   0.300  1.00  0.00     0.009 A 
ENDBRANCH  16  17
BRANCH  16  23
HETATM   23  C   UNL     1      39.962 -14.671  -1.583  1.00  0.00    -0.023 A 
HETATM   24  C   UNL     1      38.718 -14.043  -1.787  1.00  0.00     0.009 A 
HETATM   25  C   UNL     1      37.945 -14.316  -2.921  1.00  0.00     0.001 A 
HETATM   26  C   UNL     1      38.403 -15.206  -3.885  1.00  0.00     0.000 A 
HETATM   27  C   UNL     1      39.641 -15.817  -3.725  1.00  0.00     0.001 A 
HETATM   28  C   UNL     1      40.416 -15.544  -2.593  1.00  0.00     0.009 A 
ENDBRANCH  16  23
ENDBRANCH  12  16
ENDBRANCH   3   9
BRANCH   1  29
HETATM   29  C   UNL     1      41.105 -14.383   5.802  1.00  0.00     0.240 C 
HETATM   30  N   UNL     1      42.324 -14.836   6.268  1.00  0.00    -0.326 N 
HETATM   31  H   UNL     1      42.968 -14.160   6.662  1.00  0.00     0.169 HD
HETATM   32  O   UNL     1      40.207 -15.077   5.317  1.00  0.00    -0.271 OA
BRANCH  30  33
HETATM   33  C   UNL     1      42.794 -16.171   6.235  1.00  0.00     0.034 A 
HETATM   34  C   UNL     1      42.662 -17.070   7.297  1.00  0.00     0.030 A 
HETATM   35  C   UNL     1      43.129 -18.384   7.183  1.00  0.00     0.020 A 
HETATM   36  C   UNL     1      43.741 -18.824   6.006  1.00  0.00     0.039 A 
HETATM   37  C   UNL     1      43.884 -17.927   4.942  1.00  0.00     0.020 A 
HETATM   38  C   UNL     1      43.412 -16.612   5.058  1.00  0.00     0.030 A 
BRANCH  36  39
HETATM   39  C   UNL     1      44.199 -20.239   5.947  1.00  0.00     0.293 C 
HETATM   40  O   UNL     1      43.811 -21.099   6.720  1.00  0.00    -0.259 OA
BRANCH  39  41
HETATM   41  O   UNL     1      45.084 -20.413   4.934  1.00  0.00    -0.318 OA
BRANCH  41  42
HETATM   42  C   UNL     1      44.735 -21.428   3.980  1.00  0.00     0.174 C 
HETATM   43  C   UNL     1      44.434 -20.804   2.632  1.00  0.00     0.034 C 
ENDBRANCH  41  42
ENDBRANCH  39  41
ENDBRANCH  36  39
ENDBRANCH  30  33
ENDBRANCH   1  29
TORSDOF 9
ENDMDL
MODEL 5
REMARK VINA RESULT:      -9.1      2.409      3.114
REMARK  9 active torsions:
REMARK  status: ('A' for Active; 'I' for Inactive)
REMARK    1  A    between atoms: C_2  and  O_3 
REMARK    2  A    between atoms: O_3  and  C_4 
REMARK    3  A    between atoms: C_4  and  C_5 
REMARK    4  A    between atoms: C_8  and  N_9 
REMARK       I    between atoms: N_9  and  C_10 
REMARK    5  A    between atoms: C_10  and  C_11 
REMARK    6  A    between atoms: C_13  and  N_14 
REMARK    7  A    between atoms: N_17  and  C_19 
REMARK    8  A    between atoms: C_19  and  C_20 
REMARK    9  A    between atoms: C_19  and  C_26 
ROOT
HETATM    1  C   UNL     1      41.849 -12.339   1.303  1.00  0.00     0.164 C 
HETATM    2  N   UNL     1      42.013 -13.790   1.497  1.00  0.00    -0.249 NA
HETATM    3  C   UNL     1      41.802 -14.656   0.474  1.00  0.00     0.181 C 
HETATM    4  N   UNL     1      41.723 -14.315  -0.769  1.00  0.00    -0.185 NA
HETATM    5  C   UNL     1      41.828 -12.970  -1.030  1.00  0.00     0.247 C 
HETATM    6  O   UNL     1      42.351 -12.527  -2.046  1.00  0.00    -0.271 OA
HETATM    7  C   UNL     1      41.188 -12.053  -0.024  1.00  0.00     0.134 C 
HETATM    8  H   UNL     1      41.522 -14.067   2.354  1.00  0.00     0.131 HD
ENDROOT
BRANCH   3   9
HETATM    9  N   UNL     1      41.643 -15.959   0.892  1.00  0.00    -0.353 N 
HETATM   10  C   UNL     1      41.027 -16.287   2.194  1.00  0.00     0.153 C 
HETATM   11  C   UNL     1      42.120 -16.555   3.247  1.00  0.00     0.256 C 
HETATM   12  N   UNL     1      43.011 -17.697   2.757  1.00  0.00    -0.056 N 
HETATM   13  H   UNL     1      42.405 -18.477   2.491  1.00  0.00     0.281 HD
HETATM   14  C   UNL     1      43.687 -17.267   1.447  1.00  0.00     0.256 C 
HETATM   15  C   UNL     1      42.591 -16.983   0.399  1.00  0.00     0.153 C 
BRANCH  12  16
HETATM   16  C   UNL     1      43.959 -18.288   3.795  1.00  0.00     0.254 C 
BRANCH  16  17
HETATM   17  C   UNL     1      43.659 -17.803   5.210  1.00  0.00    -0.023 A 
HETATM   18  C   UNL     1      42.412 -18.022   5.823  1.00  0.00     0.009 A 
HETATM   19  C   UNL     1      42.163 -17.563   7.117  1.00  0.00     0.001 A 
HETATM   20  C   UNL     1      43.154 -16.882   7.819  1.00  0.00     0.000 A 
HETATM   21  C   UNL     1      44.396 -16.659   7.231  1.00  0.00     0.001 A 
HETATM   22  C   UNL     1      44.649 -17.116   5.937  1.00  0.00     0.009 A 
ENDBRANCH  16  17
BRANCH  16  23
HETATM   23  C   UNL     1      44.184 -19.808   3.669  1.00  0.00    -0.023 A 
HETATM   24  C   UNL     1      44.015 -20.527   2.470  1.00  0.00     0.009 A 
HETATM   25  C   UNL     1      44.264 -21.903   2.407  1.00  0.00     0.001 A 
HETATM   26  C   UNL     1      44.704 -22.588   3.534  1.00  0.00     0.000 A 
HETATM   27  C   UNL     1      44.910 -21.898   4.723  1.00  0.00     0.001 A 
HETATM   28  C   UNL     1      44.663 -20.523   4.787  1.00  0.00     0.009 A 
ENDBRANCH  16  23
ENDBRANCH  12  16
ENDBRANCH   3   9
BRANCH   1  29
HETATM   29  C   UNL     1      40.999 -11.826   2.488  1.00  0.00     0.240 C 
HETATM   30  N   UNL     1      41.545 -12.029   3.741  1.00  0.00    -0.326 N 
HETATM   31  H   UNL     1      42.466 -12.447   3.800  1.00  0.00     0.169 HD
HETATM   32  O   UNL     1      39.904 -11.312   2.246  1.00  0.00    -0.271 OA
BRANCH  30  33
HETATM   33  C   UNL     1      40.935 -11.731   4.983  1.00  0.00     0.034 A 
HETATM   34  C   UNL     1      40.094 -12.610   5.670  1.00  0.00     0.030 A 
HETATM   35  C   UNL     1      39.546 -12.256   6.907  1.00  0.00     0.020 A 
HETATM   36  C   UNL     1      39.826 -11.012   7.481  1.00  0.00     0.039 A 
HETATM   37  C   UNL     1      40.661 -10.124   6.796  1.00  0.00     0.020 A 
HETATM   38  C   UNL     1      41.211 -10.483   5.557  1.00  0.00     0.030 A 
BRANCH  36  39
HETATM   39  C   UNL     1      39.224 -10.706   8.808  1.00  0.00     0.293 C 
HETATM   40  O   UNL     1      38.373  -9.848   8.972  1.00  0.00    -0.259 OA
BRANCH  39  41
HETATM   41  O   UNL     1      39.752 -11.504   9.768  1.00  0.00    -0.318 OA
BRANCH  41  42
HETATM   42  C   UNL     1      40.442 -10.820  10.826  1.00  0.00     0.174 C 
HETATM   43  C   UNL     1      41.941 -10.875  10.601  1.00  0.00     0.034 C 
ENDBRANCH  41  42
ENDBRANCH  39  41
ENDBRANCH  36  39
ENDBRANCH  30  33
ENDBRANCH   1  29
TORSDOF 9
ENDMDL
MODEL 6
REMARK VINA RESULT:      -9.1      4.591      9.170
REMARK  9 active torsions:
REMARK  status: ('A' for Active; 'I' for Inactive)
REMARK    1  A    between atoms: C_2  and  O_3 
REMARK    2  A    between atoms: O_3  and  C_4 
REMARK    3  A    between atoms: C_4  and  C_5 
REMARK    4  A    between atoms: C_8  and  N_9 
REMARK       I    between atoms: N_9  and  C_10 
REMARK    5  A    between atoms: C_10  and  C_11 
REMARK    6  A    between atoms: C_13  and  N_14 
REMARK    7  A    between atoms: N_17  and  C_19 
REMARK    8  A    between atoms: C_19  and  C_20 
REMARK    9  A    between atoms: C_19  and  C_26 
ROOT
HETATM    1  C   UNL     1      39.561 -12.446  -0.164  1.00  0.00     0.164 C 
HETATM    2  N   UNL     1      39.740 -13.703   0.584  1.00  0.00    -0.249 NA
HETATM    3  C   UNL     1      40.956 -14.300   0.655  1.00  0.00     0.181 C 
HETATM    4  N   UNL     1      42.072 -13.729   0.346  1.00  0.00    -0.185 NA
HETATM    5  C   UNL     1      41.977 -12.439  -0.118  1.00  0.00     0.247 C 
HETATM    6  O   UNL     1      42.832 -11.589   0.100  1.00  0.00    -0.271 OA
HETATM    7  C   UNL     1      40.789 -12.140  -0.989  1.00  0.00     0.134 C 
HETATM    8  H   UNL     1      38.996 -14.356   0.315  1.00  0.00     0.131 HD
ENDROOT
BRANCH   3   9
HETATM    9  N   UNL     1      40.890 -15.613   1.066  1.00  0.00    -0.353 N 
HETATM   10  C   UNL     1      40.474 -15.978   2.436  1.00  0.00     0.153 C 
HETATM   11  C   UNL     1      41.712 -16.235   3.318  1.00  0.00     0.256 C 
HETATM   12  N   UNL     1      42.550 -17.345   2.684  1.00  0.00    -0.056 N 
HETATM   13  H   UNL     1      41.932 -18.136   2.492  1.00  0.00     0.281 HD
HETATM   14  C   UNL     1      43.022 -16.877   1.299  1.00  0.00     0.256 C 
HETATM   15  C   UNL     1      41.781 -16.605   0.424  1.00  0.00     0.153 C 
BRANCH  12  16
HETATM   16  C   UNL     1      43.651 -17.927   3.564  1.00  0.00     0.254 C 
BRANCH  16  17
HETATM   17  C   UNL     1      43.487 -17.555   5.034  1.00  0.00    -0.023 A 
HETATM   18  C   UNL     1      42.454 -18.087   5.827  1.00  0.00     0.009 A 
HETATM   19  C   UNL     1      42.325 -17.726   7.168  1.00  0.00     0.001 A 
HETATM   20  C   UNL     1      43.225 -16.830   7.740  1.00  0.00     0.000 A 
HETATM   21  C   UNL     1      44.256 -16.295   6.973  1.00  0.00     0.001 A 
HETATM   22  C   UNL     1      44.389 -16.653   5.631  1.00  0.00     0.009 A 
ENDBRANCH  16  17
BRANCH  16  23
HETATM   23  C   UNL     1      43.960 -19.415   3.308  1.00  0.00    -0.023 A 
HETATM   24  C   UNL     1      44.659 -20.236   4.216  1.00  0.00     0.009 A 
HETATM   25  C   UNL     1      44.885 -21.590   3.943  1.00  0.00     0.001 A 
HETATM   26  C   UNL     1      44.403 -22.160   2.771  1.00  0.00     0.000 A 
HETATM   27  C   UNL     1      43.683 -21.382   1.872  1.00  0.00     0.001 A 
HETATM   28  C   UNL     1      43.455 -20.029   2.143  1.00  0.00     0.009 A 
ENDBRANCH  16  23
ENDBRANCH  12  16
ENDBRANCH   3   9
BRANCH   1  29
HETATM   29  C   UNL     1      38.307 -12.631  -1.050  1.00  0.00     0.240 C 
HETATM   30  N   UNL     1      38.557 -12.864  -2.388  1.00  0.00    -0.326 N 
HETATM   31  H   UNL     1      39.521 -12.945  -2.689  1.00  0.00     0.169 HD
HETATM   32  O   UNL     1      37.196 -12.529  -0.523  1.00  0.00    -0.271 OA
BRANCH  30  33
HETATM   33  C   UNL     1      37.591 -12.983  -3.416  1.00  0.00     0.034 A 
HETATM   34  C   UNL     1      37.074 -11.898  -4.130  1.00  0.00     0.030 A 
HETATM   35  C   UNL     1      36.139 -12.095  -5.151  1.00  0.00     0.020 A 
HETATM   36  C   UNL     1      35.698 -13.381  -5.477  1.00  0.00     0.039 A 
HETATM   37  C   UNL     1      36.205 -14.470  -4.761  1.00  0.00     0.020 A 
HETATM   38  C   UNL     1      37.145 -14.270  -3.740  1.00  0.00     0.030 A 
BRANCH  36  39
HETATM   39  C   UNL     1      34.714 -13.519  -6.585  1.00  0.00     0.293 C 
HETATM   40  O   UNL     1      33.891 -12.662  -6.858  1.00  0.00    -0.259 OA
BRANCH  39  41
HETATM   41  O   UNL     1      34.873 -14.707  -7.219  1.00  0.00    -0.318 OA
BRANCH  41  42
HETATM   42  C   UNL     1      34.872 -14.643  -8.655  1.00  0.00     0.174 C 
HETATM   43  C   UNL     1      36.259 -14.311  -9.169  1.00  0.00     0.034 C 
ENDBRANCH  41  42
ENDBRANCH  39  41
ENDBRANCH  36  39
ENDBRANCH  30  33
ENDBRANCH   1  29
TORSDOF 9
ENDMDL
MODEL 7
REMARK VINA RESULT:      -9.0      3.305      7.541
REMARK  9 active torsions:
REMARK  status: ('A' for Active; 'I' for Inactive)
REMARK    1  A    between atoms: C_2  and  O_3 
REMARK    2  A    between atoms: O_3  and  C_4 
REMARK    3  A    between atoms: C_4  and  C_5 
REMARK    4  A    between atoms: C_8  and  N_9 
REMARK       I    between atoms: N_9  and  C_10 
REMARK    5  A    between atoms: C_10  and  C_11 
REMARK    6  A    between atoms: C_13  and  N_14 
REMARK    7  A    between atoms: N_17  and  C_19 
REMARK    8  A    between atoms: C_19  and  C_20 
REMARK    9  A    between atoms: C_19  and  C_26 
ROOT
HETATM    1  C   UNL     1      41.484 -11.813   6.328  1.00  0.00     0.164 C 
HETATM    2  N   UNL     1      41.249 -11.193   5.012  1.00  0.00    -0.249 NA
HETATM    3  C   UNL     1      40.009 -10.774   4.654  1.00  0.00     0.181 C 
HETATM    4  N   UNL     1      39.024 -10.615   5.474  1.00  0.00    -0.185 NA
HETATM    5  C   UNL     1      39.278 -10.937   6.785  1.00  0.00     0.247 C 
HETATM    6  O   UNL     1      38.765 -10.345   7.728  1.00  0.00    -0.271 OA
HETATM    7  C   UNL     1      40.173 -12.125   7.009  1.00  0.00     0.134 C 
HETATM    8  H   UNL     1      41.692 -11.773   4.290  1.00  0.00     0.131 HD
ENDROOT
BRANCH   3   9
HETATM    9  N   UNL     1      39.881 -10.560   3.299  1.00  0.00    -0.353 N 
HETATM   10  C   UNL     1      38.609 -10.809   2.590  1.00  0.00     0.153 C 
HETATM   11  C   UNL     1      38.640 -12.193   1.912  1.00  0.00     0.256 C 
HETATM   12  N   UNL     1      39.826 -12.248   0.949  1.00  0.00    -0.056 N 
HETATM   13  H   UNL     1      39.779 -11.424   0.346  1.00  0.00     0.281 HD
HETATM   14  C   UNL     1      41.122 -12.066   1.753  1.00  0.00     0.256 C 
HETATM   15  C   UNL     1      41.081 -10.686   2.444  1.00  0.00     0.153 C 
BRANCH  12  16
HETATM   16  C   UNL     1      39.840 -13.427  -0.016  1.00  0.00     0.254 C 
BRANCH  16  17
HETATM   17  C   UNL     1      40.553 -13.107  -1.327  1.00  0.00    -0.023 A 
HETATM   18  C   UNL     1      41.859 -12.587  -1.356  1.00  0.00     0.009 A 
HETATM   19  C   UNL     1      42.486 -12.299  -2.569  1.00  0.00     0.001 A 
HETATM   20  C   UNL     1      41.820 -12.527  -3.770  1.00  0.00     0.000 A 
HETATM   21  C   UNL     1      40.527 -13.044  -3.763  1.00  0.00     0.001 A 
HETATM   22  C   UNL     1      39.897 -13.334  -2.552  1.00  0.00     0.009 A 
ENDBRANCH  16  17
BRANCH  16  23
HETATM   23  C   UNL     1      40.236 -14.775   0.619  1.00  0.00    -0.023 A 
HETATM   24  C   UNL     1      39.572 -15.344   1.724  1.00  0.00     0.009 A 
HETATM   25  C   UNL     1      39.957 -16.586   2.240  1.00  0.00     0.001 A 
HETATM   26  C   UNL     1      40.998 -17.297   1.655  1.00  0.00     0.000 A 
HETATM   27  C   UNL     1      41.650 -16.774   0.545  1.00  0.00     0.001 A 
HETATM   28  C   UNL     1      41.267 -15.534   0.027  1.00  0.00     0.009 A 
ENDBRANCH  16  23
ENDBRANCH  12  16
ENDBRANCH   3   9
BRANCH   1  29
HETATM   29  C   UNL     1      42.317 -13.090   6.075  1.00  0.00     0.240 C 
HETATM   30  N   UNL     1      41.700 -14.056   5.304  1.00  0.00    -0.326 N 
HETATM   31  H   UNL     1      40.784 -13.852   4.923  1.00  0.00     0.169 HD
HETATM   32  O   UNL     1      43.434 -13.175   6.591  1.00  0.00    -0.271 OA
BRANCH  30  33
HETATM   33  C   UNL     1      42.210 -15.341   4.999  1.00  0.00     0.034 A 
HETATM   34  C   UNL     1      43.195 -15.580   4.037  1.00  0.00     0.030 A 
HETATM   35  C   UNL     1      43.669 -16.876   3.806  1.00  0.00     0.020 A 
HETATM   36  C   UNL     1      43.164 -17.960   4.530  1.00  0.00     0.039 A 
HETATM   37  C   UNL     1      42.172 -17.729   5.489  1.00  0.00     0.020 A 
HETATM   38  C   UNL     1      41.701 -16.429   5.720  1.00  0.00     0.030 A 
BRANCH  36  39
HETATM   39  C   UNL     1      43.725 -19.309   4.246  1.00  0.00     0.293 C 
HETATM   40  O   UNL     1      44.151 -20.051   5.115  1.00  0.00    -0.259 OA
BRANCH  39  41
HETATM   41  O   UNL     1      43.688 -19.572   2.916  1.00  0.00    -0.318 OA
BRANCH  41  42
HETATM   42  C   UNL     1      44.588 -20.597   2.466  1.00  0.00     0.174 C 
HETATM   43  C   UNL     1      43.817 -21.724   1.808  1.00  0.00     0.034 C 
ENDBRANCH  41  42
ENDBRANCH  39  41
ENDBRANCH  36  39
ENDBRANCH  30  33
ENDBRANCH   1  29
TORSDOF 9
ENDMDL
MODEL 8
REMARK VINA RESULT:      -8.9      3.870      8.427
REMARK  9 active torsions:
REMARK  status: ('A' for Active; 'I' for Inactive)
REMARK    1  A    between atoms: C_2  and  O_3 
REMARK    2  A    between atoms: O_3  and  C_4 
REMARK    3  A    between atoms: C_4  and  C_5 
REMARK    4  A    between atoms: C_8  and  N_9 
REMARK       I    between atoms: N_9  and  C_10 
REMARK    5  A    between atoms: C_10  and  C_11 
REMARK    6  A    between atoms: C_13  and  N_14 
REMARK    7  A    between atoms: N_17  and  C_19 
REMARK    8  A    between atoms: C_19  and  C_20 
REMARK    9  A    between atoms: C_19  and  C_26 
ROOT
HETATM    1  C   UNL     1      41.568 -12.441   5.041  1.00  0.00     0.164 C 
HETATM    2  N   UNL     1      40.782 -12.377   3.797  1.00  0.00    -0.249 NA
HETATM    3  C   UNL     1      39.433 -12.234   3.835  1.00  0.00     0.181 C 
HETATM    4  N   UNL     1      38.764 -11.871   4.878  1.00  0.00    -0.185 NA
HETATM    5  C   UNL     1      39.501 -11.660   6.018  1.00  0.00     0.247 C 
HETATM    6  O   UNL     1      39.209 -10.809   6.851  1.00  0.00    -0.271 OA
HETATM    7  C   UNL     1      40.658 -12.594   6.236  1.00  0.00     0.134 C 
HETATM    8  H   UNL     1      41.079 -13.141   3.179  1.00  0.00     0.131 HD
ENDROOT
BRANCH   3   9
HETATM    9  N   UNL     1      38.822 -12.549   2.641  1.00  0.00    -0.353 N 
HETATM   10  C   UNL     1      38.742 -13.942   2.154  1.00  0.00     0.153 C 
HETATM   11  C   UNL     1      39.866 -14.215   1.134  1.00  0.00     0.256 C 
HETATM   12  N   UNL     1      39.740 -13.220  -0.020  1.00  0.00    -0.056 N 
HETATM   13  H   UNL     1      38.775 -13.250  -0.357  1.00  0.00     0.281 HD
HETATM   14  C   UNL     1      39.914 -11.799   0.533  1.00  0.00     0.256 C 
HETATM   15  C   UNL     1      38.798 -11.533   1.566  1.00  0.00     0.153 C 
BRANCH  12  16
HETATM   16  C   UNL     1      40.583 -13.528  -1.253  1.00  0.00     0.254 C 
BRANCH  16  17
HETATM   17  C   UNL     1      39.844 -14.393  -2.270  1.00  0.00    -0.023 A 
HETATM   18  C   UNL     1      40.477 -15.451  -2.945  1.00  0.00     0.009 A 
HETATM   19  C   UNL     1      39.778 -16.224  -3.874  1.00  0.00     0.001 A 
HETATM   20  C   UNL     1      38.438 -15.953  -4.141  1.00  0.00     0.000 A 
HETATM   21  C   UNL     1      37.793 -14.911  -3.479  1.00  0.00     0.001 A 
HETATM   22  C   UNL     1      38.488 -14.137  -2.550  1.00  0.00     0.009 A 
ENDBRANCH  16  17
BRANCH  16  23
HETATM   23  C   UNL     1      41.314 -12.311  -1.852  1.00  0.00    -0.023 A 
HETATM   24  C   UNL     1      42.545 -11.823  -1.370  1.00  0.00     0.009 A 
HETATM   25  C   UNL     1      43.179 -10.732  -1.974  1.00  0.00     0.001 A 
HETATM   26  C   UNL     1      42.611 -10.116  -3.083  1.00  0.00     0.000 A 
HETATM   27  C   UNL     1      41.414 -10.596  -3.600  1.00  0.00     0.001 A 
HETATM   28  C   UNL     1      40.779 -11.687  -2.999  1.00  0.00     0.009 A 
ENDBRANCH  16  23
ENDBRANCH  12  16
ENDBRANCH   3   9
BRANCH   1  29
HETATM   29  C   UNL     1      42.532 -13.641   4.897  1.00  0.00     0.240 C 
HETATM   30  N   UNL     1      41.928 -14.882   4.840  1.00  0.00    -0.326 N 
HETATM   31  H   UNL     1      40.916 -14.923   4.848  1.00  0.00     0.169 HD
HETATM   32  O   UNL     1      43.746 -13.420   4.875  1.00  0.00    -0.271 OA
BRANCH  30  33
HETATM   33  C   UNL     1      42.584 -16.135   4.794  1.00  0.00     0.034 A 
HETATM   34  C   UNL     1      42.945 -16.868   5.927  1.00  0.00     0.030 A 
HETATM   35  C   UNL     1      43.570 -18.114   5.804  1.00  0.00     0.020 A 
HETATM   36  C   UNL     1      43.849 -18.650   4.544  1.00  0.00     0.039 A 
HETATM   37  C   UNL     1      43.498 -17.918   3.404  1.00  0.00     0.020 A 
HETATM   38  C   UNL     1      42.869 -16.672   3.531  1.00  0.00     0.030 A 
BRANCH  36  39
HETATM   39  C   UNL     1      44.501 -19.987   4.485  1.00  0.00     0.293 C 
HETATM   40  O   UNL     1      44.792 -20.632   5.478  1.00  0.00    -0.259 OA
BRANCH  39  41
HETATM   41  O   UNL     1      44.710 -20.361   3.198  1.00  0.00    -0.318 OA
BRANCH  41  42
HETATM   42  C   UNL     1      44.430 -21.739   2.903  1.00  0.00     0.174 C 
HETATM   43  C   UNL     1      44.041 -21.898   1.446  1.00  0.00     0.034 C 
ENDBRANCH  41  42
ENDBRANCH  39  41
ENDBRANCH  36  39
ENDBRANCH  30  33
ENDBRANCH   1  29
TORSDOF 9
ENDMDL
MODEL 9
REMARK VINA RESULT:      -8.9      3.167      6.762
REMARK  9 active torsions:
REMARK  status: ('A' for Active; 'I' for Inactive)
REMARK    1  A    between atoms: C_2  and  O_3 
REMARK    2  A    between atoms: O_3  and  C_4 
REMARK    3  A    between atoms: C_4  and  C_5 
REMARK    4  A    between atoms: C_8  and  N_9 
REMARK       I    between atoms: N_9  and  C_10 
REMARK    5  A    between atoms: C_10  and  C_11 
REMARK    6  A    between atoms: C_13  and  N_14 
REMARK    7  A    between atoms: N_17  and  C_19 
REMARK    8  A    between atoms: C_19  and  C_20 
REMARK    9  A    between atoms: C_19  and  C_26 
ROOT
HETATM    1  C   UNL     1      40.228 -14.090  -1.549  1.00  0.00     0.164 C 
HETATM    2  N   UNL     1      39.518 -13.603  -0.354  1.00  0.00    -0.249 NA
HETATM    3  C   UNL     1      39.608 -12.303   0.026  1.00  0.00     0.181 C 
HETATM    4  N   UNL     1      40.053 -11.351  -0.723  1.00  0.00    -0.185 NA
HETATM    5  C   UNL     1      40.492 -11.724  -1.970  1.00  0.00     0.247 C 
HETATM    6  O   UNL     1      40.379 -11.008  -2.958  1.00  0.00    -0.271 OA
HETATM    7  C   UNL     1      41.201 -13.048  -2.049  1.00  0.00     0.134 C 
HETATM    8  H   UNL     1      39.694 -14.252   0.421  1.00  0.00     0.131 HD
ENDROOT
BRANCH   3   9
HETATM    9  N   UNL     1      39.201 -12.091   1.325  1.00  0.00    -0.353 N 
HETATM   10  C   UNL     1      39.683 -10.936   2.110  1.00  0.00     0.153 C 
HETATM   11  C   UNL     1      40.851 -11.363   3.021  1.00  0.00     0.256 C 
HETATM   12  N   UNL     1      40.378 -12.492   3.937  1.00  0.00    -0.056 N 
HETATM   13  H   UNL     1      39.511 -12.190   4.386  1.00  0.00     0.281 HD
HETATM   14  C   UNL     1      39.968 -13.691   3.070  1.00  0.00     0.256 C 
HETATM   15  C   UNL     1      38.811 -13.257   2.147  1.00  0.00     0.153 C 
BRANCH  12  16
HETATM   16  C   UNL     1      41.307 -12.837   5.096  1.00  0.00     0.254 C 
BRANCH  16  17
HETATM   17  C   UNL     1      40.973 -12.064   6.368  1.00  0.00    -0.023 A 
HETATM   18  C   UNL     1      39.676 -12.050   6.911  1.00  0.00     0.009 A 
HETATM   19  C   UNL     1      39.397 -11.331   8.074  1.00  0.00     0.001 A 
HETATM   20  C   UNL     1      40.407 -10.617   8.713  1.00  0.00     0.000 A 
HETATM   21  C   UNL     1      41.699 -10.621   8.193  1.00  0.00     0.001 A 
HETATM   22  C   UNL     1      41.982 -11.339   7.030  1.00  0.00     0.009 A 
ENDBRANCH  16  17
BRANCH  16  23
HETATM   23  C   UNL     1      41.546 -14.345   5.303  1.00  0.00    -0.023 A 
HETATM   24  C   UNL     1      40.620 -15.205   5.928  1.00  0.00     0.009 A 
HETATM   25  C   UNL     1      40.878 -16.574   6.062  1.00  0.00     0.001 A 
HETATM   26  C   UNL     1      42.053 -17.119   5.559  1.00  0.00     0.000 A 
HETATM   27  C   UNL     1      42.970 -16.300   4.910  1.00  0.00     0.001 A 
HETATM   28  C   UNL     1      42.714 -14.933   4.774  1.00  0.00     0.009 A 
ENDBRANCH  16  23
ENDBRANCH  12  16
ENDBRANCH   3   9
BRANCH   1  29
HETATM   29  C   UNL     1      40.947 -15.395  -1.139  1.00  0.00     0.240 C 
HETATM   30  N   UNL     1      41.263 -15.502   0.201  1.00  0.00    -0.326 N 
HETATM   31  H   UNL     1      40.968 -14.758   0.823  1.00  0.00     0.169 HD
HETATM   32  O   UNL     1      41.213 -16.220  -2.018  1.00  0.00    -0.271 OA
BRANCH  30  33
HETATM   33  C   UNL     1      41.990 -16.550   0.813  1.00  0.00     0.034 A 
HETATM   34  C   UNL     1      43.384 -16.575   0.918  1.00  0.00     0.030 A 
HETATM   35  C   UNL     1      44.034 -17.634   1.560  1.00  0.00     0.020 A 
HETATM   36  C   UNL     1      43.303 -18.693   2.107  1.00  0.00     0.039 A 
HETATM   37  C   UNL     1      41.909 -18.679   1.999  1.00  0.00     0.020 A 
HETATM   38  C   UNL     1      41.260 -17.614   1.358  1.00  0.00     0.030 A 
BRANCH  36  39
HETATM   39  C   UNL     1      44.057 -19.779   2.790  1.00  0.00     0.293 C 
HETATM   40  O   UNL     1      44.397 -20.809   2.232  1.00  0.00    -0.259 OA
BRANCH  39  41
HETATM   41  O   UNL     1      44.298 -19.453   4.084  1.00  0.00    -0.318 OA
BRANCH  41  42
HETATM   42  C   UNL     1      44.717 -20.540   4.926  1.00  0.00     0.174 C 
HETATM   43  C   UNL     1      43.956 -20.515   6.237  1.00  0.00     0.034 C 
ENDBRANCH  41  42
ENDBRANCH  39  41
ENDBRANCH  36  39
ENDBRANCH  30  33
ENDBRANCH   1  29
TORSDOF 9
ENDMDL
MODEL 10
REMARK VINA RESULT:      -8.7      2.879      7.870
REMARK  9 active torsions:
REMARK  status: ('A' for Active; 'I' for Inactive)
REMARK    1  A    between atoms: C_2  and  O_3 
REMARK    2  A    between atoms: O_3  and  C_4 
REMARK    3  A    between atoms: C_4  and  C_5 
REMARK    4  A    between atoms: C_8  and  N_9 
REMARK       I    between atoms: N_9  and  C_10 
REMARK    5  A    between atoms: C_10  and  C_11 
REMARK    6  A    between atoms: C_13  and  N_14 
REMARK    7  A    between atoms: N_17  and  C_19 
REMARK    8  A    between atoms: C_19  and  C_20 
REMARK    9  A    between atoms: C_19  and  C_26 
ROOT
HETATM    1  C   UNL     1      39.228 -10.771   4.847  1.00  0.00     0.164 C 
HETATM    2  N   UNL     1      39.742 -12.054   5.355  1.00  0.00    -0.249 NA
HETATM    3  C   UNL     1      40.998 -12.149   5.858  1.00  0.00     0.181 C 
HETATM    4  N   UNL     1      41.731 -11.140   6.193  1.00  0.00    -0.185 NA
HETATM    5  C   UNL     1      41.179  -9.901   5.978  1.00  0.00     0.247 C 
HETATM    6  O   UNL     1      41.395  -8.940   6.707  1.00  0.00    -0.271 OA
HETATM    7  C   UNL     1      40.344  -9.760   4.735  1.00  0.00     0.134 C 
HETATM    8  H   UNL     1      39.537 -12.787   4.667  1.00  0.00     0.131 HD
ENDROOT
BRANCH   3   9
HETATM    9  N   UNL     1      41.447 -13.448   5.950  1.00  0.00    -0.353 N 
HETATM   10  C   UNL     1      42.885 -13.768   6.060  1.00  0.00     0.153 C 
HETATM   11  C   UNL     1      43.454 -14.145   4.677  1.00  0.00     0.256 C 
HETATM   12  N   UNL     1      42.667 -15.334   4.126  1.00  0.00    -0.056 N 
HETATM   13  H   UNL     1      42.648 -16.059   4.845  1.00  0.00     0.281 HD
HETATM   14  C   UNL     1      41.199 -14.918   3.955  1.00  0.00     0.256 C 
HETATM   15  C   UNL     1      40.637 -14.524   5.338  1.00  0.00     0.153 C 
BRANCH  12  16
HETATM   16  C   UNL     1      43.275 -16.021   2.908  1.00  0.00     0.254 C 
BRANCH  16  17
HETATM   17  C   UNL     1      43.660 -17.472   3.183  1.00  0.00    -0.023 A 
HETATM   18  C   UNL     1      44.052 -18.346   2.153  1.00  0.00     0.009 A 
HETATM   19  C   UNL     1      44.396 -19.669   2.432  1.00  0.00     0.001 A 
HETATM   20  C   UNL     1      44.355 -20.140   3.742  1.00  0.00     0.000 A 
HETATM   21  C   UNL     1      43.974 -19.289   4.776  1.00  0.00     0.001 A 
HETATM   22  C   UNL     1      43.630 -17.965   4.501  1.00  0.00     0.009 A 
ENDBRANCH  16  17
BRANCH  16  23
HETATM   23  C   UNL     1      42.507 -15.798   1.591  1.00  0.00    -0.023 A 
HETATM   24  C   UNL     1      41.760 -16.801   0.941  1.00  0.00     0.009 A 
HETATM   25  C   UNL     1      41.056 -16.532  -0.237  1.00  0.00     0.001 A 
HETATM   26  C   UNL     1      41.065 -15.254  -0.784  1.00  0.00     0.000 A 
HETATM   27  C   UNL     1      41.767 -14.238  -0.148  1.00  0.00     0.001 A 
HETATM   28  C   UNL     1      42.470 -14.503   1.031  1.00  0.00     0.009 A 
ENDBRANCH  16  23
ENDBRANCH  12  16
ENDBRANCH   3   9
BRANCH   1  29
HETATM   29  C   UNL     1      38.579 -11.063   3.475  1.00  0.00     0.240 C 
HETATM   30  N   UNL     1      39.214 -12.024   2.713  1.00  0.00    -0.326 N 
HETATM   31  H   UNL     1      40.015 -12.500   3.111  1.00  0.00     0.169 HD
HETATM   32  O   UNL     1      37.584 -10.413   3.145  1.00  0.00    -0.271 OA
BRANCH  30  33
HETATM   33  C   UNL     1      38.873 -12.413   1.395  1.00  0.00     0.034 A 
HETATM   34  C   UNL     1      38.124 -13.553   1.088  1.00  0.00     0.030 A 
HETATM   35  C   UNL     1      37.804 -13.861  -0.239  1.00  0.00     0.020 A 
HETATM   36  C   UNL     1      38.229 -13.038  -1.285  1.00  0.00     0.039 A 
HETATM   37  C   UNL     1      38.986 -11.901  -0.986  1.00  0.00     0.020 A 
HETATM   38  C   UNL     1      39.303 -11.592   0.345  1.00  0.00     0.030 A 
BRANCH  36  39
HETATM   39  C   UNL     1      37.839 -13.416  -2.671  1.00  0.00     0.293 C 
HETATM   40  O   UNL     1      37.852 -12.632  -3.605  1.00  0.00    -0.259 OA
BRANCH  39  41
HETATM   41  O   UNL     1      37.481 -14.723  -2.727  1.00  0.00    -0.318 OA
BRANCH  41  42
HETATM   42  C   UNL     1      37.842 -15.409  -3.937  1.00  0.00     0.174 C 
HETATM   43  C   UNL     1      39.317 -15.760  -3.924  1.00  0.00     0.034 C 
ENDBRANCH  41  42
ENDBRANCH  39  41
ENDBRANCH  36  39
ENDBRANCH  30  33
ENDBRANCH   1  29
TORSDOF 9
ENDMDL
