MODEL 1
REMARK VINA RESULT:      -8.0      0.000      0.000
REMARK  6 active torsions:
REMARK  status: ('A' for Active; 'I' for Inactive)
REMARK    1  A    between atoms: C_3  and  O_4 
REMARK    2  A    between atoms: O_4  and  C_5 
REMARK    3  A    between atoms: C_5  and  C_6 
REMARK    4  A    between atoms: C_15  and  C_16 
REMARK       I    between atoms: C_16  and  N_17 
REMARK    5  A    between atoms: N_17  and  N_18 
REMARK       I    between atoms: N_18  and  C_19 
REMARK    6  A    between atoms: C_19  and  C_20 
ROOT
HETATM    1  C   UNL     1      41.683 -17.443   5.894  1.00  0.00     0.051 C 
HETATM    2  C   UNL     1      41.061 -16.277   5.178  1.00  0.00    -0.027 A 
HETATM    3  C   UNL     1      40.894 -16.271   3.782  1.00  0.00     0.081 A 
HETATM    4  C   UNL     1      40.372 -15.144   3.125  1.00  0.00    -0.027 A 
HETATM    5  C   UNL     1      40.281 -15.049   1.628  1.00  0.00     0.051 C 
HETATM    6  C   UNL     1      39.893 -14.075   3.899  1.00  0.00     0.026 A 
HETATM    7  C   UNL     1      39.976 -14.098   5.298  1.00  0.00     0.034 A 
HETATM    8  C   UNL     1      40.583 -15.189   5.929  1.00  0.00     0.026 A 
ENDROOT
BRANCH   7   9
HETATM    9  C   UNL     1      39.430 -12.933   6.051  1.00  0.00     0.270 C 
HETATM   10  N   UNL     1      39.760 -12.842   7.388  1.00  0.00    -0.263 N 
HETATM   11  H   UNL     1      40.218 -13.578   7.920  1.00  0.00     0.190 HD
HETATM   12  O   UNL     1      38.693 -12.117   5.501  1.00  0.00    -0.266 OA
BRANCH  10  13
HETATM   13  N   UNL     1      39.157 -11.829   8.142  1.00  0.00    -0.262 N 
HETATM   14  C   UNL     1      39.926 -10.777   8.590  1.00  0.00     0.286 C 
HETATM   15  O   UNL     1      41.128 -10.700   8.333  1.00  0.00    -0.264 OA
HETATM   16  H   UNL     1      38.165 -11.933   8.336  1.00  0.00     0.190 HD
BRANCH  14  17
HETATM   17  C   UNL     1      39.229  -9.783   9.375  1.00  0.00     0.102 A 
HETATM   18  N   UNL     1      38.400 -10.145  10.417  1.00  0.00    -0.361 N 
HETATM   19  H   UNL     1      38.231 -11.106  10.693  1.00  0.00     0.165 HD
HETATM   20  C   UNL     1      37.859  -9.033  11.004  1.00  0.00     0.088 A 
HETATM   21  C   UNL     1      38.336  -7.931  10.334  1.00  0.00     0.019 A 
HETATM   22  C   UNL     1      39.197  -8.399   9.312  1.00  0.00     0.036 A 
ENDBRANCH  14  17
ENDBRANCH  10  13
ENDBRANCH   7   9
BRANCH   3  23
HETATM   23  O   UNL     1      41.322 -17.376   3.089  1.00  0.00    -0.346 OA
BRANCH  23  24
HETATM   24  C   UNL     1      42.725 -17.316   2.790  1.00  0.00     0.216 C 
BRANCH  24  25
HETATM   25  C   UNL     1      43.368 -18.679   2.809  1.00  0.00    -0.017 A 
HETATM   26  C   UNL     1      44.192 -19.025   3.878  1.00  0.00     0.125 A 
HETATM   27  N   UNL     1      44.807 -20.221   4.014  1.00  0.00    -0.272 NA
HETATM   28  C   UNL     1      44.588 -21.127   3.039  1.00  0.00     0.116 A 
HETATM   29  C   UNL     1      43.778 -20.893   1.941  1.00  0.00     0.020 A 
HETATM   30  C   UNL     1      43.155 -19.652   1.830  1.00  0.00     0.012 A 
ENDBRANCH  24  25
ENDBRANCH  23  24
ENDBRANCH   3  23
TORSDOF 6
ENDMDL
MODEL 2
REMARK VINA RESULT:      -8.0      4.831      9.174
REMARK  6 active torsions:
REMARK  status: ('A' for Active; 'I' for Inactive)
REMARK    1  A    between atoms: C_3  and  O_4 
REMARK    2  A    between atoms: O_4  and  C_5 
REMARK    3  A    between atoms: C_5  and  C_6 
REMARK    4  A    between atoms: C_15  and  C_16 
REMARK       I    between atoms: C_16  and  N_17 
REMARK    5  A    between atoms: N_17  and  N_18 
REMARK       I    between atoms: N_18  and  C_19 
REMARK    6  A    between atoms: C_19  and  C_20 
ROOT
HETATM    1  C   UNL     1      44.476 -17.484   6.309  1.00  0.00     0.051 C 
HETATM    2  C   UNL     1      43.613 -16.496   5.576  1.00  0.00    -0.027 A 
HETATM    3  C   UNL     1      43.416 -15.189   6.056  1.00  0.00     0.081 A 
HETATM    4  C   UNL     1      42.552 -14.302   5.392  1.00  0.00    -0.027 A 
HETATM    5  C   UNL     1      42.223 -12.937   5.929  1.00  0.00     0.051 C 
HETATM    6  C   UNL     1      41.992 -14.697   4.166  1.00  0.00     0.026 A 
HETATM    7  C   UNL     1      42.243 -15.968   3.631  1.00  0.00     0.034 A 
HETATM    8  C   UNL     1      43.033 -16.870   4.352  1.00  0.00     0.026 A 
ENDROOT
BRANCH   7   9
HETATM    9  C   UNL     1      41.628 -16.307   2.316  1.00  0.00     0.270 C 
HETATM   10  N   UNL     1      41.414 -15.263   1.438  1.00  0.00    -0.263 N 
HETATM   11  H   UNL     1      41.507 -14.279   1.679  1.00  0.00     0.190 HD
HETATM   12  O   UNL     1      41.302 -17.462   2.052  1.00  0.00    -0.266 OA
BRANCH  10  13
HETATM   13  N   UNL     1      40.725 -15.539   0.252  1.00  0.00    -0.262 N 
HETATM   14  C   UNL     1      40.942 -14.744  -0.852  1.00  0.00     0.286 C 
HETATM   15  O   UNL     1      41.739 -13.804  -0.824  1.00  0.00    -0.264 OA
HETATM   16  H   UNL     1      40.073 -16.319   0.273  1.00  0.00     0.190 HD
BRANCH  14  17
HETATM   17  C   UNL     1      40.178 -15.086  -2.030  1.00  0.00     0.102 A 
HETATM   18  N   UNL     1      38.897 -14.608  -2.218  1.00  0.00    -0.361 N 
HETATM   19  H   UNL     1      38.423 -14.000  -1.561  1.00  0.00     0.165 HD
HETATM   20  C   UNL     1      38.385 -15.069  -3.401  1.00  0.00     0.088 A 
HETATM   21  C   UNL     1      39.340 -15.863  -3.991  1.00  0.00     0.019 A 
HETATM   22  C   UNL     1      40.467 -15.875  -3.133  1.00  0.00     0.036 A 
ENDBRANCH  14  17
ENDBRANCH  10  13
ENDBRANCH   7   9
BRANCH   3  23
HETATM   23  O   UNL     1      44.045 -14.843   7.226  1.00  0.00    -0.346 OA
BRANCH  23  24
HETATM   24  C   UNL     1      45.190 -14.007   6.996  1.00  0.00     0.216 C 
BRANCH  24  25
HETATM   25  C   UNL     1      45.313 -12.918   8.030  1.00  0.00    -0.017 A 
HETATM   26  C   UNL     1      46.387 -12.034   7.960  1.00  0.00     0.125 A 
HETATM   27  N   UNL     1      46.593 -11.008   8.817  1.00  0.00    -0.272 NA
HETATM   28  C   UNL     1      45.679 -10.847   9.796  1.00  0.00     0.116 A 
HETATM   29  C   UNL     1      44.568 -11.659   9.950  1.00  0.00     0.020 A 
HETATM   30  C   UNL     1      44.381 -12.705   9.049  1.00  0.00     0.012 A 
ENDBRANCH  24  25
ENDBRANCH  23  24
ENDBRANCH   3  23
TORSDOF 6
ENDMDL
MODEL 3
REMARK VINA RESULT:      -8.0      0.725      1.812
REMARK  6 active torsions:
REMARK  status: ('A' for Active; 'I' for Inactive)
REMARK    1  A    between atoms: C_3  and  O_4 
REMARK    2  A    between atoms: O_4  and  C_5 
REMARK    3  A    between atoms: C_5  and  C_6 
REMARK    4  A    between atoms: C_15  and  C_16 
REMARK       I    between atoms: C_16  and  N_17 
REMARK    5  A    between atoms: N_17  and  N_18 
REMARK       I    between atoms: N_18  and  C_19 
REMARK    6  A    between atoms: C_19  and  C_20 
ROOT
HETATM    1  C   UNL     1      40.134 -15.509   1.691  1.00  0.00     0.051 C 
HETATM    2  C   UNL     1      40.318 -15.299   3.168  1.00  0.00    -0.027 A 
HETATM    3  C   UNL     1      40.937 -16.265   3.981  1.00  0.00     0.081 A 
HETATM    4  C   UNL     1      41.039 -16.079   5.369  1.00  0.00    -0.027 A 
HETATM    5  C   UNL     1      41.588 -17.131   6.290  1.00  0.00     0.051 C 
HETATM    6  C   UNL     1      40.633 -14.850   5.916  1.00  0.00     0.026 A 
HETATM    7  C   UNL     1      40.088 -13.843   5.108  1.00  0.00     0.034 A 
HETATM    8  C   UNL     1      39.911 -14.082   3.741  1.00  0.00     0.026 A 
ENDROOT
BRANCH   7   9
HETATM    9  C   UNL     1      39.699 -12.559   5.759  1.00  0.00     0.270 C 
HETATM   10  N   UNL     1      40.464 -12.143   6.830  1.00  0.00    -0.263 N 
HETATM   11  H   UNL     1      41.170 -12.713   7.290  1.00  0.00     0.190 HD
HETATM   12  O   UNL     1      38.718 -11.928   5.370  1.00  0.00    -0.266 OA
BRANCH  10  13
HETATM   13  N   UNL     1      40.042 -11.009   7.533  1.00  0.00    -0.262 N 
HETATM   14  C   UNL     1      39.249 -11.166   8.648  1.00  0.00     0.286 C 
HETATM   15  O   UNL     1      38.913 -12.282   9.049  1.00  0.00    -0.264 OA
HETATM   16  H   UNL     1      40.337 -10.108   7.165  1.00  0.00     0.190 HD
BRANCH  14  17
HETATM   17  C   UNL     1      38.843  -9.944   9.305  1.00  0.00     0.102 A 
HETATM   18  N   UNL     1      38.302  -9.958  10.575  1.00  0.00    -0.361 N 
HETATM   19  H   UNL     1      38.160 -10.804  11.115  1.00  0.00     0.165 HD
HETATM   20  C   UNL     1      38.000  -8.686  10.977  1.00  0.00     0.088 A 
HETATM   21  C   UNL     1      38.342  -7.830   9.958  1.00  0.00     0.019 A 
HETATM   22  C   UNL     1      38.873  -8.617   8.906  1.00  0.00     0.036 A 
ENDBRANCH  14  17
ENDBRANCH  10  13
ENDBRANCH   7   9
BRANCH   3  23
HETATM   23  O   UNL     1      41.372 -17.418   3.374  1.00  0.00    -0.346 OA
BRANCH  23  24
HETATM   24  C   UNL     1      42.766 -17.355   3.034  1.00  0.00     0.216 C 
BRANCH  24  25
HETATM   25  C   UNL     1      43.408 -18.718   3.022  1.00  0.00    -0.017 A 
HETATM   26  C   UNL     1      44.142 -19.131   4.132  1.00  0.00     0.125 A 
HETATM   27  N   UNL     1      44.747 -20.335   4.245  1.00  0.00    -0.272 NA
HETATM   28  C   UNL     1      44.611 -21.179   3.202  1.00  0.00     0.116 A 
HETATM   29  C   UNL     1      43.894 -20.876   2.057  1.00  0.00     0.020 A 
HETATM   30  C   UNL     1      43.279 -19.629   1.971  1.00  0.00     0.012 A 
ENDBRANCH  24  25
ENDBRANCH  23  24
ENDBRANCH   3  23
TORSDOF 6
ENDMDL
MODEL 4
REMARK VINA RESULT:      -7.9      3.028      3.646
REMARK  6 active torsions:
REMARK  status: ('A' for Active; 'I' for Inactive)
REMARK    1  A    between atoms: C_3  and  O_4 
REMARK    2  A    between atoms: O_4  and  C_5 
REMARK    3  A    between atoms: C_5  and  C_6 
REMARK    4  A    between atoms: C_15  and  C_16 
REMARK       I    between atoms: C_16  and  N_17 
REMARK    5  A    between atoms: N_17  and  N_18 
REMARK       I    between atoms: N_18  and  C_19 
REMARK    6  A    between atoms: C_19  and  C_20 
ROOT
HETATM    1  C   UNL     1      42.114 -15.399   2.346  1.00  0.00     0.051 C 
HETATM    2  C   UNL     1      42.674 -15.331   3.739  1.00  0.00    -0.027 A 
HETATM    3  C   UNL     1      43.494 -16.350   4.256  1.00  0.00     0.081 A 
HETATM    4  C   UNL     1      43.953 -16.300   5.583  1.00  0.00    -0.027 A 
HETATM    5  C   UNL     1      44.734 -17.419   6.212  1.00  0.00     0.051 C 
HETATM    6  C   UNL     1      43.691 -15.149   6.343  1.00  0.00     0.026 A 
HETATM    7  C   UNL     1      42.945 -14.086   5.816  1.00  0.00     0.034 A 
HETATM    8  C   UNL     1      42.419 -14.194   4.524  1.00  0.00     0.026 A 
ENDROOT
BRANCH   7   9
HETATM    9  C   UNL     1      42.725 -12.890   6.679  1.00  0.00     0.270 C 
HETATM   10  N   UNL     1      43.571 -12.734   7.759  1.00  0.00    -0.263 N 
HETATM   11  H   UNL     1      44.225 -13.441   8.085  1.00  0.00     0.190 HD
HETATM   12  O   UNL     1      41.808 -12.105   6.446  1.00  0.00    -0.266 OA
BRANCH  10  13
HETATM   13  N   UNL     1      43.305 -11.690   8.651  1.00  0.00    -0.262 N 
HETATM   14  C   UNL     1      43.716 -11.804   9.961  1.00  0.00     0.286 C 
HETATM   15  O   UNL     1      44.324 -12.797  10.363  1.00  0.00    -0.264 OA
HETATM   16  H   UNL     1      42.797 -10.891   8.280  1.00  0.00     0.190 HD
BRANCH  14  17
HETATM   17  C   UNL     1      43.386 -10.689  10.819  1.00  0.00     0.102 A 
HETATM   18  N   UNL     1      42.397  -9.789  10.477  1.00  0.00    -0.361 N 
HETATM   19  H   UNL     1      41.851  -9.850   9.626  1.00  0.00     0.165 HD
HETATM   20  C   UNL     1      42.272  -8.829  11.445  1.00  0.00     0.088 A 
HETATM   21  C   UNL     1      43.193  -9.100  12.429  1.00  0.00     0.019 A 
HETATM   22  C   UNL     1      43.893 -10.269  12.039  1.00  0.00     0.036 A 
ENDBRANCH  14  17
ENDBRANCH  10  13
ENDBRANCH   7   9
BRANCH   3  23
HETATM   23  O   UNL     1      43.767 -17.419   3.438  1.00  0.00    -0.346 OA
BRANCH  23  24
HETATM   24  C   UNL     1      42.866 -18.514   3.661  1.00  0.00     0.216 C 
BRANCH  24  25
HETATM   25  C   UNL     1      43.469 -19.835   3.258  1.00  0.00    -0.017 A 
HETATM   26  C   UNL     1      44.216 -20.551   4.190  1.00  0.00     0.125 A 
HETATM   27  N   UNL     1      44.789 -21.752   3.951  1.00  0.00    -0.272 NA
HETATM   28  C   UNL     1      44.606 -22.275   2.721  1.00  0.00     0.116 A 
HETATM   29  C   UNL     1      43.872 -21.654   1.725  1.00  0.00     0.020 A 
HETATM   30  C   UNL     1      43.290 -20.419   2.002  1.00  0.00     0.012 A 
ENDBRANCH  24  25
ENDBRANCH  23  24
ENDBRANCH   3  23
TORSDOF 6
ENDMDL
MODEL 5
REMARK VINA RESULT:      -7.6      1.487      2.508
REMARK  6 active torsions:
REMARK  status: ('A' for Active; 'I' for Inactive)
REMARK    1  A    between atoms: C_3  and  O_4 
REMARK    2  A    between atoms: O_4  and  C_5 
REMARK    3  A    between atoms: C_5  and  C_6 
REMARK    4  A    between atoms: C_15  and  C_16 
REMARK       I    between atoms: C_16  and  N_17 
REMARK    5  A    between atoms: N_17  and  N_18 
REMARK       I    between atoms: N_18  and  C_19 
REMARK    6  A    between atoms: C_19  and  C_20 
ROOT
HETATM    1  C   UNL     1      42.096 -15.838   0.605  1.00  0.00     0.051 C 
HETATM    2  C   UNL     1      41.967 -15.815   2.103  1.00  0.00    -0.027 A 
HETATM    3  C   UNL     1      42.081 -16.986   2.872  1.00  0.00     0.081 A 
HETATM    4  C   UNL     1      41.891 -16.953   4.264  1.00  0.00    -0.027 A 
HETATM    5  C   UNL     1      41.889 -18.194   5.110  1.00  0.00     0.051 C 
HETATM    6  C   UNL     1      41.720 -15.709   4.891  1.00  0.00     0.026 A 
HETATM    7  C   UNL     1      41.686 -14.521   4.148  1.00  0.00     0.034 A 
HETATM    8  C   UNL     1      41.785 -14.583   2.754  1.00  0.00     0.026 A 
ENDROOT
BRANCH   7   9
HETATM    9  C   UNL     1      41.519 -13.238   4.888  1.00  0.00     0.270 C 
HETATM   10  N   UNL     1      41.250 -13.325   6.239  1.00  0.00    -0.263 N 
HETATM   11  H   UNL     1      41.015 -14.187   6.725  1.00  0.00     0.190 HD
HETATM   12  O   UNL     1      41.589 -12.159   4.302  1.00  0.00    -0.266 OA
BRANCH  10  13
HETATM   13  N   UNL     1      40.966 -12.140   6.926  1.00  0.00    -0.262 N 
HETATM   14  C   UNL     1      39.652 -11.785   7.140  1.00  0.00     0.286 C 
HETATM   15  O   UNL     1      38.721 -12.492   6.752  1.00  0.00    -0.264 OA
HETATM   16  H   UNL     1      41.763 -11.583   7.225  1.00  0.00     0.190 HD
BRANCH  14  17
HETATM   17  C   UNL     1      39.447 -10.538   7.842  1.00  0.00     0.102 A 
HETATM   18  N   UNL     1      39.103 -10.516   9.179  1.00  0.00    -0.361 N 
HETATM   19  H   UNL     1      38.978 -11.350   9.740  1.00  0.00     0.165 HD
HETATM   20  C   UNL     1      38.966  -9.226   9.614  1.00  0.00     0.088 A 
HETATM   21  C   UNL     1      39.217  -8.394   8.548  1.00  0.00     0.019 A 
HETATM   22  C   UNL     1      39.520  -9.215   7.435  1.00  0.00     0.036 A 
ENDBRANCH  14  17
ENDBRANCH  10  13
ENDBRANCH   7   9
BRANCH   3  23
HETATM   23  O   UNL     1      42.315 -18.163   2.203  1.00  0.00    -0.346 OA
BRANCH  23  24
HETATM   24  C   UNL     1      43.718 -18.436   2.068  1.00  0.00     0.216 C 
BRANCH  24  25
HETATM   25  C   UNL     1      44.072 -19.825   2.532  1.00  0.00    -0.017 A 
HETATM   26  C   UNL     1      44.524 -20.010   3.837  1.00  0.00     0.125 A 
HETATM   27  N   UNL     1      44.853 -21.208   4.371  1.00  0.00    -0.272 NA
HETATM   28  C   UNL     1      44.721 -22.284   3.568  1.00  0.00     0.116 A 
HETATM   29  C   UNL     1      44.269 -22.215   2.260  1.00  0.00     0.020 A 
HETATM   30  C   UNL     1      43.935 -20.968   1.739  1.00  0.00     0.012 A 
ENDBRANCH  24  25
ENDBRANCH  23  24
ENDBRANCH   3  23
TORSDOF 6
ENDMDL
MODEL 6
REMARK VINA RESULT:      -7.5      5.639      7.844
REMARK  6 active torsions:
REMARK  status: ('A' for Active; 'I' for Inactive)
REMARK    1  A    between atoms: C_3  and  O_4 
REMARK    2  A    between atoms: O_4  and  C_5 
REMARK    3  A    between atoms: C_5  and  C_6 
REMARK    4  A    between atoms: C_15  and  C_16 
REMARK       I    between atoms: C_16  and  N_17 
REMARK    5  A    between atoms: N_17  and  N_18 
REMARK       I    between atoms: N_18  and  C_19 
REMARK    6  A    between atoms: C_19  and  C_20 
ROOT
HETATM    1  C   UNL     1      41.655 -18.234   1.361  1.00  0.00     0.051 C 
HETATM    2  C   UNL     1      42.018 -16.896   1.943  1.00  0.00    -0.027 A 
HETATM    3  C   UNL     1      42.564 -16.776   3.233  1.00  0.00     0.081 A 
HETATM    4  C   UNL     1      42.834 -15.513   3.785  1.00  0.00    -0.027 A 
HETATM    5  C   UNL     1      43.309 -15.331   5.199  1.00  0.00     0.051 C 
HETATM    6  C   UNL     1      42.676 -14.376   2.975  1.00  0.00     0.026 A 
HETATM    7  C   UNL     1      42.211 -14.484   1.657  1.00  0.00     0.034 A 
HETATM    8  C   UNL     1      41.860 -15.742   1.156  1.00  0.00     0.026 A 
ENDROOT
BRANCH   7   9
HETATM    9  C   UNL     1      42.088 -13.234   0.854  1.00  0.00     0.270 C 
HETATM   10  N   UNL     1      41.610 -13.363  -0.434  1.00  0.00    -0.263 N 
HETATM   11  H   UNL     1      41.479 -14.250  -0.914  1.00  0.00     0.190 HD
HETATM   12  O   UNL     1      42.432 -12.150   1.320  1.00  0.00    -0.266 OA
BRANCH  10  13
HETATM   13  N   UNL     1      41.605 -12.223  -1.246  1.00  0.00    -0.262 N 
HETATM   14  C   UNL     1      42.298 -12.243  -2.436  1.00  0.00     0.286 C 
HETATM   15  O   UNL     1      42.911 -13.244  -2.810  1.00  0.00    -0.264 OA
HETATM   16  H   UNL     1      41.091 -11.418  -0.899  1.00  0.00     0.190 HD
BRANCH  14  17
HETATM   17  C   UNL     1      42.255 -11.020  -3.206  1.00  0.00     0.102 A 
HETATM   18  N   UNL     1      41.980  -9.806  -2.608  1.00  0.00    -0.361 N 
HETATM   19  H   UNL     1      41.797  -9.697  -1.617  1.00  0.00     0.165 HD
HETATM   20  C   UNL     1      41.997  -8.803  -3.539  1.00  0.00     0.088 A 
HETATM   21  C   UNL     1      42.280  -9.367  -4.760  1.00  0.00     0.019 A 
HETATM   22  C   UNL     1      42.444 -10.759  -4.554  1.00  0.00     0.036 A 
ENDBRANCH  14  17
ENDBRANCH  10  13
ENDBRANCH   7   9
BRANCH   3  23
HETATM   23  O   UNL     1      42.755 -17.932   3.950  1.00  0.00    -0.346 OA
BRANCH  23  24
HETATM   24  C   UNL     1      44.135 -18.331   3.971  1.00  0.00     0.216 C 
BRANCH  24  25
HETATM   25  C   UNL     1      44.301 -19.807   3.718  1.00  0.00    -0.017 A 
HETATM   26  C   UNL     1      44.688 -20.635   4.770  1.00  0.00     0.125 A 
HETATM   27  N   UNL     1      44.851 -21.974   4.670  1.00  0.00    -0.272 NA
HETATM   28  C   UNL     1      44.613 -22.523   3.461  1.00  0.00     0.116 A 
HETATM   29  C   UNL     1      44.212 -21.795   2.353  1.00  0.00     0.020 A 
HETATM   30  C   UNL     1      44.048 -20.419   2.488  1.00  0.00     0.012 A 
ENDBRANCH  24  25
ENDBRANCH  23  24
ENDBRANCH   3  23
TORSDOF 6
ENDMDL
MODEL 7
REMARK VINA RESULT:      -7.5      5.592      7.992
REMARK  6 active torsions:
REMARK  status: ('A' for Active; 'I' for Inactive)
REMARK    1  A    between atoms: C_3  and  O_4 
REMARK    2  A    between atoms: O_4  and  C_5 
REMARK    3  A    between atoms: C_5  and  C_6 
REMARK    4  A    between atoms: C_15  and  C_16 
REMARK       I    between atoms: C_16  and  N_17 
REMARK    5  A    between atoms: N_17  and  N_18 
REMARK       I    between atoms: N_18  and  C_19 
REMARK    6  A    between atoms: C_19  and  C_20 
ROOT
HETATM    1  C   UNL     1      42.482 -19.036   1.704  1.00  0.00     0.051 C 
HETATM    2  C   UNL     1      41.968 -17.634   1.879  1.00  0.00    -0.027 A 
HETATM    3  C   UNL     1      41.717 -17.093   3.152  1.00  0.00     0.081 A 
HETATM    4  C   UNL     1      41.174 -15.805   3.291  1.00  0.00    -0.027 A 
HETATM    5  C   UNL     1      40.784 -15.230   4.624  1.00  0.00     0.051 C 
HETATM    6  C   UNL     1      41.011 -15.014   2.142  1.00  0.00     0.026 A 
HETATM    7  C   UNL     1      41.333 -15.508   0.871  1.00  0.00     0.034 A 
HETATM    8  C   UNL     1      41.787 -16.825   0.743  1.00  0.00     0.026 A 
ENDROOT
BRANCH   7   9
HETATM    9  C   UNL     1      41.151 -14.602  -0.299  1.00  0.00     0.270 C 
HETATM   10  N   UNL     1      42.259 -14.369  -1.089  1.00  0.00    -0.263 N 
HETATM   11  H   UNL     1      43.207 -14.648  -0.848  1.00  0.00     0.190 HD
HETATM   12  O   UNL     1      40.066 -14.068  -0.519  1.00  0.00    -0.266 OA
BRANCH  10  13
HETATM   13  N   UNL     1      42.142 -13.426  -2.115  1.00  0.00    -0.262 N 
HETATM   14  C   UNL     1      42.558 -12.132  -1.890  1.00  0.00     0.286 C 
HETATM   15  O   UNL     1      43.043 -11.788  -0.810  1.00  0.00    -0.264 OA
HETATM   16  H   UNL     1      41.733 -13.749  -2.988  1.00  0.00     0.190 HD
BRANCH  14  17
HETATM   17  C   UNL     1      42.387 -11.218  -2.996  1.00  0.00     0.102 A 
HETATM   18  N   UNL     1      41.826 -11.631  -4.188  1.00  0.00    -0.361 N 
HETATM   19  H   UNL     1      41.506 -12.577  -4.359  1.00  0.00     0.165 HD
HETATM   20  C   UNL     1      41.772 -10.590  -5.075  1.00  0.00     0.088 A 
HETATM   21  C   UNL     1      42.308  -9.484  -4.459  1.00  0.00     0.019 A 
HETATM   22  C   UNL     1      42.694  -9.875  -3.153  1.00  0.00     0.036 A 
ENDBRANCH  14  17
ENDBRANCH  10  13
ENDBRANCH   7   9
BRANCH   3  23
HETATM   23  O   UNL     1      41.960 -17.895   4.240  1.00  0.00    -0.346 OA
BRANCH  23  24
HETATM   24  C   UNL     1      43.343 -17.876   4.626  1.00  0.00     0.216 C 
BRANCH  24  25
HETATM   25  C   UNL     1      43.846 -19.247   4.996  1.00  0.00    -0.017 A 
HETATM   26  C   UNL     1      43.516 -19.776   6.242  1.00  0.00     0.125 A 
HETATM   27  N   UNL     1      43.892 -21.000   6.679  1.00  0.00    -0.272 NA
HETATM   28  C   UNL     1      44.632 -21.743   5.831  1.00  0.00     0.116 A 
HETATM   29  C   UNL     1      45.006 -21.320   4.566  1.00  0.00     0.020 A 
HETATM   30  C   UNL     1      44.600 -20.056   4.143  1.00  0.00     0.012 A 
ENDBRANCH  24  25
ENDBRANCH  23  24
ENDBRANCH   3  23
TORSDOF 6
ENDMDL
MODEL 8
REMARK VINA RESULT:      -7.5      3.667     10.647
REMARK  6 active torsions:
REMARK  status: ('A' for Active; 'I' for Inactive)
REMARK    1  A    between atoms: C_3  and  O_4 
REMARK    2  A    between atoms: O_4  and  C_5 
REMARK    3  A    between atoms: C_5  and  C_6 
REMARK    4  A    between atoms: C_15  and  C_16 
REMARK       I    between atoms: C_16  and  N_17 
REMARK    5  A    between atoms: N_17  and  N_18 
REMARK       I    between atoms: N_18  and  C_19 
REMARK    6  A    between atoms: C_19  and  C_20 
ROOT
HETATM    1  C   UNL     1      41.334 -10.677   7.398  1.00  0.00     0.051 C 
HETATM    2  C   UNL     1      42.433 -11.696   7.271  1.00  0.00    -0.027 A 
HETATM    3  C   UNL     1      43.527 -11.716   8.155  1.00  0.00     0.081 A 
HETATM    4  C   UNL     1      44.576 -12.633   7.979  1.00  0.00    -0.027 A 
HETATM    5  C   UNL     1      45.816 -12.618   8.827  1.00  0.00     0.051 C 
HETATM    6  C   UNL     1      44.451 -13.618   6.986  1.00  0.00     0.026 A 
HETATM    7  C   UNL     1      43.328 -13.664   6.148  1.00  0.00     0.034 A 
HETATM    8  C   UNL     1      42.336 -12.686   6.279  1.00  0.00     0.026 A 
ENDROOT
BRANCH   7   9
HETATM    9  C   UNL     1      43.259 -14.751   5.130  1.00  0.00     0.270 C 
HETATM   10  N   UNL     1      42.920 -16.010   5.582  1.00  0.00    -0.263 N 
HETATM   11  H   UNL     1      42.860 -16.274   6.563  1.00  0.00     0.190 HD
HETATM   12  O   UNL     1      43.526 -14.528   3.951  1.00  0.00    -0.266 OA
BRANCH  10  13
HETATM   13  N   UNL     1      42.971 -17.068   4.668  1.00  0.00    -0.262 N 
HETATM   14  C   UNL     1      43.949 -18.028   4.805  1.00  0.00     0.286 C 
HETATM   15  O   UNL     1      44.772 -17.985   5.722  1.00  0.00    -0.264 OA
HETATM   16  H   UNL     1      42.278 -17.063   3.925  1.00  0.00     0.190 HD
BRANCH  14  17
HETATM   17  C   UNL     1      43.942 -19.076   3.810  1.00  0.00     0.102 A 
HETATM   18  N   UNL     1      44.709 -20.214   3.960  1.00  0.00    -0.361 N 
HETATM   19  H   UNL     1      45.309 -20.385   4.759  1.00  0.00     0.165 HD
HETATM   20  C   UNL     1      44.532 -21.052   2.893  1.00  0.00     0.088 A 
HETATM   21  C   UNL     1      43.645 -20.453   2.030  1.00  0.00     0.019 A 
HETATM   22  C   UNL     1      43.272 -19.212   2.604  1.00  0.00     0.036 A 
ENDBRANCH  14  17
ENDBRANCH  10  13
ENDBRANCH   7   9
BRANCH   3  23
HETATM   23  O   UNL     1      43.557 -10.767   9.147  1.00  0.00    -0.346 OA
BRANCH  23  24
HETATM   24  C   UNL     1      43.119 -11.292  10.410  1.00  0.00     0.216 C 
BRANCH  24  25
HETATM   25  C   UNL     1      42.921 -10.207  11.436  1.00  0.00    -0.017 A 
HETATM   26  C   UNL     1      42.143  -9.098  11.109  1.00  0.00     0.125 A 
HETATM   27  N   UNL     1      41.880  -8.072  11.950  1.00  0.00    -0.272 NA
HETATM   28  C   UNL     1      42.413  -8.153  13.186  1.00  0.00     0.116 A 
HETATM   29  C   UNL     1      43.190  -9.214  13.620  1.00  0.00     0.020 A 
HETATM   30  C   UNL     1      43.441 -10.258  12.732  1.00  0.00     0.012 A 
ENDBRANCH  24  25
ENDBRANCH  23  24
ENDBRANCH   3  23
TORSDOF 6
ENDMDL
MODEL 9
REMARK VINA RESULT:      -7.3      4.147     10.810
REMARK  6 active torsions:
REMARK  status: ('A' for Active; 'I' for Inactive)
REMARK    1  A    between atoms: C_3  and  O_4 
REMARK    2  A    between atoms: O_4  and  C_5 
REMARK    3  A    between atoms: C_5  and  C_6 
REMARK    4  A    between atoms: C_15  and  C_16 
REMARK       I    between atoms: C_16  and  N_17 
REMARK    5  A    between atoms: N_17  and  N_18 
REMARK       I    between atoms: N_18  and  C_19 
REMARK    6  A    between atoms: C_19  and  C_20 
ROOT
HETATM    1  C   UNL     1      41.339 -10.153   7.700  1.00  0.00     0.051 C 
HETATM    2  C   UNL     1      42.492 -11.020   8.124  1.00  0.00    -0.027 A 
HETATM    3  C   UNL     1      43.221 -10.756   9.298  1.00  0.00     0.081 A 
HETATM    4  C   UNL     1      44.337 -11.538   9.641  1.00  0.00    -0.027 A 
HETATM    5  C   UNL     1      45.212 -11.225  10.821  1.00  0.00     0.051 C 
HETATM    6  C   UNL     1      44.631 -12.670   8.864  1.00  0.00     0.026 A 
HETATM    7  C   UNL     1      43.865 -12.995   7.737  1.00  0.00     0.034 A 
HETATM    8  C   UNL     1      42.814 -12.153   7.358  1.00  0.00     0.026 A 
ENDROOT
BRANCH   7   9
HETATM    9  C   UNL     1      44.228 -14.223   6.974  1.00  0.00     0.270 C 
HETATM   10  N   UNL     1      43.284 -15.229   6.922  1.00  0.00    -0.263 N 
HETATM   11  H   UNL     1      42.435 -15.252   7.480  1.00  0.00     0.190 HD
HETATM   12  O   UNL     1      45.334 -14.334   6.448  1.00  0.00    -0.266 OA
BRANCH  10  13
HETATM   13  N   UNL     1      43.651 -16.438   6.319  1.00  0.00    -0.262 N 
HETATM   14  C   UNL     1      43.640 -17.593   7.069  1.00  0.00     0.286 C 
HETATM   15  O   UNL     1      43.303 -17.590   8.254  1.00  0.00    -0.264 OA
HETATM   16  H   UNL     1      43.927 -16.395   5.342  1.00  0.00     0.190 HD
BRANCH  14  17
HETATM   17  C   UNL     1      44.049 -18.793   6.375  1.00  0.00     0.102 A 
HETATM   18  N   UNL     1      44.856 -18.736   5.257  1.00  0.00    -0.361 N 
HETATM   19  H   UNL     1      45.206 -17.871   4.861  1.00  0.00     0.165 HD
HETATM   20  C   UNL     1      45.102 -19.995   4.782  1.00  0.00     0.088 A 
HETATM   21  C   UNL     1      44.445 -20.888   5.596  1.00  0.00     0.019 A 
HETATM   22  C   UNL     1      43.784 -20.135   6.598  1.00  0.00     0.036 A 
ENDBRANCH  14  17
ENDBRANCH  10  13
ENDBRANCH   7   9
BRANCH   3  23
HETATM   23  O   UNL     1      42.840  -9.672  10.050  1.00  0.00    -0.346 OA
BRANCH  23  24
HETATM   24  C   UNL     1      41.690  -9.956  10.862  1.00  0.00     0.216 C 
BRANCH  24  25
HETATM   25  C   UNL     1      41.985  -9.809  12.332  1.00  0.00    -0.017 A 
HETATM   26  C   UNL     1      41.090 -10.340  13.259  1.00  0.00     0.125 A 
HETATM   27  N   UNL     1      41.255 -10.287  14.600  1.00  0.00    -0.272 NA
HETATM   28  C   UNL     1      42.373  -9.678  15.047  1.00  0.00     0.116 A 
HETATM   29  C   UNL     1      43.333  -9.128  14.214  1.00  0.00     0.020 A 
HETATM   30  C   UNL     1      43.137  -9.202  12.837  1.00  0.00     0.012 A 
ENDBRANCH  24  25
ENDBRANCH  23  24
ENDBRANCH   3  23
TORSDOF 6
ENDMDL
MODEL 10
REMARK VINA RESULT:      -7.2      5.913      9.090
REMARK  6 active torsions:
REMARK  status: ('A' for Active; 'I' for Inactive)
REMARK    1  A    between atoms: C_3  and  O_4 
REMARK    2  A    between atoms: O_4  and  C_5 
REMARK    3  A    between atoms: C_5  and  C_6 
REMARK    4  A    between atoms: C_15  and  C_16 
REMARK       I    between atoms: C_16  and  N_17 
REMARK    5  A    between atoms: N_17  and  N_18 
REMARK       I    between atoms: N_18  and  C_19 
REMARK    6  A    between atoms: C_19  and  C_20 
ROOT
HETATM    1  C   UNL     1      37.503 -14.041   0.482  1.00  0.00     0.051 C 
HETATM    2  C   UNL     1      39.003 -14.036   0.589  1.00  0.00    -0.027 A 
HETATM    3  C   UNL     1      39.791 -13.116  -0.124  1.00  0.00     0.081 A 
HETATM    4  C   UNL     1      41.194 -13.171  -0.062  1.00  0.00    -0.027 A 
HETATM    5  C   UNL     1      42.076 -12.284  -0.894  1.00  0.00     0.051 C 
HETATM    6  C   UNL     1      41.794 -14.075   0.830  1.00  0.00     0.026 A 
HETATM    7  C   UNL     1      41.020 -14.944   1.610  1.00  0.00     0.034 A 
HETATM    8  C   UNL     1      39.629 -14.938   1.467  1.00  0.00     0.026 A 
ENDROOT
BRANCH   7   9
HETATM    9  C   UNL     1      41.729 -15.861   2.547  1.00  0.00     0.270 C 
HETATM   10  N   UNL     1      41.775 -17.197   2.201  1.00  0.00    -0.263 N 
HETATM   11  H   UNL     1      41.242 -17.614   1.442  1.00  0.00     0.190 HD
HETATM   12  O   UNL     1      42.218 -15.439   3.593  1.00  0.00    -0.266 OA
BRANCH  10  13
HETATM   13  N   UNL     1      42.325 -18.093   3.125  1.00  0.00    -0.262 N 
HETATM   14  C   UNL     1      43.543 -18.675   2.853  1.00  0.00     0.286 C 
HETATM   15  O   UNL     1      44.167 -18.416   1.822  1.00  0.00    -0.264 OA
HETATM   16  H   UNL     1      41.776 -18.282   3.959  1.00  0.00     0.190 HD
BRANCH  14  17
HETATM   17  C   UNL     1      44.031 -19.600   3.850  1.00  0.00     0.102 A 
HETATM   18  N   UNL     1      43.758 -19.419   5.191  1.00  0.00    -0.361 N 
HETATM   19  H   UNL     1      43.210 -18.647   5.553  1.00  0.00     0.165 HD
HETATM   20  C   UNL     1      44.324 -20.420   5.932  1.00  0.00     0.088 A 
HETATM   21  C   UNL     1      44.981 -21.263   5.068  1.00  0.00     0.019 A 
HETATM   22  C   UNL     1      44.798 -20.751   3.759  1.00  0.00     0.036 A 
ENDBRANCH  14  17
ENDBRANCH  10  13
ENDBRANCH   7   9
BRANCH   3  23
HETATM   23  O   UNL     1      39.139 -12.214  -0.929  1.00  0.00    -0.346 OA
BRANCH  23  24
HETATM   24  C   UNL     1      39.575 -12.296  -2.295  1.00  0.00     0.216 C 
BRANCH  24  25
HETATM   25  C   UNL     1      39.165 -13.593  -2.943  1.00  0.00    -0.017 A 
HETATM   26  C   UNL     1      40.150 -14.437  -3.453  1.00  0.00     0.125 A 
HETATM   27  N   UNL     1      39.907 -15.631  -4.039  1.00  0.00    -0.272 NA
HETATM   28  C   UNL     1      38.616 -16.013  -4.118  1.00  0.00     0.116 A 
HETATM   29  C   UNL     1      37.561 -15.259  -3.632  1.00  0.00     0.020 A 
HETATM   30  C   UNL     1      37.843 -14.034  -3.031  1.00  0.00     0.012 A 
ENDBRANCH  24  25
ENDBRANCH  23  24
ENDBRANCH   3  23
TORSDOF 6
ENDMDL
