MODEL 1
REMARK VINA RESULT:      -8.8      0.000      0.000
REMARK  8 active torsions:
REMARK  status: ('A' for Active; 'I' for Inactive)
REMARK    1  A    between atoms: C_2  and  C_3 
REMARK    2  A    between atoms: C_3  and  N_4 
REMARK    3  A    between atoms: N_9  and  C_11 
REMARK    4  A    between atoms: C_11  and  C_12 
REMARK    5  A    between atoms: C_14  and  C_15 
REMARK    6  A    between atoms: C_15  and  C_16 
REMARK    7  A    between atoms: C_16  and  C_17 
REMARK    8  A    between atoms: C_17  and  O_18 
ROOT
HETATM    1  N   UNL     1      42.715 -17.161   3.923  1.00  0.00    -0.066 N 
HETATM    2  H   UNL     1      43.432 -17.530   4.558  1.00  0.00     0.280 HD
HETATM    3  C   UNL     1      42.815 -15.654   3.816  1.00  0.00     0.246 C 
HETATM    4  C   UNL     1      42.671 -14.987   5.196  1.00  0.00     0.009 C 
HETATM    5  C   UNL     1      43.924 -15.197   6.059  1.00  0.00     0.246 C 
HETATM    6  N   UNL     1      43.952 -14.034   7.025  1.00  0.00    -0.066 N 
HETATM    7  H   UNL     1      43.525 -14.332   7.914  1.00  0.00     0.280 HD
HETATM    8  C   UNL     1      43.085 -12.935   6.448  1.00  0.00     0.236 C 
HETATM    9  C   UNL     1      42.683 -13.453   5.071  1.00  0.00     0.040 C 
HETATM   10  C   UNL     1      41.373 -15.476   5.880  1.00  0.00     0.014 C 
HETATM   11  C   UNL     1      41.212 -16.999   5.862  1.00  0.00     0.029 C 
HETATM   12  C   UNL     1      41.372 -17.592   4.466  1.00  0.00     0.235 C 
ENDROOT
BRANCH   1  13
HETATM   13  C   UNL     1      43.027 -17.865   2.598  1.00  0.00     0.273 C 
BRANCH  13  14
HETATM   14  C   UNL     1      43.601 -19.242   2.824  1.00  0.00    -0.032 A 
HETATM   15  C   UNL     1      43.423 -20.258   1.868  1.00  0.00     0.012 A 
HETATM   16  C   UNL     1      43.878 -21.554   2.122  1.00  0.00     0.043 A 
HETATM   17  C   UNL     1      44.522 -21.834   3.322  1.00  0.00     0.116 A 
HETATM   18  C   UNL     1      44.731 -20.839   4.267  1.00  0.00     0.043 A 
HETATM   19  F   UNL     1      44.940 -23.079   3.570  1.00  0.00    -0.206 F 
HETATM   20  C   UNL     1      44.273 -19.542   4.021  1.00  0.00     0.012 A 
ENDBRANCH  13  14
ENDBRANCH   1  13
BRANCH   6  21
HETATM   21  C   UNL     1      45.351 -13.567   7.404  1.00  0.00     0.280 C 
BRANCH  21  22
HETATM   22  C   UNL     1      45.328 -12.560   8.508  1.00  0.00     0.009 A 
HETATM   23  S   UNL     1      44.063 -12.590   9.669  1.00  0.00    -0.084 SA
HETATM   24  C   UNL     1      44.669 -11.218  10.478  1.00  0.00     0.058 A 
HETATM   25  C   UNL     1      45.838 -10.765   9.907  1.00  0.00     0.029 A 
HETATM   26  C   UNL     1      46.223 -11.541   8.773  1.00  0.00     0.018 A 
BRANCH  24  27
HETATM   27  C   UNL     1      44.021 -10.626  11.601  1.00  0.00    -0.057 C 
BRANCH  27  28
HETATM   28  C   UNL     1      43.442 -10.132  12.531  1.00  0.00    -0.075 C 
BRANCH  28  29
HETATM   29  C   UNL     1      42.709  -9.522  13.639  1.00  0.00     0.258 C 
BRANCH  29  30
HETATM   30  O   UNL     1      43.623  -8.827  14.473  1.00  0.00    -0.389 OA
HETATM   31  H   UNL     1      43.762  -7.953  14.068  1.00  0.00     0.210 HD
ENDBRANCH  29  30
ENDBRANCH  28  29
ENDBRANCH  27  28
ENDBRANCH  24  27
ENDBRANCH  21  22
ENDBRANCH   6  21
TORSDOF 8
ENDMDL
MODEL 2
REMARK VINA RESULT:      -8.0      5.025      7.438
REMARK  8 active torsions:
REMARK  status: ('A' for Active; 'I' for Inactive)
REMARK    1  A    between atoms: C_2  and  C_3 
REMARK    2  A    between atoms: C_3  and  N_4 
REMARK    3  A    between atoms: N_9  and  C_11 
REMARK    4  A    between atoms: C_11  and  C_12 
REMARK    5  A    between atoms: C_14  and  C_15 
REMARK    6  A    between atoms: C_15  and  C_16 
REMARK    7  A    between atoms: C_16  and  C_17 
REMARK    8  A    between atoms: C_17  and  O_18 
ROOT
HETATM    1  N   UNL     1      43.975 -18.091   5.778  1.00  0.00    -0.066 N 
HETATM    2  H   UNL     1      44.136 -17.894   4.784  1.00  0.00     0.280 HD
HETATM    3  C   UNL     1      42.521 -17.870   6.140  1.00  0.00     0.246 C 
HETATM    4  C   UNL     1      42.082 -16.427   5.825  1.00  0.00     0.009 C 
HETATM    5  C   UNL     1      41.935 -16.200   4.313  1.00  0.00     0.246 C 
HETATM    6  N   UNL     1      40.933 -15.077   4.167  1.00  0.00    -0.066 N 
HETATM    7  H   UNL     1      41.445 -14.190   4.056  1.00  0.00     0.280 HD
HETATM    8  C   UNL     1      40.145 -14.992   5.457  1.00  0.00     0.236 C 
HETATM    9  C   UNL     1      40.632 -16.181   6.278  1.00  0.00     0.040 C 
HETATM   10  C   UNL     1      43.049 -15.428   6.499  1.00  0.00     0.014 C 
HETATM   11  C   UNL     1      44.527 -15.740   6.241  1.00  0.00     0.029 C 
HETATM   12  C   UNL     1      44.889 -17.184   6.569  1.00  0.00     0.235 C 
ENDROOT
BRANCH   1  13
HETATM   13  C   UNL     1      44.396 -19.558   5.915  1.00  0.00     0.273 C 
BRANCH  13  14
HETATM   14  C   UNL     1      44.384 -20.264   4.582  1.00  0.00    -0.032 A 
HETATM   15  C   UNL     1      44.007 -19.581   3.412  1.00  0.00     0.012 A 
HETATM   16  C   UNL     1      43.912 -20.263   2.197  1.00  0.00     0.043 A 
HETATM   17  C   UNL     1      44.206 -21.620   2.144  1.00  0.00     0.116 A 
HETATM   18  C   UNL     1      44.605 -22.307   3.283  1.00  0.00     0.043 A 
HETATM   19  F   UNL     1      44.096 -22.274   0.983  1.00  0.00    -0.206 F 
HETATM   20  C   UNL     1      44.697 -21.632   4.502  1.00  0.00     0.012 A 
ENDBRANCH  13  14
ENDBRANCH   1  13
BRANCH   6  21
HETATM   21  C   UNL     1      40.056 -15.176   2.926  1.00  0.00     0.280 C 
BRANCH  21  22
HETATM   22  C   UNL     1      40.737 -14.635   1.710  1.00  0.00     0.009 A 
HETATM   23  S   UNL     1      41.225 -12.988   1.663  1.00  0.00    -0.084 SA
HETATM   24  C   UNL     1      41.815 -13.129   0.071  1.00  0.00     0.058 A 
HETATM   25  C   UNL     1      41.687 -14.414  -0.408  1.00  0.00     0.029 A 
HETATM   26  C   UNL     1      41.069 -15.286   0.538  1.00  0.00     0.018 A 
BRANCH  24  27
HETATM   27  C   UNL     1      42.362 -12.032  -0.657  1.00  0.00    -0.057 C 
BRANCH  27  28
HETATM   28  C   UNL     1      42.798 -11.086  -1.255  1.00  0.00    -0.075 C 
BRANCH  28  29
HETATM   29  C   UNL     1      43.326  -9.955  -2.017  1.00  0.00     0.258 C 
BRANCH  29  30
HETATM   30  O   UNL     1      44.366  -9.340  -1.272  1.00  0.00    -0.389 OA
HETATM   31  H   UNL     1      44.762  -8.666  -1.851  1.00  0.00     0.210 HD
ENDBRANCH  29  30
ENDBRANCH  28  29
ENDBRANCH  27  28
ENDBRANCH  24  27
ENDBRANCH  21  22
ENDBRANCH   6  21
TORSDOF 8
ENDMDL
MODEL 3
REMARK VINA RESULT:      -7.8      4.913      8.078
REMARK  8 active torsions:
REMARK  status: ('A' for Active; 'I' for Inactive)
REMARK    1  A    between atoms: C_2  and  C_3 
REMARK    2  A    between atoms: C_3  and  N_4 
REMARK    3  A    between atoms: N_9  and  C_11 
REMARK    4  A    between atoms: C_11  and  C_12 
REMARK    5  A    between atoms: C_14  and  C_15 
REMARK    6  A    between atoms: C_15  and  C_16 
REMARK    7  A    between atoms: C_16  and  C_17 
REMARK    8  A    between atoms: C_17  and  O_18 
ROOT
HETATM    1  N   UNL     1      43.445 -16.194   6.889  1.00  0.00    -0.066 N 
HETATM    2  H   UNL     1      44.082 -16.478   6.136  1.00  0.00     0.280 HD
HETATM    3  C   UNL     1      42.164 -15.619   6.321  1.00  0.00     0.246 C 
HETATM    4  C   UNL     1      42.453 -14.411   5.410  1.00  0.00     0.009 C 
HETATM    5  C   UNL     1      43.071 -14.847   4.073  1.00  0.00     0.246 C 
HETATM    6  N   UNL     1      42.707 -13.763   3.084  1.00  0.00    -0.066 N 
HETATM    7  H   UNL     1      43.494 -13.103   3.013  1.00  0.00     0.280 HD
HETATM    8  C   UNL     1      41.524 -13.004   3.647  1.00  0.00     0.236 C 
HETATM    9  C   UNL     1      41.144 -13.774   4.907  1.00  0.00     0.040 C 
HETATM   10  C   UNL     1      43.314 -13.377   6.170  1.00  0.00     0.014 C 
HETATM   11  C   UNL     1      44.537 -13.991   6.859  1.00  0.00     0.029 C 
HETATM   12  C   UNL     1      44.179 -15.184   7.740  1.00  0.00     0.235 C 
ENDROOT
BRANCH   1  13
HETATM   13  C   UNL     1      43.210 -17.498   7.658  1.00  0.00     0.273 C 
BRANCH  13  14
HETATM   14  C   UNL     1      43.658 -18.699   6.861  1.00  0.00    -0.032 A 
HETATM   15  C   UNL     1      43.462 -20.001   7.355  1.00  0.00     0.012 A 
HETATM   16  C   UNL     1      43.958 -21.103   6.656  1.00  0.00     0.043 A 
HETATM   17  C   UNL     1      44.635 -20.910   5.458  1.00  0.00     0.116 A 
HETATM   18  C   UNL     1      44.815 -19.635   4.939  1.00  0.00     0.043 A 
HETATM   19  F   UNL     1      45.125 -21.966   4.800  1.00  0.00    -0.206 F 
HETATM   20  C   UNL     1      44.326 -18.528   5.637  1.00  0.00     0.012 A 
ENDBRANCH  13  14
ENDBRANCH   1  13
BRANCH   6  21
HETATM   21  C   UNL     1      42.487 -14.260   1.661  1.00  0.00     0.280 C 
BRANCH  21  22
HETATM   22  C   UNL     1      42.204 -15.727   1.615  1.00  0.00     0.009 A 
HETATM   23  S   UNL     1      43.454 -16.853   1.962  1.00  0.00    -0.084 SA
HETATM   24  C   UNL     1      42.438 -18.189   1.666  1.00  0.00     0.058 A 
HETATM   25  C   UNL     1      41.157 -17.795   1.352  1.00  0.00     0.029 A 
HETATM   26  C   UNL     1      41.018 -16.374   1.326  1.00  0.00     0.018 A 
BRANCH  24  27
HETATM   27  C   UNL     1      42.888 -19.540   1.735  1.00  0.00    -0.057 C 
BRANCH  27  28
HETATM   28  C   UNL     1      43.239 -20.688   1.772  1.00  0.00    -0.075 C 
BRANCH  28  29
HETATM   29  C   UNL     1      43.674 -22.084   1.779  1.00  0.00     0.258 C 
BRANCH  29  30
HETATM   30  O   UNL     1      45.093 -22.127   1.756  1.00  0.00    -0.389 OA
HETATM   31  H   UNL     1      45.403 -21.227   1.955  1.00  0.00     0.210 HD
ENDBRANCH  29  30
ENDBRANCH  28  29
ENDBRANCH  27  28
ENDBRANCH  24  27
ENDBRANCH  21  22
ENDBRANCH   6  21
TORSDOF 8
ENDMDL
MODEL 4
REMARK VINA RESULT:      -7.8      1.566      2.096
REMARK  8 active torsions:
REMARK  status: ('A' for Active; 'I' for Inactive)
REMARK    1  A    between atoms: C_2  and  C_3 
REMARK    2  A    between atoms: C_3  and  N_4 
REMARK    3  A    between atoms: N_9  and  C_11 
REMARK    4  A    between atoms: C_11  and  C_12 
REMARK    5  A    between atoms: C_14  and  C_15 
REMARK    6  A    between atoms: C_15  and  C_16 
REMARK    7  A    between atoms: C_16  and  C_17 
REMARK    8  A    between atoms: C_17  and  O_18 
ROOT
HETATM    1  N   UNL     1      42.542 -15.766   4.289  1.00  0.00    -0.066 N 
HETATM    2  H   UNL     1      43.147 -15.989   5.089  1.00  0.00     0.280 HD
HETATM    3  C   UNL     1      42.439 -14.268   4.095  1.00  0.00     0.246 C 
HETATM    4  C   UNL     1      41.892 -13.580   5.360  1.00  0.00     0.009 C 
HETATM    5  C   UNL     1      42.938 -13.551   6.484  1.00  0.00     0.246 C 
HETATM    6  N   UNL     1      42.576 -12.362   7.345  1.00  0.00    -0.066 N 
HETATM    7  H   UNL     1      42.010 -12.690   8.141  1.00  0.00     0.280 HD
HETATM    8  C   UNL     1      41.707 -11.441   6.516  1.00  0.00     0.236 C 
HETATM    9  C   UNL     1      41.703 -12.070   5.128  1.00  0.00     0.040 C 
HETATM   10  C   UNL     1      40.562 -14.244   5.783  1.00  0.00     0.014 C 
HETATM   11  C   UNL     1      40.637 -15.773   5.844  1.00  0.00     0.029 C 
HETATM   12  C   UNL     1      41.192 -16.386   4.562  1.00  0.00     0.235 C 
ENDROOT
BRANCH   1  13
HETATM   13  C   UNL     1      43.244 -16.461   3.118  1.00  0.00     0.273 C 
BRANCH  13  14
HETATM   14  C   UNL     1      43.735 -17.835   3.503  1.00  0.00    -0.032 A 
HETATM   15  C   UNL     1      44.162 -18.102   4.817  1.00  0.00     0.012 A 
HETATM   16  C   UNL     1      44.700 -19.349   5.144  1.00  0.00     0.043 A 
HETATM   17  C   UNL     1      44.798 -20.333   4.168  1.00  0.00     0.116 A 
HETATM   18  C   UNL     1      44.357 -20.099   2.873  1.00  0.00     0.043 A 
HETATM   19  F   UNL     1      45.329 -21.520   4.480  1.00  0.00    -0.206 F 
HETATM   20  C   UNL     1      43.824 -18.852   2.537  1.00  0.00     0.012 A 
ENDBRANCH  13  14
ENDBRANCH   1  13
BRANCH   6  21
HETATM   21  C   UNL     1      43.770 -11.661   7.981  1.00  0.00     0.280 C 
BRANCH  21  22
HETATM   22  C   UNL     1      43.733 -11.728   9.473  1.00  0.00     0.009 A 
HETATM   23  S   UNL     1      42.676 -10.697  10.352  1.00  0.00    -0.084 SA
HETATM   24  C   UNL     1      43.222 -11.290  11.853  1.00  0.00     0.058 A 
HETATM   25  C   UNL     1      44.160 -12.286  11.697  1.00  0.00     0.029 A 
HETATM   26  C   UNL     1      44.454 -12.544  10.324  1.00  0.00     0.018 A 
BRANCH  24  27
HETATM   27  C   UNL     1      42.754 -10.792  13.105  1.00  0.00    -0.057 C 
BRANCH  27  28
HETATM   28  C   UNL     1      42.351 -10.341  14.142  1.00  0.00    -0.075 C 
BRANCH  28  29
HETATM   29  C   UNL     1      41.836  -9.769  15.385  1.00  0.00     0.258 C 
BRANCH  29  30
HETATM   30  O   UNL     1      42.709  -8.738  15.819  1.00  0.00    -0.389 OA
HETATM   31  H   UNL     1      42.188  -7.917  15.828  1.00  0.00     0.210 HD
ENDBRANCH  29  30
ENDBRANCH  28  29
ENDBRANCH  27  28
ENDBRANCH  24  27
ENDBRANCH  21  22
ENDBRANCH   6  21
TORSDOF 8
ENDMDL
MODEL 5
REMARK VINA RESULT:      -7.8      5.074      7.511
REMARK  8 active torsions:
REMARK  status: ('A' for Active; 'I' for Inactive)
REMARK    1  A    between atoms: C_2  and  C_3 
REMARK    2  A    between atoms: C_3  and  N_4 
REMARK    3  A    between atoms: N_9  and  C_11 
REMARK    4  A    between atoms: C_11  and  C_12 
REMARK    5  A    between atoms: C_14  and  C_15 
REMARK    6  A    between atoms: C_15  and  C_16 
REMARK    7  A    between atoms: C_16  and  C_17 
REMARK    8  A    between atoms: C_17  and  O_18 
ROOT
HETATM    1  N   UNL     1      44.062 -17.952   5.778  1.00  0.00    -0.066 N 
HETATM    2  H   UNL     1      44.637 -17.744   4.953  1.00  0.00     0.280 HD
HETATM    3  C   UNL     1      42.625 -17.531   5.551  1.00  0.00     0.246 C 
HETATM    4  C   UNL     1      42.530 -16.029   5.223  1.00  0.00     0.009 C 
HETATM    5  C   UNL     1      43.039 -15.727   3.806  1.00  0.00     0.246 C 
HETATM    6  N   UNL     1      42.327 -14.463   3.380  1.00  0.00    -0.066 N 
HETATM    7  H   UNL     1      42.942 -13.658   3.565  1.00  0.00     0.280 HD
HETATM    8  C   UNL     1      41.099 -14.310   4.252  1.00  0.00     0.236 C 
HETATM    9  C   UNL     1      41.062 -15.588   5.083  1.00  0.00     0.040 C 
HETATM   10  C   UNL     1      43.252 -15.209   6.317  1.00  0.00     0.014 C 
HETATM   11  C   UNL     1      44.657 -15.727   6.639  1.00  0.00     0.029 C 
HETATM   12  C   UNL     1      44.678 -17.220   6.948  1.00  0.00     0.235 C 
ENDROOT
BRANCH   1  13
HETATM   13  C   UNL     1      44.211 -19.469   5.933  1.00  0.00     0.273 C 
BRANCH  13  14
HETATM   14  C   UNL     1      44.284 -20.158   4.593  1.00  0.00    -0.032 A 
HETATM   15  C   UNL     1      43.932 -19.475   3.415  1.00  0.00     0.012 A 
HETATM   16  C   UNL     1      43.916 -20.144   2.189  1.00  0.00     0.043 A 
HETATM   17  C   UNL     1      44.264 -21.489   2.135  1.00  0.00     0.116 A 
HETATM   18  C   UNL     1      44.641 -22.174   3.282  1.00  0.00     0.043 A 
HETATM   19  F   UNL     1      44.230 -22.131   0.963  1.00  0.00    -0.206 F 
HETATM   20  C   UNL     1      44.653 -21.512   4.511  1.00  0.00     0.012 A 
ENDBRANCH  13  14
ENDBRANCH   1  13
BRANCH   6  21
HETATM   21  C   UNL     1      42.025 -14.386   1.889  1.00  0.00     0.280 C 
BRANCH  21  22
HETATM   22  C   UNL     1      40.563 -14.233   1.618  1.00  0.00     0.009 A 
HETATM   23  S   UNL     1      39.922 -12.689   1.221  1.00  0.00    -0.084 SA
HETATM   24  C   UNL     1      38.330 -13.290   1.126  1.00  0.00     0.058 A 
HETATM   25  C   UNL     1      38.284 -14.649   1.348  1.00  0.00     0.029 A 
HETATM   26  C   UNL     1      39.573 -15.196   1.627  1.00  0.00     0.018 A 
BRANCH  24  27
HETATM   27  C   UNL     1      37.200 -12.464   0.857  1.00  0.00    -0.057 C 
BRANCH  27  28
HETATM   28  C   UNL     1      36.271 -11.739   0.626  1.00  0.00    -0.075 C 
BRANCH  28  29
HETATM   29  C   UNL     1      35.119 -10.874   0.375  1.00  0.00     0.258 C 
BRANCH  29  30
HETATM   30  O   UNL     1      34.201 -11.000   1.449  1.00  0.00    -0.389 OA
HETATM   31  H   UNL     1      33.862 -10.107   1.633  1.00  0.00     0.210 HD
ENDBRANCH  29  30
ENDBRANCH  28  29
ENDBRANCH  27  28
ENDBRANCH  24  27
ENDBRANCH  21  22
ENDBRANCH   6  21
TORSDOF 8
ENDMDL
MODEL 6
REMARK VINA RESULT:      -7.7      6.093      8.681
REMARK  8 active torsions:
REMARK  status: ('A' for Active; 'I' for Inactive)
REMARK    1  A    between atoms: C_2  and  C_3 
REMARK    2  A    between atoms: C_3  and  N_4 
REMARK    3  A    between atoms: N_9  and  C_11 
REMARK    4  A    between atoms: C_11  and  C_12 
REMARK    5  A    between atoms: C_14  and  C_15 
REMARK    6  A    between atoms: C_15  and  C_16 
REMARK    7  A    between atoms: C_16  and  C_17 
REMARK    8  A    between atoms: C_17  and  O_18 
ROOT
HETATM    1  N   UNL     1      43.976 -18.391   5.904  1.00  0.00    -0.066 N 
HETATM    2  H   UNL     1      44.657 -17.641   5.735  1.00  0.00     0.280 HD
HETATM    3  C   UNL     1      42.870 -18.354   4.871  1.00  0.00     0.246 C 
HETATM    4  C   UNL     1      42.147 -16.994   4.879  1.00  0.00     0.009 C 
HETATM    5  C   UNL     1      43.016 -15.889   4.260  1.00  0.00     0.246 C 
HETATM    6  N   UNL     1      42.046 -14.854   3.738  1.00  0.00    -0.066 N 
HETATM    7  H   UNL     1      41.943 -14.111   4.444  1.00  0.00     0.280 HD
HETATM    8  C   UNL     1      40.698 -15.524   3.579  1.00  0.00     0.236 C 
HETATM    9  C   UNL     1      40.965 -16.992   3.891  1.00  0.00     0.040 C 
HETATM   10  C   UNL     1      41.671 -16.664   6.312  1.00  0.00     0.014 C 
HETATM   11  C   UNL     1      42.762 -16.837   7.372  1.00  0.00     0.029 C 
HETATM   12  C   UNL     1      43.438 -18.202   7.303  1.00  0.00     0.235 C 
ENDROOT
BRANCH   1  13
HETATM   13  C   UNL     1      44.827 -19.662   5.805  1.00  0.00     0.273 C 
BRANCH  13  14
HETATM   14  C   UNL     1      44.650 -20.345   4.472  1.00  0.00    -0.032 A 
HETATM   15  C   UNL     1      44.385 -19.596   3.311  1.00  0.00     0.012 A 
HETATM   16  C   UNL     1      44.132 -20.240   2.098  1.00  0.00     0.043 A 
HETATM   17  C   UNL     1      44.159 -21.628   2.037  1.00  0.00     0.116 A 
HETATM   18  C   UNL     1      44.446 -22.385   3.165  1.00  0.00     0.043 A 
HETATM   19  F   UNL     1      43.900 -22.242   0.878  1.00  0.00    -0.206 F 
HETATM   20  C   UNL     1      44.693 -21.747   4.383  1.00  0.00     0.012 A 
ENDBRANCH  13  14
ENDBRANCH   1  13
BRANCH   6  21
HETATM   21  C   UNL     1      42.516 -14.132   2.481  1.00  0.00     0.280 C 
BRANCH  21  22
HETATM   22  C   UNL     1      42.066 -14.822   1.234  1.00  0.00     0.009 A 
HETATM   23  S   UNL     1      41.052 -13.999   0.118  1.00  0.00    -0.084 SA
HETATM   24  C   UNL     1      40.950 -15.356  -0.907  1.00  0.00     0.058 A 
HETATM   25  C   UNL     1      41.707 -16.407  -0.438  1.00  0.00     0.029 A 
HETATM   26  C   UNL     1      42.356 -16.099   0.795  1.00  0.00     0.018 A 
BRANCH  24  27
HETATM   27  C   UNL     1      40.163 -15.378  -2.096  1.00  0.00    -0.057 C 
BRANCH  27  28
HETATM   28  C   UNL     1      39.474 -15.414  -3.079  1.00  0.00    -0.075 C 
BRANCH  28  29
HETATM   29  C   UNL     1      38.605 -15.470  -4.253  1.00  0.00     0.258 C 
BRANCH  29  30
HETATM   30  O   UNL     1      39.010 -16.551  -5.079  1.00  0.00    -0.389 OA
HETATM   31  H   UNL     1      38.454 -17.311  -4.836  1.00  0.00     0.210 HD
ENDBRANCH  29  30
ENDBRANCH  28  29
ENDBRANCH  27  28
ENDBRANCH  24  27
ENDBRANCH  21  22
ENDBRANCH   6  21
TORSDOF 8
ENDMDL
MODEL 7
REMARK VINA RESULT:      -7.7      1.970      2.512
REMARK  8 active torsions:
REMARK  status: ('A' for Active; 'I' for Inactive)
REMARK    1  A    between atoms: C_2  and  C_3 
REMARK    2  A    between atoms: C_3  and  N_4 
REMARK    3  A    between atoms: N_9  and  C_11 
REMARK    4  A    between atoms: C_11  and  C_12 
REMARK    5  A    between atoms: C_14  and  C_15 
REMARK    6  A    between atoms: C_15  and  C_16 
REMARK    7  A    between atoms: C_16  and  C_17 
REMARK    8  A    between atoms: C_17  and  O_18 
ROOT
HETATM    1  N   UNL     1      42.661 -16.722   3.998  1.00  0.00    -0.066 N 
HETATM    2  H   UNL     1      43.444 -16.286   4.498  1.00  0.00     0.280 HD
HETATM    3  C   UNL     1      41.574 -15.707   3.712  1.00  0.00     0.246 C 
HETATM    4  C   UNL     1      41.057 -15.065   5.013  1.00  0.00     0.009 C 
HETATM    5  C   UNL     1      42.080 -14.082   5.603  1.00  0.00     0.246 C 
HETATM    6  N   UNL     1      41.272 -13.093   6.411  1.00  0.00    -0.066 N 
HETATM    7  H   UNL     1      41.277 -13.390   7.398  1.00  0.00     0.280 HD
HETATM    8  C   UNL     1      39.841 -13.157   5.922  1.00  0.00     0.236 C 
HETATM    9  C   UNL     1      39.891 -14.102   4.727  1.00  0.00     0.040 C 
HETATM   10  C   UNL     1      40.631 -16.170   6.008  1.00  0.00     0.014 C 
HETATM   11  C   UNL     1      41.684 -17.268   6.187  1.00  0.00     0.029 C 
HETATM   12  C   UNL     1      42.153 -17.854   4.860  1.00  0.00     0.235 C 
ENDROOT
BRANCH   1  13
HETATM   13  C   UNL     1      43.318 -17.252   2.719  1.00  0.00     0.273 C 
BRANCH  13  14
HETATM   14  C   UNL     1      43.660 -18.717   2.837  1.00  0.00    -0.032 A 
HETATM   15  C   UNL     1      44.523 -19.172   3.850  1.00  0.00     0.012 A 
HETATM   16  C   UNL     1      44.906 -20.514   3.900  1.00  0.00     0.043 A 
HETATM   17  C   UNL     1      44.418 -21.404   2.951  1.00  0.00     0.116 A 
HETATM   18  C   UNL     1      43.544 -20.981   1.960  1.00  0.00     0.043 A 
HETATM   19  F   UNL     1      44.802 -22.685   2.990  1.00  0.00    -0.206 F 
HETATM   20  C   UNL     1      43.161 -19.639   1.901  1.00  0.00     0.012 A 
ENDBRANCH  13  14
ENDBRANCH   1  13
BRANCH   6  21
HETATM   21  C   UNL     1      41.845 -11.681   6.429  1.00  0.00     0.280 C 
BRANCH  21  22
HETATM   22  C   UNL     1      41.661 -11.016   7.754  1.00  0.00     0.009 A 
HETATM   23  S   UNL     1      42.949 -10.996   8.890  1.00  0.00    -0.084 SA
HETATM   24  C   UNL     1      42.011 -10.178  10.055  1.00  0.00     0.058 A 
HETATM   25  C   UNL     1      40.753  -9.883   9.580  1.00  0.00     0.029 A 
HETATM   26  C   UNL     1      40.549 -10.362   8.250  1.00  0.00     0.018 A 
BRANCH  24  27
HETATM   27  C   UNL     1      42.493  -9.859  11.358  1.00  0.00    -0.057 C 
BRANCH  27  28
HETATM   28  C   UNL     1      42.930  -9.605  12.447  1.00  0.00    -0.075 C 
BRANCH  28  29
HETATM   29  C   UNL     1      43.432  -9.313  13.790  1.00  0.00     0.258 C 
BRANCH  29  30
HETATM   30  O   UNL     1      42.996  -8.019  14.177  1.00  0.00    -0.389 OA
HETATM   31  H   UNL     1      43.741  -7.601  14.642  1.00  0.00     0.210 HD
ENDBRANCH  29  30
ENDBRANCH  28  29
ENDBRANCH  27  28
ENDBRANCH  24  27
ENDBRANCH  21  22
ENDBRANCH   6  21
TORSDOF 8
ENDMDL
MODEL 8
REMARK VINA RESULT:      -7.6      6.730      9.601
REMARK  8 active torsions:
REMARK  status: ('A' for Active; 'I' for Inactive)
REMARK    1  A    between atoms: C_2  and  C_3 
REMARK    2  A    between atoms: C_3  and  N_4 
REMARK    3  A    between atoms: N_9  and  C_11 
REMARK    4  A    between atoms: C_11  and  C_12 
REMARK    5  A    between atoms: C_14  and  C_15 
REMARK    6  A    between atoms: C_15  and  C_16 
REMARK    7  A    between atoms: C_16  and  C_17 
REMARK    8  A    between atoms: C_17  and  O_18 
ROOT
HETATM    1  N   UNL     1      42.958 -16.549   4.236  1.00  0.00    -0.066 N 
HETATM    2  H   UNL     1      43.624 -16.609   3.457  1.00  0.00     0.280 HD
HETATM    3  C   UNL     1      41.534 -16.504   3.722  1.00  0.00     0.246 C 
HETATM    4  C   UNL     1      41.323 -15.309   2.773  1.00  0.00     0.009 C 
HETATM    5  C   UNL     1      42.003 -15.540   1.415  1.00  0.00     0.246 C 
HETATM    6  N   UNL     1      41.227 -14.703   0.425  1.00  0.00    -0.066 N 
HETATM    7  H   UNL     1      41.714 -13.803   0.299  1.00  0.00     0.280 HD
HETATM    8  C   UNL     1      39.872 -14.408   1.032  1.00  0.00     0.236 C 
HETATM    9  C   UNL     1      39.853 -15.215   2.326  1.00  0.00     0.040 C 
HETATM   10  C   UNL     1      41.775 -14.004   3.466  1.00  0.00     0.014 C 
HETATM   11  C   UNL     1      43.164 -14.102   4.104  1.00  0.00     0.029 C 
HETATM   12  C   UNL     1      43.304 -15.309   5.026  1.00  0.00     0.235 C 
ENDROOT
BRANCH   1  13
HETATM   13  C   UNL     1      43.250 -17.819   5.042  1.00  0.00     0.273 C 
BRANCH  13  14
HETATM   14  C   UNL     1      43.714 -18.945   4.153  1.00  0.00    -0.032 A 
HETATM   15  C   UNL     1      43.392 -18.957   2.783  1.00  0.00     0.012 A 
HETATM   16  C   UNL     1      43.747 -20.046   1.985  1.00  0.00     0.043 A 
HETATM   17  C   UNL     1      44.437 -21.115   2.546  1.00  0.00     0.116 A 
HETATM   18  C   UNL     1      44.788 -21.110   3.888  1.00  0.00     0.043 A 
HETATM   19  F   UNL     1      44.760 -22.164   1.782  1.00  0.00    -0.206 F 
HETATM   20  C   UNL     1      44.430 -20.026   4.694  1.00  0.00     0.012 A 
ENDBRANCH  13  14
ENDBRANCH   1  13
BRANCH   6  21
HETATM   21  C   UNL     1      41.148 -15.300  -0.975  1.00  0.00     0.280 C 
BRANCH  21  22
HETATM   22  C   UNL     1      40.942 -14.253  -2.022  1.00  0.00     0.009 A 
HETATM   23  S   UNL     1      42.239 -13.217  -2.465  1.00  0.00    -0.084 SA
HETATM   24  C   UNL     1      41.272 -12.352  -3.569  1.00  0.00     0.058 A 
HETATM   25  C   UNL     1      39.995 -12.863  -3.638  1.00  0.00     0.029 A 
HETATM   26  C   UNL     1      39.803 -13.963  -2.749  1.00  0.00     0.018 A 
BRANCH  24  27
HETATM   27  C   UNL     1      41.749 -11.233  -4.313  1.00  0.00    -0.057 C 
BRANCH  27  28
HETATM   28  C   UNL     1      42.151 -10.271  -4.909  1.00  0.00    -0.075 C 
BRANCH  28  29
HETATM   29  C   UNL     1      42.631  -9.077  -5.603  1.00  0.00     0.258 C 
BRANCH  29  30
HETATM   30  O   UNL     1      42.924  -9.410  -6.951  1.00  0.00    -0.389 OA
HETATM   31  H   UNL     1      42.865 -10.379  -7.018  1.00  0.00     0.210 HD
ENDBRANCH  29  30
ENDBRANCH  28  29
ENDBRANCH  27  28
ENDBRANCH  24  27
ENDBRANCH  21  22
ENDBRANCH   6  21
TORSDOF 8
ENDMDL
MODEL 9
REMARK VINA RESULT:      -7.4      5.079      8.255
REMARK  8 active torsions:
REMARK  status: ('A' for Active; 'I' for Inactive)
REMARK    1  A    between atoms: C_2  and  C_3 
REMARK    2  A    between atoms: C_3  and  N_4 
REMARK    3  A    between atoms: N_9  and  C_11 
REMARK    4  A    between atoms: C_11  and  C_12 
REMARK    5  A    between atoms: C_14  and  C_15 
REMARK    6  A    between atoms: C_15  and  C_16 
REMARK    7  A    between atoms: C_16  and  C_17 
REMARK    8  A    between atoms: C_17  and  O_18 
ROOT
HETATM    1  N   UNL     1      43.176 -14.123   5.744  1.00  0.00    -0.066 N 
HETATM    2  H   UNL     1      43.844 -14.079   4.966  1.00  0.00     0.280 HD
HETATM    3  C   UNL     1      42.055 -15.094   5.434  1.00  0.00     0.246 C 
HETATM    4  C   UNL     1      41.315 -14.694   4.144  1.00  0.00     0.009 C 
HETATM    5  C   UNL     1      42.161 -14.982   2.895  1.00  0.00     0.246 C 
HETATM    6  N   UNL     1      41.171 -15.181   1.770  1.00  0.00    -0.066 N 
HETATM    7  H   UNL     1      41.067 -14.292   1.260  1.00  0.00     0.280 HD
HETATM    8  C   UNL     1      39.829 -15.511   2.391  1.00  0.00     0.236 C 
HETATM    9  C   UNL     1      40.120 -15.629   3.882  1.00  0.00     0.040 C 
HETATM   10  C   UNL     1      40.853 -13.222   4.241  1.00  0.00     0.014 C 
HETATM   11  C   UNL     1      41.961 -12.264   4.689  1.00  0.00     0.029 C 
HETATM   12  C   UNL     1      42.654 -12.723   5.967  1.00  0.00     0.235 C 
ENDROOT
BRANCH   1  13
HETATM   13  C   UNL     1      44.042 -14.586   6.920  1.00  0.00     0.273 C 
BRANCH  13  14
HETATM   14  C   UNL     1      44.109 -16.091   7.001  1.00  0.00    -0.032 A 
HETATM   15  C   UNL     1      44.958 -16.818   6.146  1.00  0.00     0.012 A 
HETATM   16  C   UNL     1      44.949 -18.214   6.164  1.00  0.00     0.043 A 
HETATM   17  C   UNL     1      44.108 -18.886   7.043  1.00  0.00     0.116 A 
HETATM   18  C   UNL     1      43.283 -18.187   7.914  1.00  0.00     0.043 A 
HETATM   19  F   UNL     1      44.089 -20.223   7.045  1.00  0.00    -0.206 F 
HETATM   20  C   UNL     1      43.283 -16.790   7.897  1.00  0.00     0.012 A 
ENDBRANCH  13  14
ENDBRANCH   1  13
BRANCH   6  21
HETATM   21  C   UNL     1      41.614 -16.186   0.714  1.00  0.00     0.280 C 
BRANCH  21  22
HETATM   22  C   UNL     1      42.644 -17.134   1.238  1.00  0.00     0.009 A 
HETATM   23  S   UNL     1      42.159 -18.528   2.116  1.00  0.00    -0.084 SA
HETATM   24  C   UNL     1      43.770 -19.012   2.387  1.00  0.00     0.058 A 
HETATM   25  C   UNL     1      44.667 -18.158   1.786  1.00  0.00     0.029 A 
HETATM   26  C   UNL     1      44.019 -17.075   1.118  1.00  0.00     0.018 A 
BRANCH  24  27
HETATM   27  C   UNL     1      44.119 -20.162   3.154  1.00  0.00    -0.057 C 
BRANCH  27  28
HETATM   28  C   UNL     1      44.439 -21.111   3.817  1.00  0.00    -0.075 C 
BRANCH  28  29
HETATM   29  C   UNL     1      44.801 -22.288   4.606  1.00  0.00     0.258 C 
BRANCH  29  30
HETATM   30  O   UNL     1      44.894 -23.413   3.746  1.00  0.00    -0.389 OA
HETATM   31  H   UNL     1      43.983 -23.661   3.512  1.00  0.00     0.210 HD
ENDBRANCH  29  30
ENDBRANCH  28  29
ENDBRANCH  27  28
ENDBRANCH  24  27
ENDBRANCH  21  22
ENDBRANCH   6  21
TORSDOF 8
ENDMDL
MODEL 10
REMARK VINA RESULT:      -7.4      6.296      9.259
REMARK  8 active torsions:
REMARK  status: ('A' for Active; 'I' for Inactive)
REMARK    1  A    between atoms: C_2  and  C_3 
REMARK    2  A    between atoms: C_3  and  N_4 
REMARK    3  A    between atoms: N_9  and  C_11 
REMARK    4  A    between atoms: C_11  and  C_12 
REMARK    5  A    between atoms: C_14  and  C_15 
REMARK    6  A    between atoms: C_15  and  C_16 
REMARK    7  A    between atoms: C_16  and  C_17 
REMARK    8  A    between atoms: C_17  and  O_18 
ROOT
HETATM    1  N   UNL     1      41.528 -15.042   2.939  1.00  0.00    -0.066 N 
HETATM    2  H   UNL     1      42.314 -14.946   2.285  1.00  0.00     0.280 HD
HETATM    3  C   UNL     1      40.454 -14.017   2.639  1.00  0.00     0.246 C 
HETATM    4  C   UNL     1      41.015 -12.585   2.716  1.00  0.00     0.009 C 
HETATM    5  C   UNL     1      41.916 -12.266   1.513  1.00  0.00     0.246 C 
HETATM    6  N   UNL     1      41.856 -10.765   1.348  1.00  0.00    -0.066 N 
HETATM    7  H   UNL     1      42.669 -10.347   1.823  1.00  0.00     0.280 HD
HETATM    8  C   UNL     1      40.611 -10.272   2.054  1.00  0.00     0.236 C 
HETATM    9  C   UNL     1      39.900 -11.545   2.501  1.00  0.00     0.040 C 
HETATM   10  C   UNL     1      41.716 -12.370   4.076  1.00  0.00     0.014 C 
HETATM   11  C   UNL     1      42.703 -13.484   4.436  1.00  0.00     0.029 C 
HETATM   12  C   UNL     1      42.083 -14.874   4.334  1.00  0.00     0.235 C 
ENDROOT
BRANCH   1  13
HETATM   13  C   UNL     1      41.050 -16.478   2.702  1.00  0.00     0.273 C 
BRANCH  13  14
HETATM   14  C   UNL     1      42.199 -17.455   2.725  1.00  0.00    -0.032 A 
HETATM   15  C   UNL     1      42.951 -17.706   1.563  1.00  0.00     0.012 A 
HETATM   16  C   UNL     1      43.955 -18.677   1.568  1.00  0.00     0.043 A 
HETATM   17  C   UNL     1      44.220 -19.387   2.733  1.00  0.00     0.116 A 
HETATM   18  C   UNL     1      43.508 -19.135   3.898  1.00  0.00     0.043 A 
HETATM   19  F   UNL     1      45.169 -20.328   2.729  1.00  0.00    -0.206 F 
HETATM   20  C   UNL     1      42.498 -18.170   3.898  1.00  0.00     0.012 A 
ENDBRANCH  13  14
ENDBRANCH   1  13
BRANCH   6  21
HETATM   21  C   UNL     1      41.964 -10.288  -0.095  1.00  0.00     0.280 C 
BRANCH  21  22
HETATM   22  C   UNL     1      41.896 -11.421  -1.068  1.00  0.00     0.009 A 
HETATM   23  S   UNL     1      40.382 -12.143  -1.440  1.00  0.00    -0.084 SA
HETATM   24  C   UNL     1      41.097 -13.286  -2.482  1.00  0.00     0.058 A 
HETATM   25  C   UNL     1      42.458 -13.102  -2.585  1.00  0.00     0.029 A 
HETATM   26  C   UNL     1      42.921 -12.023  -1.773  1.00  0.00     0.018 A 
BRANCH  24  27
HETATM   27  C   UNL     1      40.354 -14.305  -3.147  1.00  0.00    -0.057 C 
BRANCH  27  28
HETATM   28  C   UNL     1      39.702 -15.161  -3.682  1.00  0.00    -0.075 C 
BRANCH  28  29
HETATM   29  C   UNL     1      38.877 -16.184  -4.322  1.00  0.00     0.258 C 
BRANCH  29  30
HETATM   30  O   UNL     1      38.972 -17.389  -3.579  1.00  0.00    -0.389 OA
HETATM   31  H   UNL     1      38.377 -18.029  -4.007  1.00  0.00     0.210 HD
ENDBRANCH  29  30
ENDBRANCH  28  29
ENDBRANCH  27  28
ENDBRANCH  24  27
ENDBRANCH  21  22
ENDBRANCH   6  21
TORSDOF 8
ENDMDL
