MODEL 1
REMARK VINA RESULT:      -8.3      0.000      0.000
REMARK  8 active torsions:
REMARK  status: ('A' for Active; 'I' for Inactive)
REMARK    1  A    between atoms: C_2  and  C_3 
REMARK    2  A    between atoms: C_3  and  N_4 
REMARK    3  A    between atoms: C_5  and  S_6 
REMARK    4  A    between atoms: S_6  and  C_7 
REMARK    5  A    between atoms: C_7  and  C_8 
REMARK       I    between atoms: C_8  and  N_9 
REMARK    6  A    between atoms: N_9  and  C_10 
REMARK    7  A    between atoms: C_23  and  C_24 
REMARK    8  A    between atoms: C_25  and  O_26 
ROOT
HETATM    1  S   UNL     1      41.283 -14.166   5.505  1.00  0.00    -0.081 SA
ENDROOT
BRANCH   1   2
HETATM    2  C   UNL     1      42.475 -15.400   5.701  1.00  0.00     0.192 A 
HETATM    3  N   UNL     1      42.449 -16.636   5.112  1.00  0.00    -0.304 N 
HETATM    4  C   UNL     1      43.520 -17.319   5.657  1.00  0.00     0.167 A 
HETATM    5  N   UNL     1      44.162 -16.501   6.477  1.00  0.00    -0.128 NA
HETATM    6  N   UNL     1      43.519 -15.296   6.485  1.00  0.00    -0.122 NA
BRANCH   3   7
HETATM    7  C   UNL     1      41.453 -17.142   4.184  1.00  0.00     0.159 C 
BRANCH   7   8
HETATM    8  C   UNL     1      41.819 -16.881   2.752  1.00  0.00    -0.017 C 
HETATM    9  C   UNL     1      41.849 -17.821   1.799  1.00  0.00     0.008 C 
ENDBRANCH   7   8
ENDBRANCH   3   7
BRANCH   4  10
HETATM   10  C   UNL     1      43.824 -18.744   5.545  1.00  0.00     0.046 A 
HETATM   11  C   UNL     1      43.824 -19.550   6.698  1.00  0.00     0.079 A 
HETATM   12  C   UNL     1      44.060 -20.921   6.627  1.00  0.00     0.039 A 
HETATM   13  C   UNL     1      44.336 -21.509   5.395  1.00  0.00     0.022 A 
HETATM   14  C   UNL     1      44.383 -20.716   4.250  1.00  0.00     0.012 A 
HETATM   15 BR   UNL     1      44.781 -21.510   2.581  1.00  0.00    -0.051 Br
HETATM   16  C   UNL     1      44.138 -19.341   4.318  1.00  0.00     0.037 A 
BRANCH  11  17
HETATM   17  O   UNL     1      43.591 -19.040   7.949  1.00  0.00    -0.360 OA
HETATM   18  H   UNL     1      43.392 -19.786   8.553  1.00  0.00     0.217 HD
ENDBRANCH  11  17
ENDBRANCH   4  10
ENDBRANCH   1   2
BRANCH   1  19
HETATM   19  C   UNL     1      42.279 -12.885   4.675  1.00  0.00     0.185 C 
BRANCH  19  20
HETATM   20  C   UNL     1      42.601 -13.217   3.223  1.00  0.00     0.231 C 
HETATM   21  N   UNL     1      41.604 -12.889   2.324  1.00  0.00    -0.326 N 
HETATM   22  H   UNL     1      40.812 -12.370   2.699  1.00  0.00     0.169 HD
HETATM   23  O   UNL     1      43.655 -13.785   2.942  1.00  0.00    -0.272 OA
BRANCH  21  24
HETATM   24  C   UNL     1      41.556 -13.161   0.943  1.00  0.00     0.037 A 
HETATM   25  C   UNL     1      40.877 -14.255   0.394  1.00  0.00     0.061 A 
HETATM   26  C   UNL     1      40.884 -14.369  -0.978  1.00  0.00     0.065 A 
HETATM   27  C   UNL     1      41.548 -13.463  -1.802  1.00  0.00     0.063 A 
HETATM   28  N   UNL     1      40.272 -15.316  -1.793  1.00  0.00    -0.306 N 
HETATM   29  N   UNL     1      41.354 -13.858  -3.120  1.00  0.00    -0.307 N 
HETATM   30  C   UNL     1      42.233 -12.387  -1.298  1.00  0.00     0.034 A 
HETATM   31  C   UNL     1      40.552 -15.008  -3.132  1.00  0.00     0.325 A 
HETATM   32  H   UNL     1      41.698 -13.407  -3.951  1.00  0.00     0.170 HD
HETATM   33  O   UNL     1      40.171 -15.617  -4.115  1.00  0.00    -0.247 OA
HETATM   34  C   UNL     1      42.221 -12.236   0.095  1.00  0.00     0.032 A 
HETATM   35  H   UNL     1      39.703 -16.093  -1.499  1.00  0.00     0.170 HD
ENDBRANCH  21  24
ENDBRANCH  19  20
ENDBRANCH   1  19
TORSDOF 8
ENDMDL
MODEL 2
REMARK VINA RESULT:      -8.2      5.698      9.406
REMARK  8 active torsions:
REMARK  status: ('A' for Active; 'I' for Inactive)
REMARK    1  A    between atoms: C_2  and  C_3 
REMARK    2  A    between atoms: C_3  and  N_4 
REMARK    3  A    between atoms: C_5  and  S_6 
REMARK    4  A    between atoms: S_6  and  C_7 
REMARK    5  A    between atoms: C_7  and  C_8 
REMARK       I    between atoms: C_8  and  N_9 
REMARK    6  A    between atoms: N_9  and  C_10 
REMARK    7  A    between atoms: C_23  and  C_24 
REMARK    8  A    between atoms: C_25  and  O_26 
ROOT
HETATM    1  S   UNL     1      41.604 -11.903   5.603  1.00  0.00    -0.081 SA
ENDROOT
BRANCH   1   2
HETATM    2  C   UNL     1      41.519 -13.615   5.805  1.00  0.00     0.192 A 
HETATM    3  N   UNL     1      42.590 -14.468   5.855  1.00  0.00    -0.304 N 
HETATM    4  C   UNL     1      42.041 -15.737   5.892  1.00  0.00     0.167 A 
HETATM    5  N   UNL     1      40.722 -15.619   5.916  1.00  0.00    -0.128 NA
HETATM    6  N   UNL     1      40.400 -14.293   5.884  1.00  0.00    -0.122 NA
BRANCH   3   7
HETATM    7  C   UNL     1      43.996 -14.110   5.792  1.00  0.00     0.159 C 
BRANCH   7   8
HETATM    8  C   UNL     1      44.668 -14.184   7.132  1.00  0.00    -0.017 C 
HETATM    9  C   UNL     1      44.705 -13.175   8.012  1.00  0.00     0.008 C 
ENDBRANCH   7   8
ENDBRANCH   3   7
BRANCH   4  10
HETATM   10  C   UNL     1      42.731 -17.015   5.731  1.00  0.00     0.046 A 
HETATM   11  C   UNL     1      43.169 -17.718   6.868  1.00  0.00     0.079 A 
HETATM   12  C   UNL     1      43.787 -18.962   6.760  1.00  0.00     0.039 A 
HETATM   13  C   UNL     1      44.011 -19.512   5.501  1.00  0.00     0.022 A 
HETATM   14  C   UNL     1      43.624 -18.806   4.362  1.00  0.00     0.012 A 
HETATM   15 BR   UNL     1      43.949 -19.542   2.652  1.00  0.00    -0.051 Br
HETATM   16  C   UNL     1      42.995 -17.562   4.470  1.00  0.00     0.037 A 
BRANCH  11  17
HETATM   17  O   UNL     1      43.011 -17.229   8.139  1.00  0.00    -0.360 OA
HETATM   18  H   UNL     1      42.052 -17.164   8.327  1.00  0.00     0.217 HD
ENDBRANCH  11  17
ENDBRANCH   4  10
ENDBRANCH   1   2
BRANCH   1  19
HETATM   19  C   UNL     1      40.615 -11.359   7.034  1.00  0.00     0.185 C 
BRANCH  19  20
HETATM   20  C   UNL     1      41.437 -10.644   8.098  1.00  0.00     0.231 C 
HETATM   21  N   UNL     1      41.291 -11.152   9.375  1.00  0.00    -0.326 N 
HETATM   22  H   UNL     1      40.743 -12.006   9.460  1.00  0.00     0.169 HD
HETATM   23  O   UNL     1      42.112  -9.661   7.796  1.00  0.00    -0.272 OA
BRANCH  21  24
HETATM   24  C   UNL     1      41.830 -10.650  10.576  1.00  0.00     0.037 A 
HETATM   25  C   UNL     1      41.047 -10.202  11.646  1.00  0.00     0.061 A 
HETATM   26  C   UNL     1      41.715  -9.777  12.772  1.00  0.00     0.065 A 
HETATM   27  C   UNL     1      43.105  -9.765  12.859  1.00  0.00     0.063 A 
HETATM   28  N   UNL     1      41.208  -9.319  13.985  1.00  0.00    -0.306 N 
HETATM   29  N   UNL     1      43.452  -9.291  14.119  1.00  0.00    -0.307 N 
HETATM   30  C   UNL     1      43.903 -10.187  11.827  1.00  0.00     0.034 A 
HETATM   31  C   UNL     1      42.279  -9.016  14.836  1.00  0.00     0.325 A 
HETATM   32  H   UNL     1      44.378  -9.171  14.494  1.00  0.00     0.170 HD
HETATM   33  O   UNL     1      42.208  -8.600  15.979  1.00  0.00    -0.247 OA
HETATM   34  C   UNL     1      43.247 -10.645  10.678  1.00  0.00     0.032 A 
HETATM   35  H   UNL     1      40.238  -9.227  14.241  1.00  0.00     0.170 HD
ENDBRANCH  21  24
ENDBRANCH  19  20
ENDBRANCH   1  19
TORSDOF 8
ENDMDL
MODEL 3
REMARK VINA RESULT:      -8.2      3.073      7.751
REMARK  8 active torsions:
REMARK  status: ('A' for Active; 'I' for Inactive)
REMARK    1  A    between atoms: C_2  and  C_3 
REMARK    2  A    between atoms: C_3  and  N_4 
REMARK    3  A    between atoms: C_5  and  S_6 
REMARK    4  A    between atoms: S_6  and  C_7 
REMARK    5  A    between atoms: C_7  and  C_8 
REMARK       I    between atoms: C_8  and  N_9 
REMARK    6  A    between atoms: N_9  and  C_10 
REMARK    7  A    between atoms: C_23  and  C_24 
REMARK    8  A    between atoms: C_25  and  O_26 
ROOT
HETATM    1  S   UNL     1      40.177 -13.842   4.819  1.00  0.00    -0.081 SA
ENDROOT
BRANCH   1   2
HETATM    2  C   UNL     1      41.165 -13.420   3.468  1.00  0.00     0.192 A 
HETATM    3  N   UNL     1      40.710 -13.003   2.245  1.00  0.00    -0.304 N 
HETATM    4  C   UNL     1      41.838 -12.911   1.451  1.00  0.00     0.167 A 
HETATM    5  N   UNL     1      42.895 -13.207   2.193  1.00  0.00    -0.128 NA
HETATM    6  N   UNL     1      42.473 -13.503   3.457  1.00  0.00    -0.122 NA
BRANCH   3   7
HETATM    7  C   UNL     1      39.327 -12.793   1.851  1.00  0.00     0.159 C 
BRANCH   7   8
HETATM    8  C   UNL     1      38.647 -14.067   1.445  1.00  0.00    -0.017 C 
HETATM    9  C   UNL     1      37.599 -14.130   0.614  1.00  0.00     0.008 C 
ENDBRANCH   7   8
ENDBRANCH   3   7
BRANCH   4  10
HETATM   10  C   UNL     1      41.900 -12.723   0.003  1.00  0.00     0.046 A 
HETATM   11  C   UNL     1      42.517 -11.574  -0.524  1.00  0.00     0.079 A 
HETATM   12  C   UNL     1      42.639 -11.381  -1.899  1.00  0.00     0.039 A 
HETATM   13  C   UNL     1      42.113 -12.325  -2.777  1.00  0.00     0.022 A 
HETATM   14  C   UNL     1      41.459 -13.447  -2.268  1.00  0.00     0.012 A 
HETATM   15 BR   UNL     1      40.724 -14.718  -3.459  1.00  0.00    -0.051 Br
HETATM   16  C   UNL     1      41.343 -13.647  -0.889  1.00  0.00     0.037 A 
BRANCH  11  17
HETATM   17  O   UNL     1      43.032 -10.586   0.273  1.00  0.00    -0.360 OA
HETATM   18  H   UNL     1      42.632 -10.669   1.164  1.00  0.00     0.217 HD
ENDBRANCH  11  17
ENDBRANCH   4  10
ENDBRANCH   1   2
BRANCH   1  19
HETATM   19  C   UNL     1      41.446 -14.482   5.960  1.00  0.00     0.185 C 
BRANCH  19  20
HETATM   20  C   UNL     1      41.722 -15.970   5.781  1.00  0.00     0.231 C 
HETATM   21  N   UNL     1      42.841 -16.260   5.024  1.00  0.00    -0.326 N 
HETATM   22  H   UNL     1      43.421 -15.467   4.756  1.00  0.00     0.169 HD
HETATM   23  O   UNL     1      40.943 -16.800   6.246  1.00  0.00    -0.272 OA
BRANCH  21  24
HETATM   24  C   UNL     1      43.298 -17.522   4.597  1.00  0.00     0.037 A 
HETATM   25  C   UNL     1      42.877 -18.135   3.412  1.00  0.00     0.061 A 
HETATM   26  C   UNL     1      43.442 -19.353   3.105  1.00  0.00     0.065 A 
HETATM   27  C   UNL     1      44.375 -19.975   3.931  1.00  0.00     0.063 A 
HETATM   28  N   UNL     1      43.248 -20.166   1.992  1.00  0.00    -0.306 N 
HETATM   29  N   UNL     1      44.746 -21.174   3.332  1.00  0.00    -0.307 N 
HETATM   30  C   UNL     1      44.801 -19.409   5.104  1.00  0.00     0.034 A 
HETATM   31  C   UNL     1      44.058 -21.303   2.117  1.00  0.00     0.325 A 
HETATM   32  H   UNL     1      45.408 -21.850   3.675  1.00  0.00     0.170 HD
HETATM   33  O   UNL     1      44.151 -22.223   1.325  1.00  0.00    -0.247 OA
HETATM   34  C   UNL     1      44.258 -18.160   5.428  1.00  0.00     0.032 A 
HETATM   35  H   UNL     1      42.646 -19.984   1.205  1.00  0.00     0.170 HD
ENDBRANCH  21  24
ENDBRANCH  19  20
ENDBRANCH   1  19
TORSDOF 8
ENDMDL
MODEL 4
REMARK VINA RESULT:      -8.2      3.330      7.930
REMARK  8 active torsions:
REMARK  status: ('A' for Active; 'I' for Inactive)
REMARK    1  A    between atoms: C_2  and  C_3 
REMARK    2  A    between atoms: C_3  and  N_4 
REMARK    3  A    between atoms: C_5  and  S_6 
REMARK    4  A    between atoms: S_6  and  C_7 
REMARK    5  A    between atoms: C_7  and  C_8 
REMARK       I    between atoms: C_8  and  N_9 
REMARK    6  A    between atoms: N_9  and  C_10 
REMARK    7  A    between atoms: C_23  and  C_24 
REMARK    8  A    between atoms: C_25  and  O_26 
ROOT
HETATM    1  S   UNL     1      40.093 -13.465   4.248  1.00  0.00    -0.081 SA
ENDROOT
BRANCH   1   2
HETATM    2  C   UNL     1      40.082 -13.129   2.556  1.00  0.00     0.192 A 
HETATM    3  N   UNL     1      39.642 -13.979   1.576  1.00  0.00    -0.304 N 
HETATM    4  C   UNL     1      39.944 -13.345   0.384  1.00  0.00     0.167 A 
HETATM    5  N   UNL     1      40.480 -12.166   0.664  1.00  0.00    -0.128 NA
HETATM    6  N   UNL     1      40.544 -12.026   2.021  1.00  0.00    -0.122 NA
BRANCH   3   7
HETATM    7  C   UNL     1      39.067 -15.301   1.757  1.00  0.00     0.159 C 
BRANCH   7   8
HETATM    8  C   UNL     1      40.112 -16.357   1.965  1.00  0.00    -0.017 C 
HETATM    9  C   UNL     1      40.893 -16.845   0.993  1.00  0.00     0.008 C 
ENDBRANCH   7   8
ENDBRANCH   3   7
BRANCH   4  10
HETATM   10  C   UNL     1      39.892 -13.904  -0.965  1.00  0.00     0.046 A 
HETATM   11  C   UNL     1      41.077 -14.345  -1.582  1.00  0.00     0.079 A 
HETATM   12  C   UNL     1      41.063 -14.928  -2.848  1.00  0.00     0.039 A 
HETATM   13  C   UNL     1      39.859 -15.051  -3.537  1.00  0.00     0.022 A 
HETATM   14  C   UNL     1      38.683 -14.577  -2.956  1.00  0.00     0.012 A 
HETATM   15 BR   UNL     1      37.052 -14.722  -3.900  1.00  0.00    -0.051 Br
HETATM   16  C   UNL     1      38.694 -14.000  -1.683  1.00  0.00     0.037 A 
BRANCH  11  17
HETATM   17  O   UNL     1      42.303 -14.232  -0.982  1.00  0.00    -0.360 OA
HETATM   18  H   UNL     1      42.876 -13.677  -1.552  1.00  0.00     0.217 HD
ENDBRANCH  11  17
ENDBRANCH   4  10
ENDBRANCH   1   2
BRANCH   1  19
HETATM   19  C   UNL     1      41.836 -13.951   4.470  1.00  0.00     0.185 C 
BRANCH  19  20
HETATM   20  C   UNL     1      42.017 -15.439   4.743  1.00  0.00     0.231 C 
HETATM   21  N   UNL     1      43.156 -15.990   4.187  1.00  0.00    -0.326 N 
HETATM   22  H   UNL     1      43.805 -15.339   3.750  1.00  0.00     0.169 HD
HETATM   23  O   UNL     1      41.155 -16.059   5.363  1.00  0.00    -0.272 OA
BRANCH  21  24
HETATM   24  C   UNL     1      43.547 -17.344   4.173  1.00  0.00     0.037 A 
HETATM   25  C   UNL     1      43.399 -18.178   3.060  1.00  0.00     0.061 A 
HETATM   26  C   UNL     1      43.866 -19.468   3.181  1.00  0.00     0.065 A 
HETATM   27  C   UNL     1      44.442 -19.949   4.354  1.00  0.00     0.063 A 
HETATM   28  N   UNL     1      43.887 -20.496   2.243  1.00  0.00    -0.306 N 
HETATM   29  N   UNL     1      44.808 -21.273   4.142  1.00  0.00    -0.307 N 
HETATM   30  C   UNL     1      44.593 -19.163   5.467  1.00  0.00     0.034 A 
HETATM   31  C   UNL     1      44.476 -21.627   2.826  1.00  0.00     0.325 A 
HETATM   32  H   UNL     1      45.256 -21.896   4.793  1.00  0.00     0.170 HD
HETATM   33  O   UNL     1      44.668 -22.705   2.294  1.00  0.00    -0.247 OA
HETATM   34  C   UNL     1      44.147 -17.839   5.362  1.00  0.00     0.032 A 
HETATM   35  H   UNL     1      43.558 -20.457   1.292  1.00  0.00     0.170 HD
ENDBRANCH  21  24
ENDBRANCH  19  20
ENDBRANCH   1  19
TORSDOF 8
ENDMDL
MODEL 5
REMARK VINA RESULT:      -8.1      1.726      2.724
REMARK  8 active torsions:
REMARK  status: ('A' for Active; 'I' for Inactive)
REMARK    1  A    between atoms: C_2  and  C_3 
REMARK    2  A    between atoms: C_3  and  N_4 
REMARK    3  A    between atoms: C_5  and  S_6 
REMARK    4  A    between atoms: S_6  and  C_7 
REMARK    5  A    between atoms: C_7  and  C_8 
REMARK       I    between atoms: C_8  and  N_9 
REMARK    6  A    between atoms: N_9  and  C_10 
REMARK    7  A    between atoms: C_23  and  C_24 
REMARK    8  A    between atoms: C_25  and  O_26 
ROOT
HETATM    1  S   UNL     1      41.178 -13.843   5.660  1.00  0.00    -0.081 SA
ENDROOT
BRANCH   1   2
HETATM    2  C   UNL     1      41.316 -15.339   4.809  1.00  0.00     0.192 A 
HETATM    3  N   UNL     1      42.287 -16.284   5.007  1.00  0.00    -0.304 N 
HETATM    4  C   UNL     1      42.075 -17.232   4.023  1.00  0.00     0.167 A 
HETATM    5  N   UNL     1      41.004 -16.880   3.329  1.00  0.00    -0.128 NA
HETATM    6  N   UNL     1      40.519 -15.708   3.836  1.00  0.00    -0.122 NA
BRANCH   3   7
HETATM    7  C   UNL     1      43.360 -16.244   5.985  1.00  0.00     0.159 C 
BRANCH   7   8
HETATM    8  C   UNL     1      42.943 -16.793   7.317  1.00  0.00    -0.017 C 
HETATM    9  C   UNL     1      43.630 -17.719   7.999  1.00  0.00     0.008 C 
ENDBRANCH   7   8
ENDBRANCH   3   7
BRANCH   4  10
HETATM   10  C   UNL     1      42.953 -18.336   3.641  1.00  0.00     0.046 A 
HETATM   11  C   UNL     1      43.398 -18.443   2.311  1.00  0.00     0.079 A 
HETATM   12  C   UNL     1      44.274 -19.452   1.916  1.00  0.00     0.039 A 
HETATM   13  C   UNL     1      44.697 -20.399   2.845  1.00  0.00     0.022 A 
HETATM   14  C   UNL     1      44.228 -20.332   4.157  1.00  0.00     0.012 A 
HETATM   15 BR   UNL     1      44.783 -21.631   5.414  1.00  0.00    -0.051 Br
HETATM   16  C   UNL     1      43.356 -19.315   4.557  1.00  0.00     0.037 A 
BRANCH  11  17
HETATM   17  O   UNL     1      43.004 -17.568   1.332  1.00  0.00    -0.360 OA
HETATM   18  H   UNL     1      43.603 -17.674   0.564  1.00  0.00     0.217 HD
ENDBRANCH  11  17
ENDBRANCH   4  10
ENDBRANCH   1   2
BRANCH   1  19
HETATM   19  C   UNL     1      42.590 -12.936   4.950  1.00  0.00     0.185 C 
BRANCH  19  20
HETATM   20  C   UNL     1      42.859 -13.285   3.491  1.00  0.00     0.231 C 
HETATM   21  N   UNL     1      41.855 -12.914   2.617  1.00  0.00    -0.326 N 
HETATM   22  H   UNL     1      41.097 -12.359   3.011  1.00  0.00     0.169 HD
HETATM   23  O   UNL     1      43.878 -13.901   3.184  1.00  0.00    -0.272 OA
BRANCH  21  24
HETATM   24  C   UNL     1      41.759 -13.186   1.238  1.00  0.00     0.037 A 
HETATM   25  C   UNL     1      41.263 -14.388   0.721  1.00  0.00     0.061 A 
HETATM   26  C   UNL     1      41.192 -14.495  -0.650  1.00  0.00     0.065 A 
HETATM   27  C   UNL     1      41.608 -13.476  -1.503  1.00  0.00     0.063 A 
HETATM   28  N   UNL     1      40.715 -15.540  -1.435  1.00  0.00    -0.306 N 
HETATM   29  N   UNL     1      41.397 -13.897  -2.811  1.00  0.00    -0.307 N 
HETATM   30  C   UNL     1      42.109 -12.290  -1.031  1.00  0.00     0.034 A 
HETATM   31  C   UNL     1      40.832 -15.180  -2.785  1.00  0.00     0.325 A 
HETATM   32  H   UNL     1      41.586 -13.386  -3.657  1.00  0.00     0.170 HD
HETATM   33  O   UNL     1      40.503 -15.848  -3.749  1.00  0.00    -0.247 OA
HETATM   34  C   UNL     1      42.170 -12.148   0.361  1.00  0.00     0.032 A 
HETATM   35  H   UNL     1      40.328 -16.413  -1.114  1.00  0.00     0.170 HD
ENDBRANCH  21  24
ENDBRANCH  19  20
ENDBRANCH   1  19
TORSDOF 8
ENDMDL
MODEL 6
REMARK VINA RESULT:      -8.1      3.347      7.582
REMARK  8 active torsions:
REMARK  status: ('A' for Active; 'I' for Inactive)
REMARK    1  A    between atoms: C_2  and  C_3 
REMARK    2  A    between atoms: C_3  and  N_4 
REMARK    3  A    between atoms: C_5  and  S_6 
REMARK    4  A    between atoms: S_6  and  C_7 
REMARK    5  A    between atoms: C_7  and  C_8 
REMARK       I    between atoms: C_8  and  N_9 
REMARK    6  A    between atoms: N_9  and  C_10 
REMARK    7  A    between atoms: C_23  and  C_24 
REMARK    8  A    between atoms: C_25  and  O_26 
ROOT
HETATM    1  S   UNL     1      40.293 -13.784   4.783  1.00  0.00    -0.081 SA
ENDROOT
BRANCH   1   2
HETATM    2  C   UNL     1      41.101 -13.639   3.265  1.00  0.00     0.192 A 
HETATM    3  N   UNL     1      40.501 -13.679   2.034  1.00  0.00    -0.304 N 
HETATM    4  C   UNL     1      41.542 -13.658   1.124  1.00  0.00     0.167 A 
HETATM    5  N   UNL     1      42.680 -13.555   1.794  1.00  0.00    -0.128 NA
HETATM    6  N   UNL     1      42.399 -13.522   3.130  1.00  0.00    -0.122 NA
BRANCH   3   7
HETATM    7  C   UNL     1      39.081 -13.809   1.757  1.00  0.00     0.159 C 
BRANCH   7   8
HETATM    8  C   UNL     1      38.439 -12.493   1.431  1.00  0.00    -0.017 C 
HETATM    9  C   UNL     1      38.138 -11.555   2.339  1.00  0.00     0.008 C 
ENDBRANCH   7   8
ENDBRANCH   3   7
BRANCH   4  10
HETATM   10  C   UNL     1      41.476 -13.903  -0.316  1.00  0.00     0.046 A 
HETATM   11  C   UNL     1      41.123 -15.180  -0.789  1.00  0.00     0.079 A 
HETATM   12  C   UNL     1      41.002 -15.442  -2.152  1.00  0.00     0.039 A 
HETATM   13  C   UNL     1      41.267 -14.431  -3.074  1.00  0.00     0.022 A 
HETATM   14  C   UNL     1      41.662 -13.173  -2.620  1.00  0.00     0.012 A 
HETATM   15 BR   UNL     1      42.044 -11.808  -3.871  1.00  0.00    -0.051 Br
HETATM   16  C   UNL     1      41.775 -12.907  -1.252  1.00  0.00     0.037 A 
BRANCH  11  17
HETATM   17  O   UNL     1      40.876 -16.233   0.053  1.00  0.00    -0.360 OA
HETATM   18  H   UNL     1      40.617 -15.874   0.927  1.00  0.00     0.217 HD
ENDBRANCH  11  17
ENDBRANCH   4  10
ENDBRANCH   1   2
BRANCH   1  19
HETATM   19  C   UNL     1      41.662 -14.392   5.821  1.00  0.00     0.185 C 
BRANCH  19  20
HETATM   20  C   UNL     1      41.900 -15.891   5.688  1.00  0.00     0.231 C 
HETATM   21  N   UNL     1      42.988 -16.233   4.908  1.00  0.00    -0.326 N 
HETATM   22  H   UNL     1      43.576 -15.464   4.593  1.00  0.00     0.169 HD
HETATM   23  O   UNL     1      41.118 -16.686   6.207  1.00  0.00    -0.272 OA
BRANCH  21  24
HETATM   24  C   UNL     1      43.404 -17.520   4.513  1.00  0.00     0.037 A 
HETATM   25  C   UNL     1      42.998 -18.131   3.321  1.00  0.00     0.061 A 
HETATM   26  C   UNL     1      43.519 -19.376   3.050  1.00  0.00     0.065 A 
HETATM   27  C   UNL     1      44.394 -20.027   3.916  1.00  0.00     0.063 A 
HETATM   28  N   UNL     1      43.328 -20.195   1.941  1.00  0.00    -0.306 N 
HETATM   29  N   UNL     1      44.733 -21.249   3.346  1.00  0.00    -0.307 N 
HETATM   30  C   UNL     1      44.804 -19.463   5.097  1.00  0.00     0.034 A 
HETATM   31  C   UNL     1      44.082 -21.365   2.109  1.00  0.00     0.325 A 
HETATM   32  H   UNL     1      45.352 -21.948   3.720  1.00  0.00     0.170 HD
HETATM   33  O   UNL     1      44.162 -22.299   1.332  1.00  0.00    -0.247 OA
HETATM   34  C   UNL     1      44.305 -18.187   5.385  1.00  0.00     0.032 A 
HETATM   35  H   UNL     1      42.763 -19.998   1.131  1.00  0.00     0.170 HD
ENDBRANCH  21  24
ENDBRANCH  19  20
ENDBRANCH   1  19
TORSDOF 8
ENDMDL
MODEL 7
REMARK VINA RESULT:      -7.9      2.607      3.299
REMARK  8 active torsions:
REMARK  status: ('A' for Active; 'I' for Inactive)
REMARK    1  A    between atoms: C_2  and  C_3 
REMARK    2  A    between atoms: C_3  and  N_4 
REMARK    3  A    between atoms: C_5  and  S_6 
REMARK    4  A    between atoms: S_6  and  C_7 
REMARK    5  A    between atoms: C_7  and  C_8 
REMARK       I    between atoms: C_8  and  N_9 
REMARK    6  A    between atoms: N_9  and  C_10 
REMARK    7  A    between atoms: C_23  and  C_24 
REMARK    8  A    between atoms: C_25  and  O_26 
ROOT
HETATM    1  S   UNL     1      41.133 -12.210   4.372  1.00  0.00    -0.081 SA
ENDROOT
BRANCH   1   2
HETATM    2  C   UNL     1      42.228 -13.405   3.780  1.00  0.00     0.192 A 
HETATM    3  N   UNL     1      41.942 -14.733   3.601  1.00  0.00    -0.304 N 
HETATM    4  C   UNL     1      43.143 -15.317   3.243  1.00  0.00     0.167 A 
HETATM    5  N   UNL     1      44.062 -14.366   3.167  1.00  0.00    -0.128 NA
HETATM    6  N   UNL     1      43.482 -13.170   3.481  1.00  0.00    -0.122 NA
BRANCH   3   7
HETATM    7  C   UNL     1      40.667 -15.391   3.830  1.00  0.00     0.159 C 
BRANCH   7   8
HETATM    8  C   UNL     1      39.932 -15.675   2.553  1.00  0.00    -0.017 C 
HETATM    9  C   UNL     1      39.992 -16.840   1.893  1.00  0.00     0.008 C 
ENDBRANCH   7   8
ENDBRANCH   3   7
BRANCH   4  10
HETATM   10  C   UNL     1      43.452 -16.742   3.150  1.00  0.00     0.046 A 
HETATM   11  C   UNL     1      43.534 -17.355   1.886  1.00  0.00     0.079 A 
HETATM   12  C   UNL     1      43.873 -18.700   1.751  1.00  0.00     0.039 A 
HETATM   13  C   UNL     1      44.104 -19.469   2.889  1.00  0.00     0.022 A 
HETATM   14  C   UNL     1      43.981 -18.886   4.150  1.00  0.00     0.012 A 
HETATM   15 BR   UNL     1      44.271 -19.935   5.696  1.00  0.00    -0.051 Br
HETATM   16  C   UNL     1      43.649 -17.535   4.286  1.00  0.00     0.037 A 
BRANCH  11  17
HETATM   17  O   UNL     1      43.293 -16.673   0.722  1.00  0.00    -0.360 OA
HETATM   18  H   UNL     1      43.584 -17.232  -0.029  1.00  0.00     0.217 HD
ENDBRANCH  11  17
ENDBRANCH   4  10
ENDBRANCH   1   2
BRANCH   1  19
HETATM   19  C   UNL     1      40.847 -11.251   2.849  1.00  0.00     0.185 C 
BRANCH  19  20
HETATM   20  C   UNL     1      40.017 -11.998   1.813  1.00  0.00     0.231 C 
HETATM   21  N   UNL     1      40.621 -12.126   0.577  1.00  0.00    -0.326 N 
HETATM   22  H   UNL     1      41.587 -11.809   0.512  1.00  0.00     0.169 HD
HETATM   23  O   UNL     1      38.882 -12.381   2.094  1.00  0.00    -0.272 OA
BRANCH  21  24
HETATM   24  C   UNL     1      40.076 -12.666  -0.605  1.00  0.00     0.037 A 
HETATM   25  C   UNL     1      40.312 -13.977  -1.034  1.00  0.00     0.061 A 
HETATM   26  C   UNL     1      39.677 -14.378  -2.189  1.00  0.00     0.065 A 
HETATM   27  C   UNL     1      38.852 -13.531  -2.923  1.00  0.00     0.063 A 
HETATM   28  N   UNL     1      39.693 -15.615  -2.826  1.00  0.00    -0.306 N 
HETATM   29  N   UNL     1      38.369 -14.241  -4.016  1.00  0.00    -0.307 N 
HETATM   30  C   UNL     1      38.607 -12.238  -2.538  1.00  0.00     0.034 A 
HETATM   31  C   UNL     1      38.879 -15.547  -3.965  1.00  0.00     0.325 A 
HETATM   32  H   UNL     1      37.743 -13.913  -4.731  1.00  0.00     0.170 HD
HETATM   33  O   UNL     1      38.652 -16.446  -4.754  1.00  0.00    -0.247 OA
HETATM   34  C   UNL     1      39.223 -11.812  -1.354  1.00  0.00     0.032 A 
HETATM   35  H   UNL     1      40.185 -16.444  -2.531  1.00  0.00     0.170 HD
ENDBRANCH  21  24
ENDBRANCH  19  20
ENDBRANCH   1  19
TORSDOF 8
ENDMDL
MODEL 8
REMARK VINA RESULT:      -7.8      1.533      2.424
REMARK  8 active torsions:
REMARK  status: ('A' for Active; 'I' for Inactive)
REMARK    1  A    between atoms: C_2  and  C_3 
REMARK    2  A    between atoms: C_3  and  N_4 
REMARK    3  A    between atoms: C_5  and  S_6 
REMARK    4  A    between atoms: S_6  and  C_7 
REMARK    5  A    between atoms: C_7  and  C_8 
REMARK       I    between atoms: C_8  and  N_9 
REMARK    6  A    between atoms: N_9  and  C_10 
REMARK    7  A    between atoms: C_23  and  C_24 
REMARK    8  A    between atoms: C_25  and  O_26 
ROOT
HETATM    1  S   UNL     1      41.207 -12.675   5.466  1.00  0.00    -0.081 SA
ENDROOT
BRANCH   1   2
HETATM    2  C   UNL     1      41.285 -14.379   5.732  1.00  0.00     0.192 A 
HETATM    3  N   UNL     1      42.434 -15.119   5.829  1.00  0.00    -0.304 N 
HETATM    4  C   UNL     1      42.010 -16.434   5.907  1.00  0.00     0.167 A 
HETATM    5  N   UNL     1      40.686 -16.446   5.909  1.00  0.00    -0.128 NA
HETATM    6  N   UNL     1      40.237 -15.159   5.822  1.00  0.00    -0.122 NA
BRANCH   3   7
HETATM    7  C   UNL     1      43.799 -14.628   5.771  1.00  0.00     0.159 C 
BRANCH   7   8
HETATM    8  C   UNL     1      44.453 -14.589   7.121  1.00  0.00    -0.017 C 
HETATM    9  C   UNL     1      44.772 -13.463   7.771  1.00  0.00     0.008 C 
ENDBRANCH   7   8
ENDBRANCH   3   7
BRANCH   4  10
HETATM   10  C   UNL     1      42.825 -17.643   5.804  1.00  0.00     0.046 A 
HETATM   11  C   UNL     1      43.293 -18.268   6.974  1.00  0.00     0.079 A 
HETATM   12  C   UNL     1      44.031 -19.449   6.921  1.00  0.00     0.039 A 
HETATM   13  C   UNL     1      44.345 -20.011   5.686  1.00  0.00     0.022 A 
HETATM   14  C   UNL     1      43.925 -19.377   4.516  1.00  0.00     0.012 A 
HETATM   15 BR   UNL     1      44.370 -20.126   2.838  1.00  0.00    -0.051 Br
HETATM   16  C   UNL     1      43.177 -18.197   4.568  1.00  0.00     0.037 A 
BRANCH  11  17
HETATM   17  O   UNL     1      43.052 -17.762   8.224  1.00  0.00    -0.360 OA
HETATM   18  H   UNL     1      43.687 -18.169   8.850  1.00  0.00     0.217 HD
ENDBRANCH  11  17
ENDBRANCH   4  10
ENDBRANCH   1   2
BRANCH   1  19
HETATM   19  C   UNL     1      42.215 -12.537   3.954  1.00  0.00     0.185 C 
BRANCH  19  20
HETATM   20  C   UNL     1      41.461 -12.928   2.689  1.00  0.00     0.231 C 
HETATM   21  N   UNL     1      42.263 -13.141   1.585  1.00  0.00    -0.326 N 
HETATM   22  H   UNL     1      43.268 -13.121   1.747  1.00  0.00     0.169 HD
HETATM   23  O   UNL     1      40.232 -12.978   2.697  1.00  0.00    -0.272 OA
BRANCH  21  24
HETATM   24  C   UNL     1      41.864 -13.409   0.260  1.00  0.00     0.037 A 
HETATM   25  C   UNL     1      41.264 -14.610  -0.137  1.00  0.00     0.061 A 
HETATM   26  C   UNL     1      40.891 -14.713  -1.458  1.00  0.00     0.065 A 
HETATM   27  C   UNL     1      41.110 -13.692  -2.380  1.00  0.00     0.063 A 
HETATM   28  N   UNL     1      40.250 -15.755  -2.121  1.00  0.00    -0.306 N 
HETATM   29  N   UNL     1      40.614 -14.110  -3.609  1.00  0.00    -0.307 N 
HETATM   30  C   UNL     1      41.705 -12.508  -2.029  1.00  0.00     0.034 A 
HETATM   31  C   UNL     1      40.066 -15.393  -3.462  1.00  0.00     0.325 A 
HETATM   32  H   UNL     1      40.612 -13.597  -4.475  1.00  0.00     0.170 HD
HETATM   33  O   UNL     1      39.531 -16.058  -4.331  1.00  0.00    -0.247 OA
HETATM   34  C   UNL     1      42.073 -12.369  -0.685  1.00  0.00     0.032 A 
HETATM   35  H   UNL     1      39.942 -16.629  -1.723  1.00  0.00     0.170 HD
ENDBRANCH  21  24
ENDBRANCH  19  20
ENDBRANCH   1  19
TORSDOF 8
ENDMDL
MODEL 9
REMARK VINA RESULT:      -7.7      5.902      9.741
REMARK  8 active torsions:
REMARK  status: ('A' for Active; 'I' for Inactive)
REMARK    1  A    between atoms: C_2  and  C_3 
REMARK    2  A    between atoms: C_3  and  N_4 
REMARK    3  A    between atoms: C_5  and  S_6 
REMARK    4  A    between atoms: S_6  and  C_7 
REMARK    5  A    between atoms: C_7  and  C_8 
REMARK       I    between atoms: C_8  and  N_9 
REMARK    6  A    between atoms: N_9  and  C_10 
REMARK    7  A    between atoms: C_23  and  C_24 
REMARK    8  A    between atoms: C_25  and  O_26 
ROOT
HETATM    1  S   UNL     1      41.406 -11.624   6.135  1.00  0.00    -0.081 SA
ENDROOT
BRANCH   1   2
HETATM    2  C   UNL     1      41.165 -13.297   5.789  1.00  0.00     0.192 A 
HETATM    3  N   UNL     1      42.139 -14.182   5.408  1.00  0.00    -0.304 N 
HETATM    4  C   UNL     1      41.467 -15.355   5.116  1.00  0.00     0.167 A 
HETATM    5  N   UNL     1      40.180 -15.172   5.369  1.00  0.00    -0.128 NA
HETATM    6  N   UNL     1      39.998 -13.893   5.810  1.00  0.00    -0.122 NA
BRANCH   3   7
HETATM    7  C   UNL     1      43.558 -13.910   5.257  1.00  0.00     0.159 C 
BRANCH   7   8
HETATM    8  C   UNL     1      44.355 -14.348   6.450  1.00  0.00    -0.017 C 
HETATM    9  C   UNL     1      44.626 -13.566   7.503  1.00  0.00     0.008 C 
ENDBRANCH   7   8
ENDBRANCH   3   7
BRANCH   4  10
HETATM   10  C   UNL     1      41.995 -16.548   4.456  1.00  0.00     0.046 A 
HETATM   11  C   UNL     1      41.664 -16.803   3.112  1.00  0.00     0.079 A 
HETATM   12  C   UNL     1      42.185 -17.902   2.433  1.00  0.00     0.039 A 
HETATM   13  C   UNL     1      43.025 -18.791   3.100  1.00  0.00     0.022 A 
HETATM   14  C   UNL     1      43.325 -18.574   4.445  1.00  0.00     0.012 A 
HETATM   15 BR   UNL     1      44.447 -19.792   5.358  1.00  0.00    -0.051 Br
HETATM   16  C   UNL     1      42.810 -17.467   5.126  1.00  0.00     0.037 A 
BRANCH  11  17
HETATM   17  O   UNL     1      40.822 -15.994   2.397  1.00  0.00    -0.360 OA
HETATM   18  H   UNL     1      40.607 -16.442   1.552  1.00  0.00     0.217 HD
ENDBRANCH  11  17
ENDBRANCH   4  10
ENDBRANCH   1   2
BRANCH   1  19
HETATM   19  C   UNL     1      40.143 -11.375   7.425  1.00  0.00     0.185 C 
BRANCH  19  20
HETATM   20  C   UNL     1      40.620 -10.497   8.575  1.00  0.00     0.231 C 
HETATM   21  N   UNL     1      41.378 -11.155   9.524  1.00  0.00    -0.326 N 
HETATM   22  H   UNL     1      41.629 -12.119   9.312  1.00  0.00     0.169 HD
HETATM   23  O   UNL     1      40.277  -9.317   8.631  1.00  0.00    -0.272 OA
BRANCH  21  24
HETATM   24  C   UNL     1      41.872 -10.650  10.744  1.00  0.00     0.037 A 
HETATM   25  C   UNL     1      41.066 -10.401  11.860  1.00  0.00     0.061 A 
HETATM   26  C   UNL     1      41.696  -9.947  12.996  1.00  0.00     0.065 A 
HETATM   27  C   UNL     1      43.069  -9.718  13.050  1.00  0.00     0.063 A 
HETATM   28  N   UNL     1      41.166  -9.654  14.249  1.00  0.00    -0.306 N 
HETATM   29  N   UNL     1      43.381  -9.275  14.330  1.00  0.00    -0.307 N 
HETATM   30  C   UNL     1      43.888  -9.941  11.973  1.00  0.00     0.034 A 
HETATM   31  C   UNL     1      42.205  -9.238  15.093  1.00  0.00     0.325 A 
HETATM   32  H   UNL     1      44.289  -9.032  14.690  1.00  0.00     0.170 HD
HETATM   33  O   UNL     1      42.108  -8.912  16.262  1.00  0.00    -0.247 OA
HETATM   34  C   UNL     1      43.273 -10.425  10.811  1.00  0.00     0.032 A 
HETATM   35  H   UNL     1      40.203  -9.735  14.534  1.00  0.00     0.170 HD
ENDBRANCH  21  24
ENDBRANCH  19  20
ENDBRANCH   1  19
TORSDOF 8
ENDMDL
MODEL 10
REMARK VINA RESULT:      -7.7      4.283      8.017
REMARK  8 active torsions:
REMARK  status: ('A' for Active; 'I' for Inactive)
REMARK    1  A    between atoms: C_2  and  C_3 
REMARK    2  A    between atoms: C_3  and  N_4 
REMARK    3  A    between atoms: C_5  and  S_6 
REMARK    4  A    between atoms: S_6  and  C_7 
REMARK    5  A    between atoms: C_7  and  C_8 
REMARK       I    between atoms: C_8  and  N_9 
REMARK    6  A    between atoms: N_9  and  C_10 
REMARK    7  A    between atoms: C_23  and  C_24 
REMARK    8  A    between atoms: C_25  and  O_26 
ROOT
HETATM    1  S   UNL     1      40.542 -12.123   3.027  1.00  0.00    -0.081 SA
ENDROOT
BRANCH   1   2
HETATM    2  C   UNL     1      40.685 -13.841   2.941  1.00  0.00     0.192 A 
HETATM    3  N   UNL     1      41.795 -14.568   3.283  1.00  0.00    -0.304 N 
HETATM    4  C   UNL     1      41.497 -15.871   2.928  1.00  0.00     0.167 A 
HETATM    5  N   UNL     1      40.259 -15.902   2.456  1.00  0.00    -0.128 NA
HETATM    6  N   UNL     1      39.748 -14.636   2.486  1.00  0.00    -0.122 NA
BRANCH   3   7
HETATM    7  C   UNL     1      43.044 -14.057   3.819  1.00  0.00     0.159 C 
BRANCH   7   8
HETATM    8  C   UNL     1      43.066 -14.054   5.319  1.00  0.00    -0.017 C 
HETATM    9  C   UNL     1      44.185 -14.047   6.056  1.00  0.00     0.008 C 
ENDBRANCH   7   8
ENDBRANCH   3   7
BRANCH   4  10
HETATM   10  C   UNL     1      42.407 -17.013   2.871  1.00  0.00     0.046 A 
HETATM   11  C   UNL     1      42.903 -17.447   1.629  1.00  0.00     0.079 A 
HETATM   12  C   UNL     1      43.809 -18.501   1.536  1.00  0.00     0.039 A 
HETATM   13  C   UNL     1      44.214 -19.165   2.691  1.00  0.00     0.022 A 
HETATM   14  C   UNL     1      43.696 -18.775   3.926  1.00  0.00     0.012 A 
HETATM   15 BR   UNL     1      44.226 -19.692   5.492  1.00  0.00    -0.051 Br
HETATM   16  C   UNL     1      42.792 -17.712   4.021  1.00  0.00     0.037 A 
BRANCH  11  17
HETATM   17  O   UNL     1      42.530 -16.864   0.445  1.00  0.00    -0.360 OA
HETATM   18  H   UNL     1      42.547 -15.891   0.562  1.00  0.00     0.217 HD
ENDBRANCH  11  17
ENDBRANCH   4  10
ENDBRANCH   1   2
BRANCH   1  19
HETATM   19  C   UNL     1      39.144 -11.972   4.185  1.00  0.00     0.185 C 
BRANCH  19  20
HETATM   20  C   UNL     1      39.536 -12.210   5.638  1.00  0.00     0.231 C 
HETATM   21  N   UNL     1      39.912 -11.072   6.325  1.00  0.00    -0.326 N 
HETATM   22  H   UNL     1      39.790 -10.188   5.835  1.00  0.00     0.169 HD
HETATM   23  O   UNL     1      39.554 -13.354   6.091  1.00  0.00    -0.272 OA
BRANCH  21  24
HETATM   24  C   UNL     1      40.422 -10.977   7.636  1.00  0.00     0.037 A 
HETATM   25  C   UNL     1      39.640 -11.158   8.782  1.00  0.00     0.061 A 
HETATM   26  C   UNL     1      40.286 -11.075   9.996  1.00  0.00     0.065 A 
HETATM   27  C   UNL     1      41.648 -10.804  10.103  1.00  0.00     0.063 A 
HETATM   28  N   UNL     1      39.782 -11.246  11.282  1.00  0.00    -0.306 N 
HETATM   29  N   UNL     1      41.979 -10.797  11.453  1.00  0.00    -0.307 N 
HETATM   30  C   UNL     1      42.441 -10.610   9.001  1.00  0.00     0.034 A 
HETATM   31  C   UNL     1      40.828 -11.080  12.202  1.00  0.00     0.325 A 
HETATM   32  H   UNL     1      42.886 -10.640  11.859  1.00  0.00     0.170 HD
HETATM   33  O   UNL     1      40.754 -11.168  13.414  1.00  0.00    -0.247 OA
HETATM   34  C   UNL     1      41.812 -10.712   7.754  1.00  0.00     0.032 A 
HETATM   35  H   UNL     1      38.834 -11.469  11.538  1.00  0.00     0.170 HD
ENDBRANCH  21  24
ENDBRANCH  19  20
ENDBRANCH   1  19
TORSDOF 8
ENDMDL
