MODEL 1
REMARK VINA RESULT:      -8.0      0.000      0.000
REMARK  7 active torsions:
REMARK  status: ('A' for Active; 'I' for Inactive)
REMARK    1  A    between atoms: C_3  and  C_4 
REMARK    2  A    between atoms: C_4  and  N_5 
REMARK       I    between atoms: N_5  and  C_6 
REMARK    3  A    between atoms: C_6  and  C_7 
REMARK    4  A    between atoms: C_7  and  N_8 
REMARK    5  A    between atoms: C_10  and  C_11 
REMARK    6  A    between atoms: C_11  and  N_12 
REMARK       I    between atoms: N_12  and  C_13 
REMARK       I    between atoms: C_13  and  N_14 
REMARK    7  A    between atoms: N_14  and  C_15 
ROOT
HETATM    1  N   UNL     1      42.024 -12.765   0.381  1.00  0.00    -0.057 N 
HETATM    2  H   UNL     1      42.977 -13.175   0.478  1.00  0.00     0.281 HD
HETATM    3  C   UNL     1      41.346 -13.629  -0.678  1.00  0.00     0.206 C 
HETATM    4  C   UNL     1      42.140 -13.528  -1.992  1.00  0.00     0.035 C 
HETATM    5  C   UNL     1      42.339 -12.084  -2.437  1.00  0.00     0.004 C 
HETATM    6  C   UNL     1      42.991 -11.262  -1.335  1.00  0.00     0.028 C 
HETATM    7  C   UNL     1      42.188 -11.331  -0.046  1.00  0.00     0.236 C 
ENDROOT
BRANCH   1   8
HETATM    8  C   UNL     1      41.462 -12.863   1.802  1.00  0.00     0.337 C 
BRANCH   8   9
HETATM    9  C   UNL     1      42.447 -13.319   2.882  1.00  0.00     0.243 C 
HETATM   10  N   UNL     1      42.062 -13.015   4.166  1.00  0.00    -0.355 N 
HETATM   11  H   UNL     1      41.129 -12.671   4.363  1.00  0.00     0.162 HD
HETATM   12  O   UNL     1      43.499 -13.896   2.616  1.00  0.00    -0.272 OA
BRANCH  10  13
HETATM   13  C   UNL     1      42.813 -13.501   5.307  1.00  0.00     0.169 C 
BRANCH  13  14
HETATM   14  C   UNL     1      42.216 -14.793   5.779  1.00  0.00     0.006 A 
HETATM   15  C   UNL     1      42.845 -15.864   6.402  1.00  0.00    -0.047 A 
HETATM   16  C   UNL     1      44.301 -15.941   6.733  1.00  0.00     0.049 C 
HETATM   17  C   UNL     1      41.912 -16.917   6.687  1.00  0.00     0.015 A 
HETATM   18  C   UNL     1      40.635 -16.627   6.266  1.00  0.00     0.051 A 
HETATM   19  S   UNL     1      40.543 -15.101   5.516  1.00  0.00    -0.104 SA
ENDBRANCH  13  14
ENDBRANCH  10  13
ENDBRANCH   8   9
ENDBRANCH   1   8
BRANCH   3  20
HETATM   20  C   UNL     1      41.169 -15.115  -0.249  1.00  0.00     0.157 C 
BRANCH  20  21
HETATM   21  N   UNL     1      42.308 -15.855   0.292  1.00  0.00    -0.341 N 
HETATM   22  C   UNL     1      42.278 -16.887   1.197  1.00  0.00     0.320 C 
HETATM   23  N   UNL     1      43.490 -17.516   1.301  1.00  0.00    -0.309 N 
HETATM   24  O   UNL     1      41.252 -17.179   1.804  1.00  0.00    -0.247 OA
HETATM   25  H   UNL     1      44.129 -17.408   0.526  1.00  0.00     0.170 HD
HETATM   26  H   UNL     1      43.213 -15.637  -0.107  1.00  0.00     0.164 HD
BRANCH  23  27
HETATM   27  C   UNL     1      43.843 -18.508   2.242  1.00  0.00     0.036 A 
HETATM   28  C   UNL     1      44.000 -18.109   3.575  1.00  0.00     0.029 A 
HETATM   29  C   UNL     1      44.340 -19.040   4.560  1.00  0.00     0.002 A 
HETATM   30  C   UNL     1      44.505 -20.381   4.223  1.00  0.00     0.000 A 
HETATM   31  C   UNL     1      44.332 -20.789   2.903  1.00  0.00     0.002 A 
HETATM   32  C   UNL     1      44.003 -19.856   1.915  1.00  0.00     0.029 A 
ENDBRANCH  23  27
ENDBRANCH  20  21
ENDBRANCH   3  20
TORSDOF 7
ENDMDL
MODEL 2
REMARK VINA RESULT:      -7.7      4.173      7.440
REMARK  7 active torsions:
REMARK  status: ('A' for Active; 'I' for Inactive)
REMARK    1  A    between atoms: C_3  and  C_4 
REMARK    2  A    between atoms: C_4  and  N_5 
REMARK       I    between atoms: N_5  and  C_6 
REMARK    3  A    between atoms: C_6  and  C_7 
REMARK    4  A    between atoms: C_7  and  N_8 
REMARK    5  A    between atoms: C_10  and  C_11 
REMARK    6  A    between atoms: C_11  and  N_12 
REMARK       I    between atoms: N_12  and  C_13 
REMARK       I    between atoms: C_13  and  N_14 
REMARK    7  A    between atoms: N_14  and  C_15 
ROOT
HETATM    1  N   UNL     1      42.474 -11.052   9.643  1.00  0.00    -0.057 N 
HETATM    2  H   UNL     1      42.017 -11.987   9.594  1.00  0.00     0.281 HD
HETATM    3  C   UNL     1      43.944 -11.361   9.906  1.00  0.00     0.206 C 
HETATM    4  C   UNL     1      44.066 -12.119  11.240  1.00  0.00     0.035 C 
HETATM    5  C   UNL     1      43.397 -11.375  12.390  1.00  0.00     0.004 C 
HETATM    6  C   UNL     1      41.943 -11.066  12.063  1.00  0.00     0.028 C 
HETATM    7  C   UNL     1      41.824 -10.286  10.764  1.00  0.00     0.236 C 
ENDROOT
BRANCH   1   8
HETATM    8  C   UNL     1      42.141 -10.436   8.281  1.00  0.00     0.337 C 
BRANCH   8   9
HETATM    9  C   UNL     1      40.768 -10.792   7.702  1.00  0.00     0.243 C 
HETATM   10  N   UNL     1      40.716 -12.015   7.079  1.00  0.00    -0.355 N 
HETATM   11  H   UNL     1      41.483 -12.674   7.156  1.00  0.00     0.162 HD
HETATM   12  O   UNL     1      39.803 -10.036   7.779  1.00  0.00    -0.272 OA
BRANCH  10  13
HETATM   13  C   UNL     1      39.459 -12.560   6.604  1.00  0.00     0.169 C 
BRANCH  13  14
HETATM   14  C   UNL     1      39.677 -13.225   5.277  1.00  0.00     0.006 A 
HETATM   15  C   UNL     1      40.073 -14.530   5.014  1.00  0.00    -0.047 A 
HETATM   16  C   UNL     1      40.378 -15.568   6.047  1.00  0.00     0.049 C 
HETATM   17  C   UNL     1      40.170 -14.767   3.603  1.00  0.00     0.015 A 
HETATM   18  C   UNL     1      39.866 -13.654   2.853  1.00  0.00     0.051 A 
HETATM   19  S   UNL     1      39.477 -12.315   3.830  1.00  0.00    -0.104 SA
ENDBRANCH  13  14
ENDBRANCH  10  13
ENDBRANCH   8   9
ENDBRANCH   1   8
BRANCH   3  20
HETATM   20  C   UNL     1      44.630 -12.153   8.754  1.00  0.00     0.157 C 
BRANCH  20  21
HETATM   21  N   UNL     1      44.046 -13.410   8.289  1.00  0.00    -0.341 N 
HETATM   22  C   UNL     1      44.540 -14.251   7.323  1.00  0.00     0.320 C 
HETATM   23  N   UNL     1      43.887 -15.456   7.306  1.00  0.00    -0.309 N 
HETATM   24  O   UNL     1      45.471 -13.919   6.597  1.00  0.00    -0.247 OA
HETATM   25  H   UNL     1      43.396 -15.721   8.149  1.00  0.00     0.170 HD
HETATM   26  H   UNL     1      43.230 -13.737   8.792  1.00  0.00     0.164 HD
BRANCH  23  27
HETATM   27  C   UNL     1      44.041 -16.480   6.347  1.00  0.00     0.036 A 
HETATM   28  C   UNL     1      44.846 -17.573   6.691  1.00  0.00     0.029 A 
HETATM   29  C   UNL     1      45.034 -18.626   5.793  1.00  0.00     0.002 A 
HETATM   30  C   UNL     1      44.405 -18.605   4.552  1.00  0.00     0.000 A 
HETATM   31  C   UNL     1      43.587 -17.530   4.209  1.00  0.00     0.002 A 
HETATM   32  C   UNL     1      43.406 -16.471   5.103  1.00  0.00     0.029 A 
ENDBRANCH  23  27
ENDBRANCH  20  21
ENDBRANCH   3  20
TORSDOF 7
ENDMDL
MODEL 3
REMARK VINA RESULT:      -7.6      1.903      2.482
REMARK  7 active torsions:
REMARK  status: ('A' for Active; 'I' for Inactive)
REMARK    1  A    between atoms: C_3  and  C_4 
REMARK    2  A    between atoms: C_4  and  N_5 
REMARK       I    between atoms: N_5  and  C_6 
REMARK    3  A    between atoms: C_6  and  C_7 
REMARK    4  A    between atoms: C_7  and  N_8 
REMARK    5  A    between atoms: C_10  and  C_11 
REMARK    6  A    between atoms: C_11  and  N_12 
REMARK       I    between atoms: N_12  and  C_13 
REMARK       I    between atoms: C_13  and  N_14 
REMARK    7  A    between atoms: N_14  and  C_15 
ROOT
HETATM    1  N   UNL     1      39.394 -14.207   0.838  1.00  0.00    -0.057 N 
HETATM    2  H   UNL     1      39.860 -13.313   1.103  1.00  0.00     0.281 HD
HETATM    3  C   UNL     1      40.211 -14.725  -0.342  1.00  0.00     0.206 C 
HETATM    4  C   UNL     1      40.148 -13.696  -1.485  1.00  0.00     0.035 C 
HETATM    5  C   UNL     1      38.715 -13.338  -1.861  1.00  0.00     0.004 C 
HETATM    6  C   UNL     1      37.939 -12.856  -0.643  1.00  0.00     0.028 C 
HETATM    7  C   UNL     1      37.970 -13.887   0.474  1.00  0.00     0.236 C 
ENDROOT
BRANCH   1   8
HETATM    8  C   UNL     1      39.468 -15.027   2.130  1.00  0.00     0.337 C 
BRANCH   8   9
HETATM    9  C   UNL     1      40.055 -14.307   3.348  1.00  0.00     0.243 C 
HETATM   10  N   UNL     1      41.114 -14.957   3.934  1.00  0.00    -0.355 N 
HETATM   11  H   UNL     1      41.555 -15.751   3.482  1.00  0.00     0.162 HD
HETATM   12  O   UNL     1      39.602 -13.246   3.770  1.00  0.00    -0.272 OA
BRANCH  10  13
HETATM   13  C   UNL     1      41.869 -14.340   5.008  1.00  0.00     0.169 C 
BRANCH  13  14
HETATM   14  C   UNL     1      42.333 -15.401   5.960  1.00  0.00     0.006 A 
HETATM   15  C   UNL     1      43.516 -15.460   6.687  1.00  0.00    -0.047 A 
HETATM   16  C   UNL     1      44.604 -14.434   6.655  1.00  0.00     0.049 C 
HETATM   17  C   UNL     1      43.577 -16.653   7.481  1.00  0.00     0.015 A 
HETATM   18  C   UNL     1      42.471 -17.455   7.324  1.00  0.00     0.051 A 
HETATM   19  S   UNL     1      41.357 -16.796   6.218  1.00  0.00    -0.104 SA
ENDBRANCH  13  14
ENDBRANCH  10  13
ENDBRANCH   8   9
ENDBRANCH   1   8
BRANCH   3  20
HETATM   20  C   UNL     1      41.687 -15.061   0.022  1.00  0.00     0.157 C 
BRANCH  20  21
HETATM   21  N   UNL     1      42.047 -16.424   0.411  1.00  0.00    -0.341 N 
HETATM   22  C   UNL     1      42.780 -16.812   1.505  1.00  0.00     0.320 C 
HETATM   23  N   UNL     1      42.723 -18.166   1.708  1.00  0.00    -0.309 N 
HETATM   24  O   UNL     1      43.384 -15.998   2.195  1.00  0.00    -0.247 OA
HETATM   25  H   UNL     1      41.943 -18.658   1.295  1.00  0.00     0.170 HD
HETATM   26  H   UNL     1      41.643 -17.168  -0.144  1.00  0.00     0.164 HD
BRANCH  23  27
HETATM   27  C   UNL     1      43.477 -18.906   2.644  1.00  0.00     0.036 A 
HETATM   28  C   UNL     1      43.950 -20.163   2.246  1.00  0.00     0.029 A 
HETATM   29  C   UNL     1      44.710 -20.945   3.119  1.00  0.00     0.002 A 
HETATM   30  C   UNL     1      45.020 -20.469   4.390  1.00  0.00     0.000 A 
HETATM   31  C   UNL     1      44.570 -19.212   4.787  1.00  0.00     0.002 A 
HETATM   32  C   UNL     1      43.800 -18.433   3.918  1.00  0.00     0.029 A 
ENDBRANCH  23  27
ENDBRANCH  20  21
ENDBRANCH   3  20
TORSDOF 7
ENDMDL
MODEL 4
REMARK VINA RESULT:      -7.5      4.160      5.301
REMARK  7 active torsions:
REMARK  status: ('A' for Active; 'I' for Inactive)
REMARK    1  A    between atoms: C_3  and  C_4 
REMARK    2  A    between atoms: C_4  and  N_5 
REMARK       I    between atoms: N_5  and  C_6 
REMARK    3  A    between atoms: C_6  and  C_7 
REMARK    4  A    between atoms: C_7  and  N_8 
REMARK    5  A    between atoms: C_10  and  C_11 
REMARK    6  A    between atoms: C_11  and  N_12 
REMARK       I    between atoms: N_12  and  C_13 
REMARK       I    between atoms: C_13  and  N_14 
REMARK    7  A    between atoms: N_14  and  C_15 
ROOT
HETATM    1  N   UNL     1      39.715 -12.684   5.468  1.00  0.00    -0.057 N 
HETATM    2  H   UNL     1      40.691 -12.319   5.492  1.00  0.00     0.281 HD
HETATM    3  C   UNL     1      39.847 -14.078   4.862  1.00  0.00     0.206 C 
HETATM    4  C   UNL     1      40.439 -13.955   3.447  1.00  0.00     0.035 C 
HETATM    5  C   UNL     1      39.645 -12.994   2.569  1.00  0.00     0.004 C 
HETATM    6  C   UNL     1      39.519 -11.631   3.234  1.00  0.00     0.028 C 
HETATM    7  C   UNL     1      38.901 -11.747   4.618  1.00  0.00     0.236 C 
ENDROOT
BRANCH   1   8
HETATM    8  C   UNL     1      39.287 -12.618   6.937  1.00  0.00     0.337 C 
BRANCH   8   9
HETATM    9  C   UNL     1      39.758 -11.386   7.717  1.00  0.00     0.243 C 
HETATM   10  N   UNL     1      41.059 -11.457   8.155  1.00  0.00    -0.355 N 
HETATM   11  H   UNL     1      41.680 -12.192   7.833  1.00  0.00     0.162 HD
HETATM   12  O   UNL     1      39.025 -10.427   7.942  1.00  0.00    -0.272 OA
BRANCH  10  13
HETATM   13  C   UNL     1      41.699 -10.318   8.785  1.00  0.00     0.169 C 
BRANCH  13  14
HETATM   14  C   UNL     1      42.051 -10.668  10.200  1.00  0.00     0.006 A 
HETATM   15  C   UNL     1      43.308 -10.856  10.761  1.00  0.00    -0.047 A 
HETATM   16  C   UNL     1      44.608 -10.745  10.032  1.00  0.00     0.049 C 
HETATM   17  C   UNL     1      43.208 -11.187  12.154  1.00  0.00     0.015 A 
HETATM   18  C   UNL     1      41.907 -11.255  12.594  1.00  0.00     0.051 A 
HETATM   19  S   UNL     1      40.794 -10.937  11.344  1.00  0.00    -0.104 SA
ENDBRANCH  13  14
ENDBRANCH  10  13
ENDBRANCH   8   9
ENDBRANCH   1   8
BRANCH   3  20
HETATM   20  C   UNL     1      40.687 -15.058   5.731  1.00  0.00     0.157 C 
BRANCH  20  21
HETATM   21  N   UNL     1      41.840 -15.742   5.148  1.00  0.00    -0.341 N 
HETATM   22  C   UNL     1      41.927 -17.060   4.775  1.00  0.00     0.320 C 
HETATM   23  N   UNL     1      43.055 -17.314   4.039  1.00  0.00    -0.309 N 
HETATM   24  O   UNL     1      41.060 -17.872   5.079  1.00  0.00    -0.247 OA
HETATM   25  H   UNL     1      43.489 -16.524   3.582  1.00  0.00     0.170 HD
HETATM   26  H   UNL     1      42.636 -15.159   4.918  1.00  0.00     0.164 HD
BRANCH  23  27
HETATM   27  C   UNL     1      43.523 -18.582   3.632  1.00  0.00     0.036 A 
HETATM   28  C   UNL     1      43.098 -19.059   2.386  1.00  0.00     0.029 A 
HETATM   29  C   UNL     1      43.530 -20.302   1.917  1.00  0.00     0.002 A 
HETATM   30  C   UNL     1      44.405 -21.070   2.681  1.00  0.00     0.000 A 
HETATM   31  C   UNL     1      44.848 -20.593   3.913  1.00  0.00     0.002 A 
HETATM   32  C   UNL     1      44.407 -19.354   4.388  1.00  0.00     0.029 A 
ENDBRANCH  23  27
ENDBRANCH  20  21
ENDBRANCH   3  20
TORSDOF 7
ENDMDL
MODEL 5
REMARK VINA RESULT:      -7.5      1.941      2.896
REMARK  7 active torsions:
REMARK  status: ('A' for Active; 'I' for Inactive)
REMARK    1  A    between atoms: C_3  and  C_4 
REMARK    2  A    between atoms: C_4  and  N_5 
REMARK       I    between atoms: N_5  and  C_6 
REMARK    3  A    between atoms: C_6  and  C_7 
REMARK    4  A    between atoms: C_7  and  N_8 
REMARK    5  A    between atoms: C_10  and  C_11 
REMARK    6  A    between atoms: C_11  and  N_12 
REMARK       I    between atoms: N_12  and  C_13 
REMARK       I    between atoms: C_13  and  N_14 
REMARK    7  A    between atoms: N_14  and  C_15 
ROOT
HETATM    1  N   UNL     1      40.035 -12.864  -1.021  1.00  0.00    -0.057 N 
HETATM    2  H   UNL     1      40.542 -12.911  -0.112  1.00  0.00     0.281 HD
HETATM    3  C   UNL     1      40.852 -13.751  -1.956  1.00  0.00     0.206 C 
HETATM    4  C   UNL     1      42.275 -13.179  -2.074  1.00  0.00     0.035 C 
HETATM    5  C   UNL     1      42.276 -11.713  -2.490  1.00  0.00     0.004 C 
HETATM    6  C   UNL     1      41.424 -10.880  -1.542  1.00  0.00     0.028 C 
HETATM    7  C   UNL     1      40.007 -11.423  -1.453  1.00  0.00     0.236 C 
ENDROOT
BRANCH   1   8
HETATM    8  C   UNL     1      38.634 -13.365  -0.659  1.00  0.00     0.337 C 
BRANCH   8   9
HETATM    9  C   UNL     1      38.487 -14.000   0.728  1.00  0.00     0.243 C 
HETATM   10  N   UNL     1      39.631 -13.967   1.489  1.00  0.00    -0.355 N 
HETATM   11  H   UNL     1      40.434 -13.419   1.202  1.00  0.00     0.162 HD
HETATM   12  O   UNL     1      37.438 -14.507   1.115  1.00  0.00    -0.272 OA
BRANCH  10  13
HETATM   13  C   UNL     1      39.621 -14.399   2.874  1.00  0.00     0.169 C 
BRANCH  13  14
HETATM   14  C   UNL     1      40.985 -14.201   3.464  1.00  0.00     0.006 A 
HETATM   15  C   UNL     1      41.430 -14.507   4.744  1.00  0.00    -0.047 A 
HETATM   16  C   UNL     1      40.598 -15.113   5.829  1.00  0.00     0.049 C 
HETATM   17  C   UNL     1      42.810 -14.153   4.910  1.00  0.00     0.015 A 
HETATM   18  C   UNL     1      43.356 -13.588   3.781  1.00  0.00     0.051 A 
HETATM   19  S   UNL     1      42.219 -13.462   2.519  1.00  0.00    -0.104 SA
ENDBRANCH  13  14
ENDBRANCH  10  13
ENDBRANCH   8   9
ENDBRANCH   1   8
BRANCH   3  20
HETATM   20  C   UNL     1      40.888 -15.246  -1.522  1.00  0.00     0.157 C 
BRANCH  20  21
HETATM   21  N   UNL     1      41.991 -15.735  -0.696  1.00  0.00    -0.341 N 
HETATM   22  C   UNL     1      41.915 -16.589   0.376  1.00  0.00     0.320 C 
HETATM   23  N   UNL     1      43.149 -17.037   0.767  1.00  0.00    -0.309 N 
HETATM   24  O   UNL     1      40.838 -16.894   0.878  1.00  0.00    -0.247 OA
HETATM   25  H   UNL     1      43.891 -16.989   0.082  1.00  0.00     0.170 HD
HETATM   26  H   UNL     1      42.924 -15.480  -0.999  1.00  0.00     0.164 HD
BRANCH  23  27
HETATM   27  C   UNL     1      43.439 -17.799   1.919  1.00  0.00     0.036 A 
HETATM   28  C   UNL     1      43.667 -19.171   1.748  1.00  0.00     0.029 A 
HETATM   29  C   UNL     1      43.967 -19.982   2.844  1.00  0.00     0.002 A 
HETATM   30  C   UNL     1      44.061 -19.427   4.118  1.00  0.00     0.000 A 
HETATM   31  C   UNL     1      43.854 -18.061   4.294  1.00  0.00     0.002 A 
HETATM   32  C   UNL     1      43.543 -17.250   3.199  1.00  0.00     0.029 A 
ENDBRANCH  23  27
ENDBRANCH  20  21
ENDBRANCH   3  20
TORSDOF 7
ENDMDL
MODEL 6
REMARK VINA RESULT:      -7.4      2.424      5.801
REMARK  7 active torsions:
REMARK  status: ('A' for Active; 'I' for Inactive)
REMARK    1  A    between atoms: C_3  and  C_4 
REMARK    2  A    between atoms: C_4  and  N_5 
REMARK       I    between atoms: N_5  and  C_6 
REMARK    3  A    between atoms: C_6  and  C_7 
REMARK    4  A    between atoms: C_7  and  N_8 
REMARK    5  A    between atoms: C_10  and  C_11 
REMARK    6  A    between atoms: C_11  and  N_12 
REMARK       I    between atoms: N_12  and  C_13 
REMARK       I    between atoms: C_13  and  N_14 
REMARK    7  A    between atoms: N_14  and  C_15 
ROOT
HETATM    1  N   UNL     1      40.449 -14.346   3.577  1.00  0.00    -0.057 N 
HETATM    2  H   UNL     1      39.755 -14.451   4.348  1.00  0.00     0.281 HD
HETATM    3  C   UNL     1      41.772 -14.086   4.292  1.00  0.00     0.206 C 
HETATM    4  C   UNL     1      41.649 -12.795   5.120  1.00  0.00     0.035 C 
HETATM    5  C   UNL     1      41.181 -11.612   4.280  1.00  0.00     0.004 C 
HETATM    6  C   UNL     1      39.876 -11.936   3.567  1.00  0.00     0.028 C 
HETATM    7  C   UNL     1      40.006 -13.191   2.720  1.00  0.00     0.236 C 
ENDROOT
BRANCH   1   8
HETATM    8  C   UNL     1      40.331 -15.676   2.826  1.00  0.00     0.337 C 
BRANCH   8   9
HETATM    9  C   UNL     1      41.241 -15.837   1.604  1.00  0.00     0.243 C 
HETATM   10  N   UNL     1      40.572 -15.903   0.405  1.00  0.00    -0.355 N 
HETATM   11  H   UNL     1      39.582 -15.693   0.347  1.00  0.00     0.162 HD
HETATM   12  O   UNL     1      42.463 -15.915   1.696  1.00  0.00    -0.272 OA
BRANCH  10  13
HETATM   13  C   UNL     1      41.293 -15.914  -0.854  1.00  0.00     0.169 C 
BRANCH  13  14
HETATM   14  C   UNL     1      40.858 -14.743  -1.683  1.00  0.00     0.006 A 
HETATM   15  C   UNL     1      40.146 -14.740  -2.876  1.00  0.00    -0.047 A 
HETATM   16  C   UNL     1      39.659 -15.955  -3.597  1.00  0.00     0.049 C 
HETATM   17  C   UNL     1      39.939 -13.402  -3.351  1.00  0.00     0.015 A 
HETATM   18  C   UNL     1      40.501 -12.452  -2.531  1.00  0.00     0.051 A 
HETATM   19  S   UNL     1      41.293 -13.151  -1.195  1.00  0.00    -0.104 SA
ENDBRANCH  13  14
ENDBRANCH  10  13
ENDBRANCH   8   9
ENDBRANCH   1   8
BRANCH   3  20
HETATM   20  C   UNL     1      42.242 -15.273   5.182  1.00  0.00     0.157 C 
BRANCH  20  21
HETATM   21  N   UNL     1      43.181 -16.257   4.644  1.00  0.00    -0.341 N 
HETATM   22  C   UNL     1      42.961 -17.597   4.445  1.00  0.00     0.320 C 
HETATM   23  N   UNL     1      43.955 -18.177   3.701  1.00  0.00    -0.309 N 
HETATM   24  O   UNL     1      41.965 -18.157   4.890  1.00  0.00    -0.247 OA
HETATM   25  H   UNL     1      44.513 -17.562   3.125  1.00  0.00     0.170 HD
HETATM   26  H   UNL     1      44.064 -15.894   4.306  1.00  0.00     0.164 HD
BRANCH  23  27
HETATM   27  C   UNL     1      44.115 -19.556   3.444  1.00  0.00     0.036 A 
HETATM   28  C   UNL     1      43.742 -20.027   2.179  1.00  0.00     0.029 A 
HETATM   29  C   UNL     1      43.881 -21.378   1.854  1.00  0.00     0.002 A 
HETATM   30  C   UNL     1      44.412 -22.267   2.785  1.00  0.00     0.000 A 
HETATM   31  C   UNL     1      44.804 -21.803   4.039  1.00  0.00     0.002 A 
HETATM   32  C   UNL     1      44.654 -20.453   4.368  1.00  0.00     0.029 A 
ENDBRANCH  23  27
ENDBRANCH  20  21
ENDBRANCH   3  20
TORSDOF 7
ENDMDL
MODEL 7
REMARK VINA RESULT:      -7.1      2.454      5.909
REMARK  7 active torsions:
REMARK  status: ('A' for Active; 'I' for Inactive)
REMARK    1  A    between atoms: C_3  and  C_4 
REMARK    2  A    between atoms: C_4  and  N_5 
REMARK       I    between atoms: N_5  and  C_6 
REMARK    3  A    between atoms: C_6  and  C_7 
REMARK    4  A    between atoms: C_7  and  N_8 
REMARK    5  A    between atoms: C_10  and  C_11 
REMARK    6  A    between atoms: C_11  and  N_12 
REMARK       I    between atoms: N_12  and  C_13 
REMARK       I    between atoms: C_13  and  N_14 
REMARK    7  A    between atoms: N_14  and  C_15 
ROOT
HETATM    1  N   UNL     1      40.729 -15.177   3.573  1.00  0.00    -0.057 N 
HETATM    2  H   UNL     1      40.981 -16.122   3.935  1.00  0.00     0.281 HD
HETATM    3  C   UNL     1      42.040 -14.622   3.023  1.00  0.00     0.206 C 
HETATM    4  C   UNL     1      43.066 -14.534   4.166  1.00  0.00     0.035 C 
HETATM    5  C   UNL     1      42.537 -13.746   5.359  1.00  0.00     0.004 C 
HETATM    6  C   UNL     1      41.216 -14.324   5.847  1.00  0.00     0.028 C 
HETATM    7  C   UNL     1      40.189 -14.377   4.728  1.00  0.00     0.236 C 
ENDROOT
BRANCH   1   8
HETATM    8  C   UNL     1      39.635 -15.482   2.546  1.00  0.00     0.337 C 
BRANCH   8   9
HETATM    9  C   UNL     1      39.349 -14.378   1.524  1.00  0.00     0.243 C 
HETATM   10  N   UNL     1      39.360 -14.800   0.216  1.00  0.00    -0.355 N 
HETATM   11  H   UNL     1      39.390 -15.787  -0.014  1.00  0.00     0.162 HD
HETATM   12  O   UNL     1      39.142 -13.212   1.851  1.00  0.00    -0.272 OA
BRANCH  10  13
HETATM   13  C   UNL     1      38.970 -13.910  -0.860  1.00  0.00     0.169 C 
BRANCH  13  14
HETATM   14  C   UNL     1      40.153 -13.655  -1.745  1.00  0.00     0.006 A 
HETATM   15  C   UNL     1      40.453 -14.219  -2.979  1.00  0.00    -0.047 A 
HETATM   16  C   UNL     1      39.621 -15.236  -3.691  1.00  0.00     0.049 C 
HETATM   17  C   UNL     1      41.690 -13.706  -3.495  1.00  0.00     0.015 A 
HETATM   18  C   UNL     1      42.287 -12.800  -2.649  1.00  0.00     0.051 A 
HETATM   19  S   UNL     1      41.381 -12.566  -1.226  1.00  0.00    -0.104 SA
ENDBRANCH  13  14
ENDBRANCH  10  13
ENDBRANCH   8   9
ENDBRANCH   1   8
BRANCH   3  20
HETATM   20  C   UNL     1      42.609 -15.439   1.827  1.00  0.00     0.157 C 
BRANCH  20  21
HETATM   21  N   UNL     1      43.553 -16.528   2.076  1.00  0.00    -0.341 N 
HETATM   22  C   UNL     1      43.279 -17.764   2.607  1.00  0.00     0.320 C 
HETATM   23  N   UNL     1      44.335 -18.627   2.475  1.00  0.00    -0.309 N 
HETATM   24  O   UNL     1      42.192 -18.017   3.116  1.00  0.00    -0.247 OA
HETATM   25  H   UNL     1      45.014 -18.412   1.758  1.00  0.00     0.170 HD
HETATM   26  H   UNL     1      44.499 -16.384   1.745  1.00  0.00     0.164 HD
BRANCH  23  27
HETATM   27  C   UNL     1      44.441 -19.916   3.043  1.00  0.00     0.036 A 
HETATM   28  C   UNL     1      44.236 -21.014   2.199  1.00  0.00     0.029 A 
HETATM   29  C   UNL     1      44.335 -22.317   2.692  1.00  0.00     0.002 A 
HETATM   30  C   UNL     1      44.658 -22.533   4.029  1.00  0.00     0.000 A 
HETATM   31  C   UNL     1      44.882 -21.446   4.871  1.00  0.00     0.002 A 
HETATM   32  C   UNL     1      44.773 -20.141   4.380  1.00  0.00     0.029 A 
ENDBRANCH  23  27
ENDBRANCH  20  21
ENDBRANCH   3  20
TORSDOF 7
ENDMDL
MODEL 8
REMARK VINA RESULT:      -7.1      3.642      7.341
REMARK  7 active torsions:
REMARK  status: ('A' for Active; 'I' for Inactive)
REMARK    1  A    between atoms: C_3  and  C_4 
REMARK    2  A    between atoms: C_4  and  N_5 
REMARK       I    between atoms: N_5  and  C_6 
REMARK    3  A    between atoms: C_6  and  C_7 
REMARK    4  A    between atoms: C_7  and  N_8 
REMARK    5  A    between atoms: C_10  and  C_11 
REMARK    6  A    between atoms: C_11  and  N_12 
REMARK       I    between atoms: N_12  and  C_13 
REMARK       I    between atoms: C_13  and  N_14 
REMARK    7  A    between atoms: N_14  and  C_15 
ROOT
HETATM    1  N   UNL     1      40.870 -16.172   4.136  1.00  0.00    -0.057 N 
HETATM    2  H   UNL     1      39.863 -15.988   4.330  1.00  0.00     0.281 HD
HETATM    3  C   UNL     1      41.472 -14.787   3.916  1.00  0.00     0.206 C 
HETATM    4  C   UNL     1      40.777 -14.124   2.714  1.00  0.00     0.035 C 
HETATM    5  C   UNL     1      40.821 -14.999   1.467  1.00  0.00     0.004 C 
HETATM    6  C   UNL     1      40.237 -16.376   1.750  1.00  0.00     0.028 C 
HETATM    7  C   UNL     1      40.946 -17.047   2.914  1.00  0.00     0.236 C 
ENDROOT
BRANCH   1   8
HETATM    8  C   UNL     1      41.330 -16.923   5.389  1.00  0.00     0.337 C 
BRANCH   8   9
HETATM    9  C   UNL     1      42.816 -17.292   5.442  1.00  0.00     0.243 C 
HETATM   10  N   UNL     1      43.098 -18.567   5.014  1.00  0.00    -0.355 N 
HETATM   11  H   UNL     1      42.393 -19.131   4.553  1.00  0.00     0.162 HD
HETATM   12  O   UNL     1      43.676 -16.514   5.847  1.00  0.00    -0.272 OA
BRANCH  10  13
HETATM   13  C   UNL     1      44.468 -19.021   4.869  1.00  0.00     0.169 C 
BRANCH  13  14
HETATM   14  C   UNL     1      44.484 -20.307   4.097  1.00  0.00     0.006 A 
HETATM   15  C   UNL     1      44.160 -20.523   2.763  1.00  0.00    -0.047 A 
HETATM   16  C   UNL     1      43.708 -19.473   1.800  1.00  0.00     0.049 C 
HETATM   17  C   UNL     1      44.302 -21.908   2.415  1.00  0.00     0.015 A 
HETATM   18  C   UNL     1      44.706 -22.686   3.474  1.00  0.00     0.051 A 
HETATM   19  S   UNL     1      44.904 -21.771   4.897  1.00  0.00    -0.104 SA
ENDBRANCH  13  14
ENDBRANCH  10  13
ENDBRANCH   8   9
ENDBRANCH   1   8
BRANCH   3  20
HETATM   20  C   UNL     1      41.401 -13.871   5.172  1.00  0.00     0.157 C 
BRANCH  20  21
HETATM   21  N   UNL     1      42.544 -13.796   6.082  1.00  0.00    -0.341 N 
HETATM   22  C   UNL     1      42.822 -12.806   6.991  1.00  0.00     0.320 C 
HETATM   23  N   UNL     1      43.827 -13.164   7.851  1.00  0.00    -0.309 N 
HETATM   24  O   UNL     1      42.201 -11.748   6.998  1.00  0.00    -0.247 OA
HETATM   25  H   UNL     1      44.008 -14.152   7.957  1.00  0.00     0.170 HD
HETATM   26  H   UNL     1      43.154 -14.604   6.101  1.00  0.00     0.164 HD
BRANCH  23  27
HETATM   27  C   UNL     1      44.457 -12.329   8.799  1.00  0.00     0.036 A 
HETATM   28  C   UNL     1      45.790 -11.972   8.564  1.00  0.00     0.029 A 
HETATM   29  C   UNL     1      46.471 -11.141   9.456  1.00  0.00     0.002 A 
HETATM   30  C   UNL     1      45.820 -10.646  10.583  1.00  0.00     0.000 A 
HETATM   31  C   UNL     1      44.488 -10.981  10.815  1.00  0.00     0.002 A 
HETATM   32  C   UNL     1      43.809 -11.821   9.927  1.00  0.00     0.029 A 
ENDBRANCH  23  27
ENDBRANCH  20  21
ENDBRANCH   3  20
TORSDOF 7
ENDMDL
MODEL 9
REMARK VINA RESULT:      -7.1      4.016      7.003
REMARK  7 active torsions:
REMARK  status: ('A' for Active; 'I' for Inactive)
REMARK    1  A    between atoms: C_3  and  C_4 
REMARK    2  A    between atoms: C_4  and  N_5 
REMARK       I    between atoms: N_5  and  C_6 
REMARK    3  A    between atoms: C_6  and  C_7 
REMARK    4  A    between atoms: C_7  and  N_8 
REMARK    5  A    between atoms: C_10  and  C_11 
REMARK    6  A    between atoms: C_11  and  N_12 
REMARK       I    between atoms: N_12  and  C_13 
REMARK       I    between atoms: C_13  and  N_14 
REMARK    7  A    between atoms: N_14  and  C_15 
ROOT
HETATM    1  N   UNL     1      41.194 -14.249  -2.282  1.00  0.00    -0.057 N 
HETATM    2  H   UNL     1      40.277 -13.756  -2.265  1.00  0.00     0.281 HD
HETATM    3  C   UNL     1      41.647 -14.254  -0.825  1.00  0.00     0.206 C 
HETATM    4  C   UNL     1      41.797 -12.800  -0.342  1.00  0.00     0.035 C 
HETATM    5  C   UNL     1      42.707 -11.981  -1.248  1.00  0.00     0.004 C 
HETATM    6  C   UNL     1      42.227 -12.035  -2.691  1.00  0.00     0.028 C 
HETATM    7  C   UNL     1      42.114 -13.469  -3.182  1.00  0.00     0.236 C 
ENDROOT
BRANCH   1   8
HETATM    8  C   UNL     1      40.842 -15.610  -2.889  1.00  0.00     0.337 C 
BRANCH   8   9
HETATM    9  C   UNL     1      39.499 -15.688  -3.623  1.00  0.00     0.243 C 
HETATM   10  N   UNL     1      38.454 -15.095  -2.956  1.00  0.00    -0.355 N 
HETATM   11  H   UNL     1      38.616 -14.520  -2.137  1.00  0.00     0.162 HD
HETATM   12  O   UNL     1      39.371 -16.248  -4.709  1.00  0.00    -0.272 OA
BRANCH  10  13
HETATM   13  C   UNL     1      37.150 -14.960  -3.578  1.00  0.00     0.169 C 
BRANCH  13  14
HETATM   14  C   UNL     1      36.911 -13.519  -3.918  1.00  0.00     0.006 A 
HETATM   15  C   UNL     1      36.044 -12.981  -4.861  1.00  0.00    -0.047 A 
HETATM   16  C   UNL     1      35.147 -13.769  -5.761  1.00  0.00     0.049 C 
HETATM   17  C   UNL     1      36.122 -11.549  -4.877  1.00  0.00     0.015 A 
HETATM   18  C   UNL     1      37.036 -11.054  -3.977  1.00  0.00     0.051 A 
HETATM   19  S   UNL     1      37.820 -12.297  -3.116  1.00  0.00    -0.104 SA
ENDBRANCH  13  14
ENDBRANCH  10  13
ENDBRANCH   8   9
ENDBRANCH   1   8
BRANCH   3  20
HETATM   20  C   UNL     1      40.705 -15.057   0.118  1.00  0.00     0.157 C 
BRANCH  20  21
HETATM   21  N   UNL     1      41.056 -16.424   0.503  1.00  0.00    -0.341 N 
HETATM   22  C   UNL     1      42.068 -16.820   1.340  1.00  0.00     0.320 C 
HETATM   23  N   UNL     1      41.967 -18.144   1.681  1.00  0.00    -0.309 N 
HETATM   24  O   UNL     1      42.931 -16.035   1.721  1.00  0.00    -0.247 OA
HETATM   25  H   UNL     1      41.056 -18.571   1.586  1.00  0.00     0.170 HD
HETATM   26  H   UNL     1      40.432 -17.153   0.180  1.00  0.00     0.164 HD
BRANCH  23  27
HETATM   27  C   UNL     1      42.919 -18.901   2.397  1.00  0.00     0.036 A 
HETATM   28  C   UNL     1      43.254 -18.469   3.686  1.00  0.00     0.029 A 
HETATM   29  C   UNL     1      44.182 -19.176   4.453  1.00  0.00     0.002 A 
HETATM   30  C   UNL     1      44.770 -20.332   3.945  1.00  0.00     0.000 A 
HETATM   31  C   UNL     1      44.429 -20.779   2.671  1.00  0.00     0.002 A 
HETATM   32  C   UNL     1      43.507 -20.066   1.898  1.00  0.00     0.029 A 
ENDBRANCH  23  27
ENDBRANCH  20  21
ENDBRANCH   3  20
TORSDOF 7
ENDMDL
MODEL 10
REMARK VINA RESULT:      -7.0      4.021      8.134
REMARK  7 active torsions:
REMARK  status: ('A' for Active; 'I' for Inactive)
REMARK    1  A    between atoms: C_3  and  C_4 
REMARK    2  A    between atoms: C_4  and  N_5 
REMARK       I    between atoms: N_5  and  C_6 
REMARK    3  A    between atoms: C_6  and  C_7 
REMARK    4  A    between atoms: C_7  and  N_8 
REMARK    5  A    between atoms: C_10  and  C_11 
REMARK    6  A    between atoms: C_11  and  N_12 
REMARK       I    between atoms: N_12  and  C_13 
REMARK       I    between atoms: C_13  and  N_14 
REMARK    7  A    between atoms: N_14  and  C_15 
ROOT
HETATM    1  N   UNL     1      40.670 -16.625   4.264  1.00  0.00    -0.057 N 
HETATM    2  H   UNL     1      39.688 -16.946   4.401  1.00  0.00     0.281 HD
HETATM    3  C   UNL     1      40.568 -15.104   4.217  1.00  0.00     0.206 C 
HETATM    4  C   UNL     1      39.671 -14.698   3.034  1.00  0.00     0.035 C 
HETATM    5  C   UNL     1      40.140 -15.307   1.717  1.00  0.00     0.004 C 
HETATM    6  C   UNL     1      40.253 -16.821   1.830  1.00  0.00     0.028 C 
HETATM    7  C   UNL     1      41.168 -17.222   2.975  1.00  0.00     0.236 C 
ENDROOT
BRANCH   1   8
HETATM    8  C   UNL     1      41.398 -17.221   5.472  1.00  0.00     0.337 C 
BRANCH   8   9
HETATM    9  C   UNL     1      42.899 -17.473   5.293  1.00  0.00     0.243 C 
HETATM   10  N   UNL     1      43.274 -18.787   5.441  1.00  0.00    -0.355 N 
HETATM   11  H   UNL     1      42.581 -19.525   5.496  1.00  0.00     0.162 HD
HETATM   12  O   UNL     1      43.696 -16.570   5.052  1.00  0.00    -0.272 OA
BRANCH  10  13
HETATM   13  C   UNL     1      44.633 -19.212   5.165  1.00  0.00     0.169 C 
BRANCH  13  14
HETATM   14  C   UNL     1      44.602 -20.454   4.325  1.00  0.00     0.006 A 
HETATM   15  C   UNL     1      44.343 -20.578   2.966  1.00  0.00    -0.047 A 
HETATM   16  C   UNL     1      44.026 -19.449   2.038  1.00  0.00     0.049 C 
HETATM   17  C   UNL     1      44.405 -21.950   2.551  1.00  0.00     0.015 A 
HETATM   18  C   UNL     1      44.687 -22.809   3.587  1.00  0.00     0.051 A 
HETATM   19  S   UNL     1      44.866 -21.985   5.066  1.00  0.00    -0.104 SA
ENDBRANCH  13  14
ENDBRANCH  10  13
ENDBRANCH   8   9
ENDBRANCH   1   8
BRANCH   3  20
HETATM   20  C   UNL     1      40.055 -14.472   5.544  1.00  0.00     0.157 C 
BRANCH  20  21
HETATM   21  N   UNL     1      40.743 -13.312   6.109  1.00  0.00    -0.341 N 
HETATM   22  C   UNL     1      40.172 -12.205   6.686  1.00  0.00     0.320 C 
HETATM   23  N   UNL     1      41.097 -11.426   7.332  1.00  0.00    -0.309 N 
HETATM   24  O   UNL     1      38.966 -11.993   6.615  1.00  0.00    -0.247 OA
HETATM   25  H   UNL     1      41.962 -11.874   7.602  1.00  0.00     0.170 HD
HETATM   26  H   UNL     1      41.753 -13.369   6.153  1.00  0.00     0.164 HD
BRANCH  23  27
HETATM   27  C   UNL     1      40.874 -10.151   7.894  1.00  0.00     0.036 A 
HETATM   28  C   UNL     1      41.292  -9.036   7.157  1.00  0.00     0.029 A 
HETATM   29  C   UNL     1      41.095  -7.744   7.650  1.00  0.00     0.002 A 
HETATM   30  C   UNL     1      40.461  -7.555   8.875  1.00  0.00     0.000 A 
HETATM   31  C   UNL     1      40.024  -8.658   9.605  1.00  0.00     0.002 A 
HETATM   32  C   UNL     1      40.231  -9.952   9.118  1.00  0.00     0.029 A 
ENDBRANCH  23  27
ENDBRANCH  20  21
ENDBRANCH   3  20
TORSDOF 7
ENDMDL
