MODEL 1
REMARK VINA RESULT:      -8.2      0.000      0.000
REMARK  3 active torsions:
REMARK  status: ('A' for Active; 'I' for Inactive)
REMARK    1  A    between atoms: C_9  and  C_10 
REMARK    2  A    between atoms: C_16  and  C_17 
REMARK       I    between atoms: C_17  and  N_18 
REMARK    3  A    between atoms: N_18  and  C_19 
ROOT
HETATM    1  C   UNL     1      41.333 -16.536   0.215  1.00  0.00     0.070 C 
HETATM    2  C   UNL     1      41.663 -15.746   1.458  1.00  0.00     0.037 C 
HETATM    3  N   UNL     1      40.956 -14.558   1.619  1.00  0.00    -0.191 N 
HETATM    4  C   UNL     1      41.292 -13.629   2.539  1.00  0.00     0.735 A 
HETATM    5  N   UNL     1      42.272 -13.910   3.450  1.00  0.00    -0.092 N 
HETATM    6  N   UNL     1      42.510 -12.837   4.220  1.00  0.00     0.012 NA
HETATM    7  N   UNL     1      41.635 -11.927   3.803  1.00  0.00     0.033 NA
HETATM    8  N   UNL     1      40.871 -12.406   2.756  1.00  0.00     0.030 NA
HETATM    9  C   UNL     1      42.992 -15.178   3.528  1.00  0.00     0.198 C 
HETATM   10  C   UNL     1      42.623 -16.084   2.356  1.00  0.00     0.062 C 
HETATM   11  H   UNL     1      40.305 -14.294   0.883  1.00  0.00     0.184 HD
ENDROOT
BRANCH  10  12
HETATM   12  C   UNL     1      43.485 -17.287   2.229  1.00  0.00     0.256 C 
HETATM   13  N   UNL     1      42.997 -18.387   2.899  1.00  0.00    -0.322 N 
HETATM   14  H   UNL     1      42.142 -18.269   3.429  1.00  0.00     0.169 HD
HETATM   15  O   UNL     1      44.535 -17.201   1.609  1.00  0.00    -0.267 OA
BRANCH  13  16
HETATM   16  C   UNL     1      43.570 -19.676   2.920  1.00  0.00     0.052 A 
HETATM   17  C   UNL     1      44.337 -20.198   3.958  1.00  0.00     0.145 A 
HETATM   18  N   UNL     1      44.894 -21.437   3.944  1.00  0.00    -0.271 NA
HETATM   19  C   UNL     1      44.681 -22.192   2.848  1.00  0.00     0.116 A 
HETATM   20  C   UNL     1      43.935 -21.768   1.763  1.00  0.00     0.021 A 
HETATM   21  C   UNL     1      43.370 -20.493   1.804  1.00  0.00     0.032 A 
ENDBRANCH  13  16
ENDBRANCH  10  12
BRANCH   9  22
HETATM   22  C   UNL     1      42.743 -15.863   4.871  1.00  0.00    -0.029 A 
HETATM   23  C   UNL     1      41.463 -16.282   5.274  1.00  0.00     0.009 A 
HETATM   24  C   UNL     1      41.276 -16.917   6.502  1.00  0.00     0.001 A 
HETATM   25  C   UNL     1      42.365 -17.160   7.337  1.00  0.00     0.000 A 
HETATM   26  C   UNL     1      43.642 -16.769   6.944  1.00  0.00     0.001 A 
HETATM   27  C   UNL     1      43.833 -16.128   5.720  1.00  0.00     0.009 A 
ENDBRANCH   9  22
TORSDOF 3
ENDMDL
MODEL 2
REMARK VINA RESULT:      -7.9      1.868      3.830
REMARK  3 active torsions:
REMARK  status: ('A' for Active; 'I' for Inactive)
REMARK    1  A    between atoms: C_9  and  C_10 
REMARK    2  A    between atoms: C_16  and  C_17 
REMARK       I    between atoms: C_17  and  N_18 
REMARK    3  A    between atoms: N_18  and  C_19 
ROOT
HETATM    1  C   UNL     1      44.341 -15.833   6.832  1.00  0.00     0.070 C 
HETATM    2  C   UNL     1      43.180 -15.291   6.034  1.00  0.00     0.037 C 
HETATM    3  N   UNL     1      42.915 -13.936   6.206  1.00  0.00    -0.191 N 
HETATM    4  C   UNL     1      41.784 -13.351   5.756  1.00  0.00     0.735 A 
HETATM    5  N   UNL     1      40.921 -14.070   4.977  1.00  0.00    -0.092 N 
HETATM    6  N   UNL     1      39.830 -13.341   4.700  1.00  0.00     0.012 NA
HETATM    7  N   UNL     1      40.061 -12.164   5.273  1.00  0.00     0.033 NA
HETATM    8  N   UNL     1      41.275 -12.156   5.936  1.00  0.00     0.030 NA
HETATM    9  C   UNL     1      41.138 -15.452   4.558  1.00  0.00     0.198 C 
HETATM   10  C   UNL     1      42.370 -16.039   5.243  1.00  0.00     0.062 C 
HETATM   11  H   UNL     1      43.489 -13.424   6.872  1.00  0.00     0.184 HD
ENDROOT
BRANCH  10  12
HETATM   12  C   UNL     1      42.521 -17.505   5.059  1.00  0.00     0.256 C 
HETATM   13  N   UNL     1      43.440 -17.847   4.091  1.00  0.00    -0.322 N 
HETATM   14  H   UNL     1      43.887 -17.093   3.585  1.00  0.00     0.169 HD
HETATM   15  O   UNL     1      41.818 -18.260   5.716  1.00  0.00    -0.267 OA
BRANCH  13  16
HETATM   16  C   UNL     1      43.828 -19.155   3.732  1.00  0.00     0.052 A 
HETATM   17  C   UNL     1      44.576 -20.019   4.526  1.00  0.00     0.145 A 
HETATM   18  N   UNL     1      44.953 -21.268   4.148  1.00  0.00    -0.271 NA
HETATM   19  C   UNL     1      44.571 -21.677   2.921  1.00  0.00     0.116 A 
HETATM   20  C   UNL     1      43.828 -20.897   2.054  1.00  0.00     0.021 A 
HETATM   21  C   UNL     1      43.450 -19.620   2.469  1.00  0.00     0.032 A 
ENDBRANCH  13  16
ENDBRANCH  10  12
BRANCH   9  22
HETATM   22  C   UNL     1      41.237 -15.551   3.037  1.00  0.00    -0.029 A 
HETATM   23  C   UNL     1      42.017 -14.663   2.276  1.00  0.00     0.009 A 
HETATM   24  C   UNL     1      42.094 -14.792   0.889  1.00  0.00     0.001 A 
HETATM   25  C   UNL     1      41.410 -15.819   0.243  1.00  0.00     0.000 A 
HETATM   26  C   UNL     1      40.648 -16.720   0.984  1.00  0.00     0.001 A 
HETATM   27  C   UNL     1      40.563 -16.591   2.370  1.00  0.00     0.009 A 
ENDBRANCH   9  22
TORSDOF 3
ENDMDL
MODEL 3
REMARK VINA RESULT:      -7.7      2.663      6.021
REMARK  3 active torsions:
REMARK  status: ('A' for Active; 'I' for Inactive)
REMARK    1  A    between atoms: C_9  and  C_10 
REMARK    2  A    between atoms: C_16  and  C_17 
REMARK       I    between atoms: C_17  and  N_18 
REMARK    3  A    between atoms: N_18  and  C_19 
ROOT
HETATM    1  C   UNL     1      39.771 -14.447   5.438  1.00  0.00     0.070 C 
HETATM    2  C   UNL     1      41.024 -15.286   5.420  1.00  0.00     0.037 C 
HETATM    3  N   UNL     1      41.251 -16.050   6.561  1.00  0.00    -0.191 N 
HETATM    4  C   UNL     1      42.427 -16.667   6.804  1.00  0.00     0.735 A 
HETATM    5  N   UNL     1      43.396 -16.669   5.839  1.00  0.00    -0.092 N 
HETATM    6  N   UNL     1      44.508 -17.260   6.301  1.00  0.00     0.012 NA
HETATM    7  N   UNL     1      44.190 -17.657   7.529  1.00  0.00     0.033 NA
HETATM    8  N   UNL     1      42.897 -17.293   7.856  1.00  0.00     0.030 NA
HETATM    9  C   UNL     1      43.251 -16.064   4.518  1.00  0.00     0.198 C 
HETATM   10  C   UNL     1      41.942 -15.283   4.421  1.00  0.00     0.062 C 
HETATM   11  H   UNL     1      40.587 -15.962   7.326  1.00  0.00     0.184 HD
ENDROOT
BRANCH  10  12
HETATM   12  C   UNL     1      41.831 -14.442   3.201  1.00  0.00     0.256 C 
HETATM   13  N   UNL     1      41.045 -15.000   2.217  1.00  0.00    -0.322 N 
HETATM   14  H   UNL     1      40.656 -15.918   2.395  1.00  0.00     0.169 HD
HETATM   15  O   UNL     1      42.455 -13.392   3.147  1.00  0.00    -0.267 OA
BRANCH  13  16
HETATM   16  C   UNL     1      40.718 -14.416   0.975  1.00  0.00     0.052 A 
HETATM   17  C   UNL     1      39.658 -13.541   0.752  1.00  0.00     0.145 A 
HETATM   18  N   UNL     1      39.355 -13.007  -0.460  1.00  0.00    -0.271 NA
HETATM   19  C   UNL     1      40.139 -13.359  -1.498  1.00  0.00     0.116 A 
HETATM   20  C   UNL     1      41.216 -14.220  -1.383  1.00  0.00     0.021 A 
HETATM   21  C   UNL     1      41.509 -14.750  -0.127  1.00  0.00     0.032 A 
ENDBRANCH  13  16
ENDBRANCH  10  12
BRANCH   9  22
HETATM   22  C   UNL     1      43.363 -17.119   3.420  1.00  0.00    -0.029 A 
HETATM   23  C   UNL     1      42.820 -18.408   3.561  1.00  0.00     0.009 A 
HETATM   24  C   UNL     1      42.930 -19.342   2.530  1.00  0.00     0.001 A 
HETATM   25  C   UNL     1      43.565 -18.999   1.339  1.00  0.00     0.000 A 
HETATM   26  C   UNL     1      44.091 -17.720   1.176  1.00  0.00     0.001 A 
HETATM   27  C   UNL     1      43.989 -16.784   2.206  1.00  0.00     0.009 A 
ENDBRANCH   9  22
TORSDOF 3
ENDMDL
MODEL 4
REMARK VINA RESULT:      -7.5      2.632      5.634
REMARK  3 active torsions:
REMARK  status: ('A' for Active; 'I' for Inactive)
REMARK    1  A    between atoms: C_9  and  C_10 
REMARK    2  A    between atoms: C_16  and  C_17 
REMARK       I    between atoms: C_17  and  N_18 
REMARK    3  A    between atoms: N_18  and  C_19 
ROOT
HETATM    1  C   UNL     1      43.575 -18.509   1.741  1.00  0.00     0.070 C 
HETATM    2  C   UNL     1      43.125 -17.949   3.068  1.00  0.00     0.037 C 
HETATM    3  N   UNL     1      43.890 -18.323   4.168  1.00  0.00    -0.191 N 
HETATM    4  C   UNL     1      43.494 -18.106   5.441  1.00  0.00     0.735 A 
HETATM    5  N   UNL     1      42.369 -17.367   5.676  1.00  0.00    -0.092 N 
HETATM    6  N   UNL     1      42.102 -17.333   6.990  1.00  0.00     0.012 NA
HETATM    7  N   UNL     1      43.099 -18.013   7.550  1.00  0.00     0.033 NA
HETATM    8  N   UNL     1      43.973 -18.502   6.596  1.00  0.00     0.030 NA
HETATM    9  C   UNL     1      41.548 -16.752   4.635  1.00  0.00     0.198 C 
HETATM   10  C   UNL     1      42.017 -17.186   3.249  1.00  0.00     0.062 C 
HETATM   11  H   UNL     1      44.663 -18.965   4.008  1.00  0.00     0.184 HD
ENDROOT
BRANCH  10  12
HETATM   12  C   UNL     1      41.092 -16.801   2.152  1.00  0.00     0.256 C 
HETATM   13  N   UNL     1      41.571 -15.781   1.361  1.00  0.00    -0.322 N 
HETATM   14  H   UNL     1      42.464 -15.375   1.612  1.00  0.00     0.169 HD
HETATM   15  O   UNL     1      40.008 -17.360   2.067  1.00  0.00    -0.267 OA
BRANCH  13  16
HETATM   16  C   UNL     1      40.940 -15.239   0.221  1.00  0.00     0.052 A 
HETATM   17  C   UNL     1      39.959 -14.252   0.238  1.00  0.00     0.145 A 
HETATM   18  N   UNL     1      39.353 -13.761  -0.874  1.00  0.00    -0.271 NA
HETATM   19  C   UNL     1      39.737 -14.277  -2.059  1.00  0.00     0.116 A 
HETATM   20  C   UNL     1      40.702 -15.260  -2.186  1.00  0.00     0.021 A 
HETATM   21  C   UNL     1      41.312 -15.743  -1.028  1.00  0.00     0.032 A 
ENDBRANCH  13  16
ENDBRANCH  10  12
BRANCH   9  22
HETATM   22  C   UNL     1      41.536 -15.232   4.778  1.00  0.00    -0.029 A 
HETATM   23  C   UNL     1      40.387 -14.524   5.172  1.00  0.00     0.009 A 
HETATM   24  C   UNL     1      40.417 -13.136   5.306  1.00  0.00     0.001 A 
HETATM   25  C   UNL     1      41.597 -12.435   5.066  1.00  0.00     0.000 A 
HETATM   26  C   UNL     1      42.750 -13.123   4.694  1.00  0.00     0.001 A 
HETATM   27  C   UNL     1      42.723 -14.511   4.553  1.00  0.00     0.009 A 
ENDBRANCH   9  22
TORSDOF 3
ENDMDL
MODEL 5
REMARK VINA RESULT:      -7.5      2.726      5.928
REMARK  3 active torsions:
REMARK  status: ('A' for Active; 'I' for Inactive)
REMARK    1  A    between atoms: C_9  and  C_10 
REMARK    2  A    between atoms: C_16  and  C_17 
REMARK       I    between atoms: C_17  and  N_18 
REMARK    3  A    between atoms: N_18  and  C_19 
ROOT
HETATM    1  C   UNL     1      43.566 -18.017   1.414  1.00  0.00     0.070 C 
HETATM    2  C   UNL     1      43.242 -17.688   2.850  1.00  0.00     0.037 C 
HETATM    3  N   UNL     1      44.205 -18.059   3.783  1.00  0.00    -0.191 N 
HETATM    4  C   UNL     1      43.974 -18.051   5.113  1.00  0.00     0.735 A 
HETATM    5  N   UNL     1      42.803 -17.528   5.587  1.00  0.00    -0.092 N 
HETATM    6  N   UNL     1      42.731 -17.685   6.918  1.00  0.00     0.012 NA
HETATM    7  N   UNL     1      43.884 -18.259   7.249  1.00  0.00     0.033 NA
HETATM    8  N   UNL     1      44.667 -18.494   6.134  1.00  0.00     0.030 NA
HETATM    9  C   UNL     1      41.761 -16.937   4.752  1.00  0.00     0.198 C 
HETATM   10  C   UNL     1      42.077 -17.133   3.272  1.00  0.00     0.062 C 
HETATM   11  H   UNL     1      45.028 -18.549   3.441  1.00  0.00     0.184 HD
ENDROOT
BRANCH  10  12
HETATM   12  C   UNL     1      40.957 -16.777   2.363  1.00  0.00     0.256 C 
HETATM   13  N   UNL     1      40.970 -15.459   1.964  1.00  0.00    -0.322 N 
HETATM   14  H   UNL     1      41.697 -14.864   2.341  1.00  0.00     0.169 HD
HETATM   15  O   UNL     1      40.121 -17.628   2.091  1.00  0.00    -0.267 OA
BRANCH  13  16
HETATM   16  C   UNL     1      40.066 -14.847   1.069  1.00  0.00     0.052 A 
HETATM   17  C   UNL     1      40.344 -14.518  -0.255  1.00  0.00     0.145 A 
HETATM   18  N   UNL     1      39.460 -13.912  -1.090  1.00  0.00    -0.271 NA
HETATM   19  C   UNL     1      38.246 -13.616  -0.585  1.00  0.00     0.116 A 
HETATM   20  C   UNL     1      37.870 -13.900   0.715  1.00  0.00     0.021 A 
HETATM   21  C   UNL     1      38.794 -14.528   1.550  1.00  0.00     0.032 A 
ENDBRANCH  13  16
ENDBRANCH  10  12
BRANCH   9  22
HETATM   22  C   UNL     1      41.559 -15.462   5.096  1.00  0.00    -0.029 A 
HETATM   23  C   UNL     1      42.593 -14.517   4.982  1.00  0.00     0.009 A 
HETATM   24  C   UNL     1      42.367 -13.175   5.291  1.00  0.00     0.001 A 
HETATM   25  C   UNL     1      41.104 -12.754   5.702  1.00  0.00     0.000 A 
HETATM   26  C   UNL     1      40.064 -13.675   5.802  1.00  0.00     0.001 A 
HETATM   27  C   UNL     1      40.286 -15.019   5.499  1.00  0.00     0.009 A 
ENDBRANCH   9  22
TORSDOF 3
ENDMDL
MODEL 6
REMARK VINA RESULT:      -7.2      2.032      4.124
REMARK  3 active torsions:
REMARK  status: ('A' for Active; 'I' for Inactive)
REMARK    1  A    between atoms: C_9  and  C_10 
REMARK    2  A    between atoms: C_16  and  C_17 
REMARK       I    between atoms: C_17  and  N_18 
REMARK    3  A    between atoms: N_18  and  C_19 
ROOT
HETATM    1  C   UNL     1      44.400 -14.423   6.218  1.00  0.00     0.070 C 
HETATM    2  C   UNL     1      43.051 -14.139   5.606  1.00  0.00     0.037 C 
HETATM    3  N   UNL     1      42.293 -13.165   6.248  1.00  0.00    -0.191 N 
HETATM    4  C   UNL     1      40.987 -12.958   5.976  1.00  0.00     0.735 A 
HETATM    5  N   UNL     1      40.405 -13.626   4.935  1.00  0.00    -0.092 N 
HETATM    6  N   UNL     1      39.094 -13.346   4.879  1.00  0.00     0.012 NA
HETATM    7  N   UNL     1      38.899 -12.469   5.860  1.00  0.00     0.033 NA
HETATM    8  N   UNL     1      40.069 -12.220   6.552  1.00  0.00     0.030 NA
HETATM    9  C   UNL     1      41.106 -14.553   4.050  1.00  0.00     0.198 C 
HETATM   10  C   UNL     1      42.527 -14.805   4.545  1.00  0.00     0.062 C 
HETATM   11  H   UNL     1      42.681 -12.746   7.091  1.00  0.00     0.184 HD
ENDROOT
BRANCH  10  12
HETATM   12  C   UNL     1      43.223 -15.915   3.843  1.00  0.00     0.256 C 
HETATM   13  N   UNL     1      42.966 -17.155   4.384  1.00  0.00    -0.322 N 
HETATM   14  H   UNL     1      42.375 -17.193   5.205  1.00  0.00     0.169 HD
HETATM   15  O   UNL     1      43.971 -15.650   2.913  1.00  0.00    -0.267 OA
BRANCH  13  16
HETATM   16  C   UNL     1      43.444 -18.392   3.903  1.00  0.00     0.052 A 
HETATM   17  C   UNL     1      44.342 -19.222   4.569  1.00  0.00     0.145 A 
HETATM   18  N   UNL     1      44.802 -20.400   4.074  1.00  0.00    -0.271 NA
HETATM   19  C   UNL     1      44.350 -20.771   2.859  1.00  0.00     0.116 A 
HETATM   20  C   UNL     1      43.458 -20.021   2.115  1.00  0.00     0.021 A 
HETATM   21  C   UNL     1      42.998 -18.817   2.648  1.00  0.00     0.032 A 
ENDBRANCH  13  16
ENDBRANCH  10  12
BRANCH   9  22
HETATM   22  C   UNL     1      41.091 -14.047   2.609  1.00  0.00    -0.029 A 
HETATM   23  C   UNL     1      40.396 -14.716   1.586  1.00  0.00     0.009 A 
HETATM   24  C   UNL     1      40.392 -14.216   0.284  1.00  0.00     0.001 A 
HETATM   25  C   UNL     1      41.067 -13.034  -0.014  1.00  0.00     0.000 A 
HETATM   26  C   UNL     1      41.744 -12.348   0.991  1.00  0.00     0.001 A 
HETATM   27  C   UNL     1      41.755 -12.847   2.294  1.00  0.00     0.009 A 
ENDBRANCH   9  22
TORSDOF 3
ENDMDL
MODEL 7
REMARK VINA RESULT:      -7.1      3.096      5.697
REMARK  3 active torsions:
REMARK  status: ('A' for Active; 'I' for Inactive)
REMARK    1  A    between atoms: C_9  and  C_10 
REMARK    2  A    between atoms: C_16  and  C_17 
REMARK       I    between atoms: C_17  and  N_18 
REMARK    3  A    between atoms: N_18  and  C_19 
ROOT
HETATM    1  C   UNL     1      39.591 -11.904   2.527  1.00  0.00     0.070 C 
HETATM    2  C   UNL     1      40.778 -12.670   3.057  1.00  0.00     0.037 C 
HETATM    3  N   UNL     1      40.968 -12.605   4.434  1.00  0.00    -0.191 N 
HETATM    4  C   UNL     1      42.099 -13.031   5.035  1.00  0.00     0.735 A 
HETATM    5  N   UNL     1      43.046 -13.684   4.297  1.00  0.00    -0.092 N 
HETATM    6  N   UNL     1      44.120 -13.954   5.054  1.00  0.00     0.012 NA
HETATM    7  N   UNL     1      43.796 -13.506   6.263  1.00  0.00     0.033 NA
HETATM    8  N   UNL     1      42.541 -12.927   6.266  1.00  0.00     0.030 NA
HETATM    9  C   UNL     1      42.922 -13.990   2.874  1.00  0.00     0.198 C 
HETATM   10  C   UNL     1      41.674 -13.336   2.286  1.00  0.00     0.062 C 
HETATM   11  H   UNL     1      40.327 -12.026   4.971  1.00  0.00     0.184 HD
ENDROOT
BRANCH  10  12
HETATM   12  C   UNL     1      41.603 -13.396   0.803  1.00  0.00     0.256 C 
HETATM   13  N   UNL     1      40.639 -14.261   0.333  1.00  0.00    -0.322 N 
HETATM   14  H   UNL     1      40.109 -14.786   1.017  1.00  0.00     0.169 HD
HETATM   15  O   UNL     1      42.399 -12.741   0.145  1.00  0.00    -0.267 OA
BRANCH  13  16
HETATM   16  C   UNL     1      40.309 -14.489  -1.020  1.00  0.00     0.052 A 
HETATM   17  C   UNL     1      39.305 -13.831  -1.725  1.00  0.00     0.145 A 
HETATM   18  N   UNL     1      38.995 -14.084  -3.023  1.00  0.00    -0.271 NA
HETATM   19  C   UNL     1      39.714 -15.036  -3.649  1.00  0.00     0.116 A 
HETATM   20  C   UNL     1      40.732 -15.748  -3.041  1.00  0.00     0.021 A 
HETATM   21  C   UNL     1      41.034 -15.466  -1.709  1.00  0.00     0.032 A 
ENDBRANCH  13  16
ENDBRANCH  10  12
BRANCH   9  22
HETATM   22  C   UNL     1      42.934 -15.499   2.638  1.00  0.00    -0.029 A 
HETATM   23  C   UNL     1      43.937 -16.132   1.882  1.00  0.00     0.009 A 
HETATM   24  C   UNL     1      43.924 -17.515   1.699  1.00  0.00     0.001 A 
HETATM   25  C   UNL     1      42.922 -18.288   2.281  1.00  0.00     0.000 A 
HETATM   26  C   UNL     1      41.932 -17.679   3.049  1.00  0.00     0.001 A 
HETATM   27  C   UNL     1      41.938 -16.296   3.229  1.00  0.00     0.009 A 
ENDBRANCH   9  22
TORSDOF 3
ENDMDL
MODEL 8
REMARK VINA RESULT:      -7.1      2.486      5.818
REMARK  3 active torsions:
REMARK  status: ('A' for Active; 'I' for Inactive)
REMARK    1  A    between atoms: C_9  and  C_10 
REMARK    2  A    between atoms: C_16  and  C_17 
REMARK       I    between atoms: C_17  and  N_18 
REMARK    3  A    between atoms: N_18  and  C_19 
ROOT
HETATM    1  C   UNL     1      44.215 -18.167   1.698  1.00  0.00     0.070 C 
HETATM    2  C   UNL     1      43.872 -17.966   3.154  1.00  0.00     0.037 C 
HETATM    3  N   UNL     1      44.360 -18.936   4.024  1.00  0.00    -0.191 N 
HETATM    4  C   UNL     1      43.954 -19.035   5.308  1.00  0.00     0.735 A 
HETATM    5  N   UNL     1      43.140 -18.070   5.830  1.00  0.00    -0.092 N 
HETATM    6  N   UNL     1      42.787 -18.389   7.085  1.00  0.00     0.012 NA
HETATM    7  N   UNL     1      43.433 -19.525   7.333  1.00  0.00     0.033 NA
HETATM    8  N   UNL     1      44.162 -19.940   6.234  1.00  0.00     0.030 NA
HETATM    9  C   UNL     1      42.679 -16.891   5.102  1.00  0.00     0.198 C 
HETATM   10  C   UNL     1      43.087 -16.968   3.633  1.00  0.00     0.062 C 
HETATM   11  H   UNL     1      44.873 -19.716   3.620  1.00  0.00     0.184 HD
ENDROOT
BRANCH  10  12
HETATM   12  C   UNL     1      42.454 -15.933   2.775  1.00  0.00     0.256 C 
HETATM   13  N   UNL     1      41.216 -16.299   2.295  1.00  0.00    -0.322 N 
HETATM   14  H   UNL     1      40.877 -17.223   2.531  1.00  0.00     0.169 HD
HETATM   15  O   UNL     1      43.070 -14.905   2.535  1.00  0.00    -0.267 OA
BRANCH  13  16
HETATM   16  C   UNL     1      40.360 -15.507   1.500  1.00  0.00     0.052 A 
HETATM   17  C   UNL     1      40.668 -15.009   0.237  1.00  0.00     0.145 A 
HETATM   18  N   UNL     1      39.832 -14.232  -0.501  1.00  0.00    -0.271 NA
HETATM   19  C   UNL     1      38.636 -13.933   0.044  1.00  0.00     0.116 A 
HETATM   20  C   UNL     1      38.232 -14.377   1.290  1.00  0.00     0.021 A 
HETATM   21  C   UNL     1      39.108 -15.177   2.024  1.00  0.00     0.032 A 
ENDBRANCH  13  16
ENDBRANCH  10  12
BRANCH   9  22
HETATM   22  C   UNL     1      43.184 -15.609   5.762  1.00  0.00    -0.029 A 
HETATM   23  C   UNL     1      44.462 -15.517   6.339  1.00  0.00     0.009 A 
HETATM   24  C   UNL     1      44.896 -14.325   6.921  1.00  0.00     0.001 A 
HETATM   25  C   UNL     1      44.068 -13.205   6.921  1.00  0.00     0.000 A 
HETATM   26  C   UNL     1      42.806 -13.274   6.336  1.00  0.00     0.001 A 
HETATM   27  C   UNL     1      42.366 -14.465   5.758  1.00  0.00     0.009 A 
ENDBRANCH   9  22
TORSDOF 3
ENDMDL
MODEL 9
REMARK VINA RESULT:      -7.1      2.938      5.018
REMARK  3 active torsions:
REMARK  status: ('A' for Active; 'I' for Inactive)
REMARK    1  A    between atoms: C_9  and  C_10 
REMARK    2  A    between atoms: C_16  and  C_17 
REMARK       I    between atoms: C_17  and  N_18 
REMARK    3  A    between atoms: N_18  and  C_19 
ROOT
HETATM    1  C   UNL     1      41.376 -11.815   5.193  1.00  0.00     0.070 C 
HETATM    2  C   UNL     1      42.432 -12.488   6.034  1.00  0.00     0.037 C 
HETATM    3  N   UNL     1      42.577 -11.992   7.327  1.00  0.00    -0.191 N 
HETATM    4  C   UNL     1      43.619 -12.317   8.121  1.00  0.00     0.735 A 
HETATM    5  N   UNL     1      44.502 -13.276   7.710  1.00  0.00    -0.092 N 
HETATM    6  N   UNL     1      45.502 -13.396   8.596  1.00  0.00     0.012 NA
HETATM    7  N   UNL     1      45.192 -12.540   9.566  1.00  0.00     0.033 NA
HETATM    8  N   UNL     1      44.022 -11.860   9.282  1.00  0.00     0.030 NA
HETATM    9  C   UNL     1      44.394 -14.020   6.457  1.00  0.00     0.198 C 
HETATM   10  C   UNL     1      43.264 -13.465   5.593  1.00  0.00     0.062 C 
HETATM   11  H   UNL     1      41.995 -11.202   7.596  1.00  0.00     0.184 HD
ENDROOT
BRANCH  10  12
HETATM   12  C   UNL     1      43.244 -14.004   4.209  1.00  0.00     0.256 C 
HETATM   13  N   UNL     1      42.246 -14.930   3.994  1.00  0.00    -0.322 N 
HETATM   14  H   UNL     1      41.661 -15.177   4.782  1.00  0.00     0.169 HD
HETATM   15  O   UNL     1      44.101 -13.639   3.418  1.00  0.00    -0.267 OA
BRANCH  13  16
HETATM   16  C   UNL     1      41.952 -15.573   2.773  1.00  0.00     0.052 A 
HETATM   17  C   UNL     1      41.226 -15.015   1.724  1.00  0.00     0.145 A 
HETATM   18  N   UNL     1      40.941 -15.664   0.565  1.00  0.00    -0.271 NA
HETATM   19  C   UNL     1      41.395 -16.927   0.444  1.00  0.00     0.116 A 
HETATM   20  C   UNL     1      42.124 -17.574   1.425  1.00  0.00     0.021 A 
HETATM   21  C   UNL     1      42.408 -16.883   2.603  1.00  0.00     0.032 A 
ENDBRANCH  13  16
ENDBRANCH  10  12
BRANCH   9  22
HETATM   22  C   UNL     1      44.221 -15.514   6.724  1.00  0.00    -0.029 A 
HETATM   23  C   UNL     1      45.185 -16.462   6.337  1.00  0.00     0.009 A 
HETATM   24  C   UNL     1      44.999 -17.817   6.611  1.00  0.00     0.001 A 
HETATM   25  C   UNL     1      43.859 -18.245   7.288  1.00  0.00     0.000 A 
HETATM   26  C   UNL     1      42.904 -17.317   7.695  1.00  0.00     0.001 A 
HETATM   27  C   UNL     1      43.082 -15.961   7.419  1.00  0.00     0.009 A 
ENDBRANCH   9  22
TORSDOF 3
ENDMDL
MODEL 10
REMARK VINA RESULT:      -6.9      2.773      4.249
REMARK  3 active torsions:
REMARK  status: ('A' for Active; 'I' for Inactive)
REMARK    1  A    between atoms: C_9  and  C_10 
REMARK    2  A    between atoms: C_16  and  C_17 
REMARK       I    between atoms: C_17  and  N_18 
REMARK    3  A    between atoms: N_18  and  C_19 
ROOT
HETATM    1  C   UNL     1      40.964 -15.870  -2.164  1.00  0.00     0.070 C 
HETATM    2  C   UNL     1      41.310 -14.613  -1.406  1.00  0.00     0.037 C 
HETATM    3  N   UNL     1      41.375 -13.450  -2.168  1.00  0.00    -0.191 N 
HETATM    4  C   UNL     1      41.894 -12.296  -1.698  1.00  0.00     0.735 A 
HETATM    5  N   UNL     1      42.245 -12.208  -0.380  1.00  0.00    -0.092 N 
HETATM    6  N   UNL     1      42.811 -11.017  -0.129  1.00  0.00     0.012 NA
HETATM    7  N   UNL     1      42.753 -10.370  -1.290  1.00  0.00     0.033 NA
HETATM    8  N   UNL     1      42.185 -11.156  -2.276  1.00  0.00     0.030 NA
HETATM    9  C   UNL     1      42.078 -13.281   0.597  1.00  0.00     0.198 C 
HETATM   10  C   UNL     1      41.618 -14.567  -0.085  1.00  0.00     0.062 C 
HETATM   11  H   UNL     1      41.222 -13.535  -3.171  1.00  0.00     0.184 HD
ENDROOT
BRANCH  10  12
HETATM   12  C   UNL     1      41.656 -15.763   0.796  1.00  0.00     0.256 C 
HETATM   13  N   UNL     1      42.932 -16.199   1.077  1.00  0.00    -0.322 N 
HETATM   14  H   UNL     1      43.700 -15.703   0.643  1.00  0.00     0.169 HD
HETATM   15  O   UNL     1      40.602 -16.273   1.148  1.00  0.00    -0.267 OA
BRANCH  13  16
HETATM   16  C   UNL     1      43.280 -17.276   1.919  1.00  0.00     0.052 A 
HETATM   17  C   UNL     1      43.594 -17.170   3.271  1.00  0.00     0.145 A 
HETATM   18  N   UNL     1      43.945 -18.222   4.056  1.00  0.00    -0.271 NA
HETATM   19  C   UNL     1      43.990 -19.434   3.470  1.00  0.00     0.116 A 
HETATM   20  C   UNL     1      43.698 -19.648   2.135  1.00  0.00     0.021 A 
HETATM   21  C   UNL     1      43.335 -18.552   1.352  1.00  0.00     0.032 A 
ENDBRANCH  13  16
ENDBRANCH  10  12
BRANCH   9  22
HETATM   22  C   UNL     1      41.123 -12.859   1.712  1.00  0.00    -0.029 A 
HETATM   23  C   UNL     1      39.762 -12.598   1.475  1.00  0.00     0.009 A 
HETATM   24  C   UNL     1      38.915 -12.229   2.521  1.00  0.00     0.001 A 
HETATM   25  C   UNL     1      39.410 -12.130   3.819  1.00  0.00     0.000 A 
HETATM   26  C   UNL     1      40.751 -12.404   4.075  1.00  0.00     0.001 A 
HETATM   27  C   UNL     1      41.603 -12.768   3.031  1.00  0.00     0.009 A 
ENDBRANCH   9  22
TORSDOF 3
ENDMDL
