MODEL 1
REMARK VINA RESULT:      -8.7      0.000      0.000
REMARK  3 active torsions:
REMARK  status: ('A' for Active; 'I' for Inactive)
REMARK    1  A    between atoms: C_7  and  C_8 
REMARK       I    between atoms: C_8  and  N_9 
REMARK    2  A    between atoms: N_9  and  C_10 
REMARK    3  A    between atoms: C_11  and  O_12 
ROOT
HETATM    1  C   UNL     1      41.265 -15.508   0.498  1.00  0.00     0.252 C 
HETATM    2  N   UNL     1      41.900 -14.979  -0.601  1.00  0.00    -0.346 N 
HETATM    3  O   UNL     1      40.112 -15.215   0.798  1.00  0.00    -0.268 OA
HETATM    4  H   UNL     1      42.876 -15.183  -0.771  1.00  0.00     0.163 HD
ENDROOT
BRANCH   1   5
HETATM    5  C   UNL     1      42.062 -16.439   1.336  1.00  0.00     0.033 A 
HETATM    6  C   UNL     1      43.101 -17.147   0.728  1.00  0.00     0.019 A 
HETATM    7  C   UNL     1      43.868 -18.060   1.455  1.00  0.00     0.031 A 
HETATM    8  C   UNL     1      43.565 -18.225   2.812  1.00  0.00     0.043 A 
HETATM    9  C   UNL     1      42.553 -17.517   3.457  1.00  0.00    -0.001 A 
HETATM   10  N   UNL     1      44.147 -19.044   3.750  1.00  0.00    -0.359 N 
HETATM   11  C   UNL     1      42.554 -17.923   4.831  1.00  0.00    -0.027 A 
HETATM   12  C   UNL     1      41.786 -16.603   2.703  1.00  0.00     0.031 A 
HETATM   13  C   UNL     1      41.660 -17.424   5.913  1.00  0.00     0.051 C 
HETATM   14  C   UNL     1      43.548 -18.877   4.974  1.00  0.00     0.012 A 
HETATM   15  C   UNL     1      43.988 -19.644   6.168  1.00  0.00     0.068 C 
HETATM   16  H   UNL     1      44.913 -19.674   3.559  1.00  0.00     0.166 HD
ENDBRANCH   1   5
BRANCH   2  17
HETATM   17  C   UNL     1      41.274 -13.942  -1.397  1.00  0.00     0.147 C 
HETATM   18  C   UNL     1      41.698 -13.922  -2.901  1.00  0.00     0.149 C 
HETATM   19  C   UNL     1      42.873 -12.931  -3.010  1.00  0.00     0.073 C 
HETATM   20  C   UNL     1      42.622 -12.016  -1.853  1.00  0.00    -0.047 A 
HETATM   21  C   UNL     1      41.725 -12.584  -0.942  1.00  0.00    -0.027 A 
HETATM   22  C   UNL     1      43.194 -10.777  -1.611  1.00  0.00     0.008 A 
HETATM   23  C   UNL     1      41.380 -11.922   0.227  1.00  0.00     0.010 A 
HETATM   24  C   UNL     1      41.944 -10.670   0.473  1.00  0.00     0.001 A 
HETATM   25  C   UNL     1      42.844 -10.101  -0.441  1.00  0.00     0.001 A 
BRANCH  18  26
HETATM   26  O   UNL     1      42.068 -15.191  -3.433  1.00  0.00    -0.393 OA
HETATM   27  H   UNL     1      41.323 -15.483  -4.000  1.00  0.00     0.210 HD
ENDBRANCH  18  26
ENDBRANCH   2  17
TORSDOF 3
ENDMDL
MODEL 2
REMARK VINA RESULT:      -8.5      2.452      3.677
REMARK  3 active torsions:
REMARK  status: ('A' for Active; 'I' for Inactive)
REMARK    1  A    between atoms: C_7  and  C_8 
REMARK       I    between atoms: C_8  and  N_9 
REMARK    2  A    between atoms: N_9  and  C_10 
REMARK    3  A    between atoms: C_11  and  O_12 
ROOT
HETATM    1  C   UNL     1      42.815 -15.623   2.559  1.00  0.00     0.252 C 
HETATM    2  N   UNL     1      41.561 -15.474   2.016  1.00  0.00    -0.346 N 
HETATM    3  O   UNL     1      43.502 -14.667   2.907  1.00  0.00    -0.268 OA
HETATM    4  H   UNL     1      41.058 -16.280   1.669  1.00  0.00     0.163 HD
ENDROOT
BRANCH   1   5
HETATM    5  C   UNL     1      43.323 -17.013   2.677  1.00  0.00     0.033 A 
HETATM    6  C   UNL     1      43.590 -17.718   1.501  1.00  0.00     0.019 A 
HETATM    7  C   UNL     1      44.040 -19.040   1.544  1.00  0.00     0.031 A 
HETATM    8  C   UNL     1      44.226 -19.620   2.804  1.00  0.00     0.043 A 
HETATM    9  C   UNL     1      43.994 -18.938   3.997  1.00  0.00    -0.001 A 
HETATM   10  N   UNL     1      44.652 -20.884   3.137  1.00  0.00    -0.359 N 
HETATM   11  C   UNL     1      44.314 -19.832   5.071  1.00  0.00    -0.027 A 
HETATM   12  C   UNL     1      43.534 -17.605   3.932  1.00  0.00     0.031 A 
HETATM   13  C   UNL     1      44.240 -19.541   6.529  1.00  0.00     0.051 C 
HETATM   14  C   UNL     1      44.709 -21.031   4.500  1.00  0.00     0.012 A 
HETATM   15  C   UNL     1      45.141 -22.305   5.129  1.00  0.00     0.068 C 
HETATM   16  H   UNL     1      44.894 -21.598   2.465  1.00  0.00     0.166 HD
ENDBRANCH   1   5
BRANCH   2  17
HETATM   17  C   UNL     1      41.033 -14.159   1.709  1.00  0.00     0.147 C 
HETATM   18  C   UNL     1      39.630 -13.854   2.327  1.00  0.00     0.149 C 
HETATM   19  C   UNL     1      38.589 -14.234   1.255  1.00  0.00     0.073 C 
HETATM   20  C   UNL     1      39.369 -14.077  -0.012  1.00  0.00    -0.047 A 
HETATM   21  C   UNL     1      40.744 -14.037   0.240  1.00  0.00    -0.027 A 
HETATM   22  C   UNL     1      38.880 -14.018  -1.307  1.00  0.00     0.008 A 
HETATM   23  C   UNL     1      41.658 -13.934  -0.798  1.00  0.00     0.010 A 
HETATM   24  C   UNL     1      41.173 -13.865  -2.105  1.00  0.00     0.001 A 
HETATM   25  C   UNL     1      39.793 -13.905  -2.357  1.00  0.00     0.001 A 
BRANCH  18  26
HETATM   26  O   UNL     1      39.355 -14.533   3.548  1.00  0.00    -0.393 OA
HETATM   27  H   UNL     1      38.539 -14.131   3.913  1.00  0.00     0.210 HD
ENDBRANCH  18  26
ENDBRANCH   2  17
TORSDOF 3
ENDMDL
MODEL 3
REMARK VINA RESULT:      -8.4      1.336      2.100
REMARK  3 active torsions:
REMARK  status: ('A' for Active; 'I' for Inactive)
REMARK    1  A    between atoms: C_7  and  C_8 
REMARK       I    between atoms: C_8  and  N_9 
REMARK    2  A    between atoms: N_9  and  C_10 
REMARK    3  A    between atoms: C_11  and  O_12 
ROOT
HETATM    1  C   UNL     1      40.818 -15.692   1.303  1.00  0.00     0.252 C 
HETATM    2  N   UNL     1      41.359 -15.272   0.112  1.00  0.00    -0.346 N 
HETATM    3  O   UNL     1      39.661 -15.442   1.628  1.00  0.00    -0.268 OA
HETATM    4  H   UNL     1      42.338 -15.428  -0.086  1.00  0.00     0.163 HD
ENDROOT
BRANCH   1   5
HETATM    5  C   UNL     1      41.722 -16.445   2.209  1.00  0.00     0.033 A 
HETATM    6  C   UNL     1      42.150 -15.818   3.382  1.00  0.00     0.019 A 
HETATM    7  C   UNL     1      43.025 -16.461   4.261  1.00  0.00     0.031 A 
HETATM    8  C   UNL     1      43.440 -17.756   3.929  1.00  0.00     0.043 A 
HETATM    9  C   UNL     1      43.013 -18.421   2.781  1.00  0.00    -0.001 A 
HETATM   10  N   UNL     1      44.285 -18.608   4.599  1.00  0.00    -0.359 N 
HETATM   11  C   UNL     1      43.617 -19.720   2.789  1.00  0.00    -0.027 A 
HETATM   12  C   UNL     1      42.134 -17.752   1.903  1.00  0.00     0.031 A 
HETATM   13  C   UNL     1      43.441 -20.796   1.773  1.00  0.00     0.051 C 
HETATM   14  C   UNL     1      44.406 -19.797   3.925  1.00  0.00     0.012 A 
HETATM   15  C   UNL     1      45.262 -20.899   4.435  1.00  0.00     0.068 C 
HETATM   16  H   UNL     1      44.745 -18.385   5.471  1.00  0.00     0.166 HD
ENDBRANCH   1   5
BRANCH   2  17
HETATM   17  C   UNL     1      40.618 -14.395  -0.776  1.00  0.00     0.147 C 
HETATM   18  C   UNL     1      40.374 -14.968  -2.209  1.00  0.00     0.149 C 
HETATM   19  C   UNL     1      41.529 -14.451  -3.090  1.00  0.00     0.073 C 
HETATM   20  C   UNL     1      41.923 -13.191  -2.383  1.00  0.00    -0.047 A 
HETATM   21  C   UNL     1      41.414 -13.159  -1.081  1.00  0.00    -0.027 A 
HETATM   22  C   UNL     1      42.719 -12.164  -2.863  1.00  0.00     0.008 A 
HETATM   23  C   UNL     1      41.691 -12.098  -0.232  1.00  0.00     0.010 A 
HETATM   24  C   UNL     1      42.485 -11.055  -0.710  1.00  0.00     0.001 A 
HETATM   25  C   UNL     1      42.995 -11.088  -2.017  1.00  0.00     0.001 A 
BRANCH  18  26
HETATM   26  O   UNL     1      40.295 -16.389  -2.279  1.00  0.00    -0.393 OA
HETATM   27  H   UNL     1      40.779 -16.733  -1.499  1.00  0.00     0.210 HD
ENDBRANCH  18  26
ENDBRANCH   2  17
TORSDOF 3
ENDMDL
MODEL 4
REMARK VINA RESULT:      -8.4      1.998      7.884
REMARK  3 active torsions:
REMARK  status: ('A' for Active; 'I' for Inactive)
REMARK    1  A    between atoms: C_7  and  C_8 
REMARK       I    between atoms: C_8  and  N_9 
REMARK    2  A    between atoms: N_9  and  C_10 
REMARK    3  A    between atoms: C_11  and  O_12 
ROOT
HETATM    1  C   UNL     1      40.972 -15.946   1.049  1.00  0.00     0.252 C 
HETATM    2  N   UNL     1      41.980 -16.777   1.476  1.00  0.00    -0.346 N 
HETATM    3  O   UNL     1      39.932 -15.789   1.682  1.00  0.00    -0.268 OA
HETATM    4  H   UNL     1      42.786 -16.942   0.889  1.00  0.00     0.163 HD
ENDROOT
BRANCH   1   5
HETATM    5  C   UNL     1      41.187 -15.261  -0.251  1.00  0.00     0.033 A 
HETATM    6  C   UNL     1      40.883 -15.960  -1.422  1.00  0.00     0.019 A 
HETATM    7  C   UNL     1      41.092 -15.383  -2.676  1.00  0.00     0.031 A 
HETATM    8  C   UNL     1      41.600 -14.079  -2.713  1.00  0.00     0.043 A 
HETATM    9  C   UNL     1      41.890 -13.343  -1.565  1.00  0.00    -0.001 A 
HETATM   10  N   UNL     1      41.899 -13.280  -3.791  1.00  0.00    -0.359 N 
HETATM   11  C   UNL     1      42.360 -12.057  -1.987  1.00  0.00    -0.027 A 
HETATM   12  C   UNL     1      41.677 -13.947  -0.307  1.00  0.00     0.031 A 
HETATM   13  C   UNL     1      42.774 -10.924  -1.114  1.00  0.00     0.051 C 
HETATM   14  C   UNL     1      42.361 -12.058  -3.373  1.00  0.00     0.012 A 
HETATM   15  C   UNL     1      42.757 -11.002  -4.340  1.00  0.00     0.068 C 
HETATM   16  H   UNL     1      41.786 -13.560  -4.755  1.00  0.00     0.166 HD
ENDBRANCH   1   5
BRANCH   2  17
HETATM   17  C   UNL     1      41.810 -17.616   2.647  1.00  0.00     0.147 C 
HETATM   18  C   UNL     1      42.204 -16.941   4.000  1.00  0.00     0.149 C 
HETATM   19  C   UNL     1      43.674 -17.321   4.266  1.00  0.00     0.073 C 
HETATM   20  C   UNL     1      43.806 -18.611   3.519  1.00  0.00    -0.047 A 
HETATM   21  C   UNL     1      42.760 -18.778   2.606  1.00  0.00    -0.027 A 
HETATM   22  C   UNL     1      44.819 -19.551   3.622  1.00  0.00     0.008 A 
HETATM   23  C   UNL     1      42.705 -19.890   1.778  1.00  0.00     0.010 A 
HETATM   24  C   UNL     1      43.717 -20.845   1.881  1.00  0.00     0.001 A 
HETATM   25  C   UNL     1      44.766 -20.677   2.797  1.00  0.00     0.001 A 
BRANCH  18  26
HETATM   26  O   UNL     1      42.044 -15.526   4.030  1.00  0.00    -0.393 OA
HETATM   27  H   UNL     1      41.418 -15.331   4.760  1.00  0.00     0.210 HD
ENDBRANCH  18  26
ENDBRANCH   2  17
TORSDOF 3
ENDMDL
MODEL 5
REMARK VINA RESULT:      -8.4      2.207      8.041
REMARK  3 active torsions:
REMARK  status: ('A' for Active; 'I' for Inactive)
REMARK    1  A    between atoms: C_7  and  C_8 
REMARK       I    between atoms: C_8  and  N_9 
REMARK    2  A    between atoms: N_9  and  C_10 
REMARK    3  A    between atoms: C_11  and  O_12 
ROOT
HETATM    1  C   UNL     1      40.870 -16.207   2.383  1.00  0.00     0.252 C 
HETATM    2  N   UNL     1      41.369 -16.200   3.664  1.00  0.00    -0.346 N 
HETATM    3  O   UNL     1      40.162 -17.114   1.955  1.00  0.00    -0.268 OA
HETATM    4  H   UNL     1      42.012 -15.476   3.955  1.00  0.00     0.163 HD
ENDROOT
BRANCH   1   5
HETATM    5  C   UNL     1      41.258 -15.065   1.517  1.00  0.00     0.033 A 
HETATM    6  C   UNL     1      41.678 -13.884   2.134  1.00  0.00     0.019 A 
HETATM    7  C   UNL     1      42.028 -12.764   1.376  1.00  0.00     0.031 A 
HETATM    8  C   UNL     1      41.956 -12.877  -0.017  1.00  0.00     0.043 A 
HETATM    9  C   UNL     1      41.567 -14.047  -0.666  1.00  0.00    -0.001 A 
HETATM   10  N   UNL     1      42.236 -11.949  -0.991  1.00  0.00    -0.359 N 
HETATM   11  C   UNL     1      41.639 -13.800  -2.076  1.00  0.00    -0.027 A 
HETATM   12  C   UNL     1      41.212 -15.166   0.118  1.00  0.00     0.031 A 
HETATM   13  C   UNL     1      41.334 -14.763  -3.171  1.00  0.00     0.051 C 
HETATM   14  C   UNL     1      42.048 -12.487  -2.240  1.00  0.00     0.012 A 
HETATM   15  C   UNL     1      42.282 -11.693  -3.474  1.00  0.00     0.068 C 
HETATM   16  H   UNL     1      42.543 -11.004  -0.806  1.00  0.00     0.166 HD
ENDBRANCH   1   5
BRANCH   2  17
HETATM   17  C   UNL     1      41.185 -17.339   4.543  1.00  0.00     0.147 C 
HETATM   18  C   UNL     1      40.771 -16.980   6.006  1.00  0.00     0.149 C 
HETATM   19  C   UNL     1      42.076 -16.895   6.821  1.00  0.00     0.073 C 
HETATM   20  C   UNL     1      42.988 -17.798   6.051  1.00  0.00    -0.047 A 
HETATM   21  C   UNL     1      42.490 -18.047   4.768  1.00  0.00    -0.027 A 
HETATM   22  C   UNL     1      44.203 -18.324   6.459  1.00  0.00     0.008 A 
HETATM   23  C   UNL     1      43.197 -18.830   3.867  1.00  0.00     0.010 A 
HETATM   24  C   UNL     1      44.417 -19.372   4.273  1.00  0.00     0.001 A 
HETATM   25  C   UNL     1      44.916 -19.121   5.561  1.00  0.00     0.001 A 
BRANCH  18  26
HETATM   26  O   UNL     1      40.026 -15.772   6.136  1.00  0.00    -0.393 OA
HETATM   27  H   UNL     1      39.116 -16.033   6.395  1.00  0.00     0.210 HD
ENDBRANCH  18  26
ENDBRANCH   2  17
TORSDOF 3
ENDMDL
MODEL 6
REMARK VINA RESULT:      -8.0      2.223      3.273
REMARK  3 active torsions:
REMARK  status: ('A' for Active; 'I' for Inactive)
REMARK    1  A    between atoms: C_7  and  C_8 
REMARK       I    between atoms: C_8  and  N_9 
REMARK    2  A    between atoms: N_9  and  C_10 
REMARK    3  A    between atoms: C_11  and  O_12 
ROOT
HETATM    1  C   UNL     1      41.810 -15.606   0.341  1.00  0.00     0.252 C 
HETATM    2  N   UNL     1      41.734 -14.239   0.463  1.00  0.00    -0.346 N 
HETATM    3  O   UNL     1      41.365 -16.209  -0.631  1.00  0.00    -0.268 OA
HETATM    4  H   UNL     1      42.040 -13.787   1.313  1.00  0.00     0.163 HD
ENDROOT
BRANCH   1   5
HETATM    5  C   UNL     1      42.436 -16.336   1.473  1.00  0.00     0.033 A 
HETATM    6  C   UNL     1      42.720 -15.622   2.639  1.00  0.00     0.019 A 
HETATM    7  C   UNL     1      43.336 -16.243   3.728  1.00  0.00     0.031 A 
HETATM    8  C   UNL     1      43.641 -17.604   3.610  1.00  0.00     0.043 A 
HETATM    9  C   UNL     1      43.348 -18.353   2.472  1.00  0.00    -0.001 A 
HETATM   10  N   UNL     1      44.239 -18.453   4.510  1.00  0.00    -0.359 N 
HETATM   11  C   UNL     1      43.776 -19.698   2.721  1.00  0.00    -0.027 A 
HETATM   12  C   UNL     1      42.731 -17.705   1.380  1.00  0.00     0.031 A 
HETATM   13  C   UNL     1      43.654 -20.862   1.801  1.00  0.00     0.051 C 
HETATM   14  C   UNL     1      44.332 -19.720   3.990  1.00  0.00     0.012 A 
HETATM   15  C   UNL     1      44.939 -20.836   4.760  1.00  0.00     0.068 C 
HETATM   16  H   UNL     1      44.559 -18.177   5.427  1.00  0.00     0.166 HD
ENDBRANCH   1   5
BRANCH   2  17
HETATM   17  C   UNL     1      41.003 -13.444  -0.506  1.00  0.00     0.147 C 
HETATM   18  C   UNL     1      41.569 -12.005  -0.733  1.00  0.00     0.149 C 
HETATM   19  C   UNL     1      40.796 -11.075   0.222  1.00  0.00     0.073 C 
HETATM   20  C   UNL     1      39.504 -11.811   0.401  1.00  0.00    -0.047 A 
HETATM   21  C   UNL     1      39.620 -13.144  -0.005  1.00  0.00    -0.027 A 
HETATM   22  C   UNL     1      38.320 -11.327   0.933  1.00  0.00     0.008 A 
HETATM   23  C   UNL     1      38.551 -14.021   0.111  1.00  0.00     0.010 A 
HETATM   24  C   UNL     1      37.351 -13.540   0.637  1.00  0.00     0.001 A 
HETATM   25  C   UNL     1      37.237 -12.202   1.045  1.00  0.00     0.001 A 
BRANCH  18  26
HETATM   26  O   UNL     1      42.972 -11.875  -0.524  1.00  0.00    -0.393 OA
HETATM   27  H   UNL     1      43.116 -10.981  -0.146  1.00  0.00     0.210 HD
ENDBRANCH  18  26
ENDBRANCH   2  17
TORSDOF 3
ENDMDL
MODEL 7
REMARK VINA RESULT:      -8.0      3.626      5.329
REMARK  3 active torsions:
REMARK  status: ('A' for Active; 'I' for Inactive)
REMARK    1  A    between atoms: C_7  and  C_8 
REMARK       I    between atoms: C_8  and  N_9 
REMARK    2  A    between atoms: N_9  and  C_10 
REMARK    3  A    between atoms: C_11  and  O_12 
ROOT
HETATM    1  C   UNL     1      43.412 -14.859   5.501  1.00  0.00     0.252 C 
HETATM    2  N   UNL     1      42.092 -14.566   5.249  1.00  0.00    -0.346 N 
HETATM    3  O   UNL     1      44.247 -13.992   5.738  1.00  0.00    -0.268 OA
HETATM    4  H   UNL     1      41.451 -15.300   4.980  1.00  0.00     0.163 HD
ENDROOT
BRANCH   1   5
HETATM    5  C   UNL     1      43.793 -16.293   5.440  1.00  0.00     0.033 A 
HETATM    6  C   UNL     1      44.410 -16.858   6.559  1.00  0.00     0.019 A 
HETATM    7  C   UNL     1      44.820 -18.193   6.554  1.00  0.00     0.031 A 
HETATM    8  C   UNL     1      44.576 -18.941   5.396  1.00  0.00     0.043 A 
HETATM    9  C   UNL     1      43.939 -18.418   4.272  1.00  0.00    -0.001 A 
HETATM   10  N   UNL     1      44.869 -20.255   5.119  1.00  0.00    -0.359 N 
HETATM   11  C   UNL     1      43.840 -19.471   3.306  1.00  0.00    -0.027 A 
HETATM   12  C   UNL     1      43.538 -17.065   4.295  1.00  0.00     0.031 A 
HETATM   13  C   UNL     1      43.219 -19.391   1.955  1.00  0.00     0.051 C 
HETATM   14  C   UNL     1      44.435 -20.592   3.861  1.00  0.00     0.012 A 
HETATM   15  C   UNL     1      44.627 -21.958   3.311  1.00  0.00     0.068 C 
HETATM   16  H   UNL     1      45.335 -20.882   5.760  1.00  0.00     0.166 HD
ENDBRANCH   1   5
BRANCH   2  17
HETATM   17  C   UNL     1      41.644 -13.192   5.125  1.00  0.00     0.147 C 
HETATM   18  C   UNL     1      40.269 -12.888   5.803  1.00  0.00     0.149 C 
HETATM   19  C   UNL     1      39.195 -13.060   4.710  1.00  0.00     0.073 C 
HETATM   20  C   UNL     1      39.972 -12.785   3.460  1.00  0.00    -0.047 A 
HETATM   21  C   UNL     1      41.349 -12.861   3.691  1.00  0.00    -0.027 A 
HETATM   22  C   UNL     1      39.474 -12.526   2.193  1.00  0.00     0.008 A 
HETATM   23  C   UNL     1      42.257 -12.678   2.659  1.00  0.00     0.010 A 
HETATM   24  C   UNL     1      41.765 -12.408   1.381  1.00  0.00     0.001 A 
HETATM   25  C   UNL     1      40.383 -12.331   1.151  1.00  0.00     0.001 A 
BRANCH  18  26
HETATM   26  O   UNL     1      39.965 -13.705   6.930  1.00  0.00    -0.393 OA
HETATM   27  H   UNL     1      40.809 -14.118   7.210  1.00  0.00     0.210 HD
ENDBRANCH  18  26
ENDBRANCH   2  17
TORSDOF 3
ENDMDL
MODEL 8
REMARK VINA RESULT:      -7.7      2.754      4.150
REMARK  3 active torsions:
REMARK  status: ('A' for Active; 'I' for Inactive)
REMARK    1  A    between atoms: C_7  and  C_8 
REMARK       I    between atoms: C_8  and  N_9 
REMARK    2  A    between atoms: N_9  and  C_10 
REMARK    3  A    between atoms: C_11  and  O_12 
ROOT
HETATM    1  C   UNL     1      42.828 -14.317   3.407  1.00  0.00     0.252 C 
HETATM    2  N   UNL     1      41.616 -14.314   2.759  1.00  0.00    -0.346 N 
HETATM    3  O   UNL     1      43.552 -13.328   3.459  1.00  0.00    -0.268 OA
HETATM    4  H   UNL     1      41.085 -15.169   2.669  1.00  0.00     0.163 HD
ENDROOT
BRANCH   1   5
HETATM    5  C   UNL     1      43.244 -15.603   4.021  1.00  0.00     0.033 A 
HETATM    6  C   UNL     1      43.510 -15.622   5.392  1.00  0.00     0.019 A 
HETATM    7  C   UNL     1      43.935 -16.793   6.025  1.00  0.00     0.031 A 
HETATM    8  C   UNL     1      44.068 -17.943   5.237  1.00  0.00     0.043 A 
HETATM    9  C   UNL     1      43.786 -17.966   3.872  1.00  0.00    -0.001 A 
HETATM   10  N   UNL     1      44.462 -19.211   5.590  1.00  0.00    -0.359 N 
HETATM   11  C   UNL     1      44.008 -19.305   3.412  1.00  0.00    -0.027 A 
HETATM   12  C   UNL     1      43.364 -16.771   3.251  1.00  0.00     0.031 A 
HETATM   13  C   UNL     1      43.819 -19.819   2.027  1.00  0.00     0.051 C 
HETATM   14  C   UNL     1      44.435 -20.046   4.502  1.00  0.00     0.012 A 
HETATM   15  C   UNL     1      44.816 -21.478   4.608  1.00  0.00     0.068 C 
HETATM   16  H   UNL     1      44.729 -19.484   6.526  1.00  0.00     0.166 HD
ENDBRANCH   1   5
BRANCH   2  17
HETATM   17  C   UNL     1      41.184 -13.162   1.990  1.00  0.00     0.147 C 
HETATM   18  C   UNL     1      39.856 -12.503   2.485  1.00  0.00     0.149 C 
HETATM   19  C   UNL     1      38.719 -13.146   1.666  1.00  0.00     0.073 C 
HETATM   20  C   UNL     1      39.427 -13.557   0.412  1.00  0.00    -0.047 A 
HETATM   21  C   UNL     1      40.813 -13.569   0.593  1.00  0.00    -0.027 A 
HETATM   22  C   UNL     1      38.862 -13.936  -0.795  1.00  0.00     0.008 A 
HETATM   23  C   UNL     1      41.664 -13.959  -0.431  1.00  0.00     0.010 A 
HETATM   24  C   UNL     1      41.104 -14.333  -1.653  1.00  0.00     0.001 A 
HETATM   25  C   UNL     1      39.712 -14.321  -1.833  1.00  0.00     0.001 A 
BRANCH  18  26
HETATM   26  O   UNL     1      39.603 -12.643   3.879  1.00  0.00    -0.393 OA
HETATM   27  H   UNL     1      39.856 -11.792   4.295  1.00  0.00     0.210 HD
ENDBRANCH  18  26
ENDBRANCH   2  17
TORSDOF 3
ENDMDL
MODEL 9
REMARK VINA RESULT:      -7.7      2.609      8.253
REMARK  3 active torsions:
REMARK  status: ('A' for Active; 'I' for Inactive)
REMARK    1  A    between atoms: C_7  and  C_8 
REMARK       I    between atoms: C_8  and  N_9 
REMARK    2  A    between atoms: N_9  and  C_10 
REMARK    3  A    between atoms: C_11  and  O_12 
ROOT
HETATM    1  C   UNL     1      43.438 -17.520   2.163  1.00  0.00     0.252 C 
HETATM    2  N   UNL     1      43.353 -18.258   3.320  1.00  0.00    -0.346 N 
HETATM    3  O   UNL     1      44.461 -17.467   1.488  1.00  0.00    -0.268 OA
HETATM    4  H   UNL     1      42.519 -18.214   3.891  1.00  0.00     0.163 HD
ENDROOT
BRANCH   1   5
HETATM    5  C   UNL     1      42.226 -16.754   1.779  1.00  0.00     0.033 A 
HETATM    6  C   UNL     1      41.105 -16.835   2.608  1.00  0.00     0.019 A 
HETATM    7  C   UNL     1      39.924 -16.162   2.287  1.00  0.00     0.031 A 
HETATM    8  C   UNL     1      39.914 -15.396   1.115  1.00  0.00     0.043 A 
HETATM    9  C   UNL     1      41.022 -15.270   0.279  1.00  0.00    -0.001 A 
HETATM   10  N   UNL     1      38.905 -14.642   0.565  1.00  0.00    -0.359 N 
HETATM   11  C   UNL     1      40.652 -14.396  -0.794  1.00  0.00    -0.027 A 
HETATM   12  C   UNL     1      42.204 -15.963   0.619  1.00  0.00     0.031 A 
HETATM   13  C   UNL     1      41.514 -13.951  -1.924  1.00  0.00     0.051 C 
HETATM   14  C   UNL     1      39.331 -14.034  -0.589  1.00  0.00     0.012 A 
HETATM   15  C   UNL     1      38.433 -13.158  -1.386  1.00  0.00     0.068 C 
HETATM   16  H   UNL     1      37.981 -14.550   0.964  1.00  0.00     0.166 HD
ENDBRANCH   1   5
BRANCH   2  17
HETATM   17  C   UNL     1      44.521 -18.916   3.873  1.00  0.00     0.147 C 
HETATM   18  C   UNL     1      44.769 -20.366   3.345  1.00  0.00     0.149 C 
HETATM   19  C   UNL     1      44.084 -21.318   4.346  1.00  0.00     0.073 C 
HETATM   20  C   UNL     1      44.100 -20.512   5.608  1.00  0.00    -0.047 A 
HETATM   21  C   UNL     1      44.342 -19.160   5.344  1.00  0.00    -0.027 A 
HETATM   22  C   UNL     1      43.868 -20.955   6.900  1.00  0.00     0.008 A 
HETATM   23  C   UNL     1      44.361 -18.224   6.368  1.00  0.00     0.010 A 
HETATM   24  C   UNL     1      44.137 -18.664   7.673  1.00  0.00     0.001 A 
HETATM   25  C   UNL     1      43.894 -20.021   7.937  1.00  0.00     0.001 A 
BRANCH  18  26
HETATM   26  O   UNL     1      44.294 -20.610   2.025  1.00  0.00    -0.393 OA
HETATM   27  H   UNL     1      44.789 -21.387   1.689  1.00  0.00     0.210 HD
ENDBRANCH  18  26
ENDBRANCH   2  17
TORSDOF 3
ENDMDL
MODEL 10
REMARK VINA RESULT:      -7.7      6.966      9.724
REMARK  3 active torsions:
REMARK  status: ('A' for Active; 'I' for Inactive)
REMARK    1  A    between atoms: C_7  and  C_8 
REMARK       I    between atoms: C_8  and  N_9 
REMARK    2  A    between atoms: N_9  and  C_10 
REMARK    3  A    between atoms: C_11  and  O_12 
ROOT
HETATM    1  C   UNL     1      41.925 -10.950   7.233  1.00  0.00     0.252 C 
HETATM    2  N   UNL     1      42.565 -11.386   8.368  1.00  0.00    -0.346 N 
HETATM    3  O   UNL     1      41.823  -9.761   6.947  1.00  0.00    -0.268 OA
HETATM    4  H   UNL     1      42.559 -12.368   8.610  1.00  0.00     0.163 HD
ENDROOT
BRANCH   1   5
HETATM    5  C   UNL     1      41.324 -11.998   6.370  1.00  0.00     0.033 A 
HETATM    6  C   UNL     1      39.948 -12.221   6.465  1.00  0.00     0.019 A 
HETATM    7  C   UNL     1      39.328 -13.213   5.702  1.00  0.00     0.031 A 
HETATM    8  C   UNL     1      40.132 -13.960   4.834  1.00  0.00     0.043 A 
HETATM    9  C   UNL     1      41.502 -13.748   4.694  1.00  0.00    -0.001 A 
HETATM   10  N   UNL     1      39.792 -14.982   3.980  1.00  0.00    -0.359 N 
HETATM   11  C   UNL     1      41.981 -14.670   3.708  1.00  0.00    -0.027 A 
HETATM   12  C   UNL     1      42.111 -12.744   5.478  1.00  0.00     0.031 A 
HETATM   13  C   UNL     1      43.378 -14.804   3.210  1.00  0.00     0.051 C 
HETATM   14  C   UNL     1      40.895 -15.425   3.294  1.00  0.00     0.012 A 
HETATM   15  C   UNL     1      40.806 -16.528   2.303  1.00  0.00     0.068 C 
HETATM   16  H   UNL     1      38.857 -15.348   3.874  1.00  0.00     0.166 HD
ENDBRANCH   1   5
BRANCH   2  17
HETATM   17  C   UNL     1      43.047 -10.445   9.361  1.00  0.00     0.147 C 
HETATM   18  C   UNL     1      44.500 -10.716   9.870  1.00  0.00     0.149 C 
HETATM   19  C   UNL     1      44.363 -11.580  11.139  1.00  0.00     0.073 C 
HETATM   20  C   UNL     1      43.001 -11.205  11.632  1.00  0.00    -0.047 A 
HETATM   21  C   UNL     1      42.257 -10.569  10.632  1.00  0.00    -0.027 A 
HETATM   22  C   UNL     1      42.450 -11.456  12.878  1.00  0.00     0.008 A 
HETATM   23  C   UNL     1      40.949 -10.168  10.860  1.00  0.00     0.010 A 
HETATM   24  C   UNL     1      40.390 -10.409  12.116  1.00  0.00     0.001 A 
HETATM   25  C   UNL     1      41.137 -11.048  13.118  1.00  0.00     0.001 A 
BRANCH  18  26
HETATM   26  O   UNL     1      45.355 -11.353   8.926  1.00  0.00    -0.393 OA
HETATM   27  H   UNL     1      46.268 -11.062   9.136  1.00  0.00     0.210 HD
ENDBRANCH  18  26
ENDBRANCH   2  17
TORSDOF 3
ENDMDL
