MODEL 1
REMARK VINA RESULT:      -8.5      0.000      0.000
REMARK  3 active torsions:
REMARK  status: ('A' for Active; 'I' for Inactive)
REMARK    1  A    between atoms: C_2  and  N_3 
REMARK    2  A    between atoms: C_2  and  C_10 
REMARK    3  A    between atoms: C_13  and  C_14 
ROOT
HETATM    1  C   UNL     1      41.128 -15.470   1.364  1.00  0.00    -0.028 A 
HETATM    2  C   UNL     1      40.599 -16.732   1.675  1.00  0.00     0.010 A 
HETATM    3  C   UNL     1      41.370 -17.682   2.354  1.00  0.00     0.014 A 
HETATM    4  C   UNL     1      42.690 -17.406   2.743  1.00  0.00    -0.006 A 
HETATM    5  C   UNL     1      43.218 -16.150   2.406  1.00  0.00     0.014 A 
HETATM    6  C   UNL     1      42.452 -15.191   1.733  1.00  0.00     0.010 A 
ENDROOT
BRANCH   4   7
HETATM    7  C   UNL     1      43.514 -18.389   3.448  1.00  0.00     0.082 A 
HETATM    8  N   UNL     1      44.016 -18.032   4.659  1.00  0.00    -0.240 NA
HETATM    9  C   UNL     1      44.780 -18.924   5.320  1.00  0.00     0.236 A 
HETATM   10  N   UNL     1      45.109 -20.168   4.940  1.00  0.00    -0.224 NA
HETATM   11  C   UNL     1      44.572 -20.483   3.754  1.00  0.00     0.141 A 
HETATM   12  C   UNL     1      43.777 -19.675   2.953  1.00  0.00     0.041 A 
HETATM   13  N   UNL     1      44.724 -21.691   3.130  1.00  0.00    -0.350 N 
HETATM   14  C   UNL     1      43.428 -20.457   1.813  1.00  0.00     0.034 A 
HETATM   15  C   UNL     1      44.029 -21.692   1.948  1.00  0.00     0.091 A 
HETATM   16  H   UNL     1      45.264 -22.456   3.512  1.00  0.00     0.166 HD
ENDBRANCH   4   7
BRANCH   1  17
HETATM   17  C   UNL     1      40.259 -14.436   0.666  1.00  0.00     0.217 C 
HETATM   18  C   UNL     1      39.032 -14.113   1.526  1.00  0.00     0.045 C 
BRANCH  17  19
HETATM   19  N   UNL     1      39.838 -14.894  -0.744  1.00  0.00    -0.063 N 
HETATM   20  H   UNL     1      39.337 -15.782  -0.616  1.00  0.00     0.280 HD
HETATM   21  C   UNL     1      38.902 -13.926  -1.437  1.00  0.00     0.235 C 
HETATM   22  C   UNL     1      38.466 -14.484  -2.785  1.00  0.00     0.028 C 
HETATM   23  C   UNL     1      39.654 -14.815  -3.674  1.00  0.00     0.003 C 
HETATM   24  C   UNL     1      40.609 -15.757  -2.957  1.00  0.00     0.028 C 
HETATM   25  C   UNL     1      41.051 -15.196  -1.614  1.00  0.00     0.235 C 
ENDBRANCH  17  19
ENDBRANCH   1  17
TORSDOF 3
ENDMDL
MODEL 2
REMARK VINA RESULT:      -8.4      1.523      2.701
REMARK  3 active torsions:
REMARK  status: ('A' for Active; 'I' for Inactive)
REMARK    1  A    between atoms: C_2  and  N_3 
REMARK    2  A    between atoms: C_2  and  C_10 
REMARK    3  A    between atoms: C_13  and  C_14 
ROOT
HETATM    1  C   UNL     1      42.118 -16.151   1.148  1.00  0.00    -0.028 A 
HETATM    2  C   UNL     1      43.495 -16.318   1.371  1.00  0.00     0.010 A 
HETATM    3  C   UNL     1      44.008 -17.558   1.766  1.00  0.00     0.014 A 
HETATM    4  C   UNL     1      43.171 -18.669   1.951  1.00  0.00    -0.006 A 
HETATM    5  C   UNL     1      41.793 -18.486   1.748  1.00  0.00     0.014 A 
HETATM    6  C   UNL     1      41.271 -17.251   1.347  1.00  0.00     0.010 A 
ENDROOT
BRANCH   4   7
HETATM    7  C   UNL     1      43.689 -19.973   2.369  1.00  0.00     0.082 A 
HETATM    8  N   UNL     1      43.842 -20.923   1.409  1.00  0.00    -0.240 NA
HETATM    9  C   UNL     1      44.314 -22.130   1.778  1.00  0.00     0.236 A 
HETATM   10  N   UNL     1      44.685 -22.530   3.004  1.00  0.00    -0.224 NA
HETATM   11  C   UNL     1      44.540 -21.553   3.909  1.00  0.00     0.141 A 
HETATM   12  C   UNL     1      44.061 -20.270   3.688  1.00  0.00     0.041 A 
HETATM   13  N   UNL     1      44.857 -21.672   5.235  1.00  0.00    -0.350 N 
HETATM   14  C   UNL     1      44.119 -19.596   4.943  1.00  0.00     0.034 A 
HETATM   15  C   UNL     1      44.610 -20.485   5.877  1.00  0.00     0.091 A 
HETATM   16  H   UNL     1      45.227 -22.516   5.650  1.00  0.00     0.166 HD
ENDBRANCH   4   7
BRANCH   1  17
HETATM   17  C   UNL     1      41.586 -14.808   0.677  1.00  0.00     0.217 C 
HETATM   18  C   UNL     1      40.083 -14.707   0.963  1.00  0.00     0.045 C 
BRANCH  17  19
HETATM   19  N   UNL     1      41.879 -14.565  -0.818  1.00  0.00    -0.063 N 
HETATM   20  H   UNL     1      42.775 -15.030  -1.010  1.00  0.00     0.280 HD
HETATM   21  C   UNL     1      40.836 -15.163  -1.740  1.00  0.00     0.235 C 
HETATM   22  C   UNL     1      41.236 -14.956  -3.195  1.00  0.00     0.028 C 
HETATM   23  C   UNL     1      41.464 -13.487  -3.518  1.00  0.00     0.003 C 
HETATM   24  C   UNL     1      42.483 -12.885  -2.563  1.00  0.00     0.028 C 
HETATM   25  C   UNL     1      42.079 -13.084  -1.110  1.00  0.00     0.235 C 
ENDBRANCH  17  19
ENDBRANCH   1  17
TORSDOF 3
ENDMDL
MODEL 3
REMARK VINA RESULT:      -7.9      2.785      3.889
REMARK  3 active torsions:
REMARK  status: ('A' for Active; 'I' for Inactive)
REMARK    1  A    between atoms: C_2  and  N_3 
REMARK    2  A    between atoms: C_2  and  C_10 
REMARK    3  A    between atoms: C_13  and  C_14 
ROOT
HETATM    1  C   UNL     1      42.622 -16.007   3.854  1.00  0.00    -0.028 A 
HETATM    2  C   UNL     1      43.428 -16.282   2.737  1.00  0.00     0.010 A 
HETATM    3  C   UNL     1      43.807 -17.595   2.436  1.00  0.00     0.014 A 
HETATM    4  C   UNL     1      43.397 -18.674   3.235  1.00  0.00    -0.006 A 
HETATM    5  C   UNL     1      42.611 -18.386   4.362  1.00  0.00     0.014 A 
HETATM    6  C   UNL     1      42.222 -17.077   4.668  1.00  0.00     0.010 A 
ENDROOT
BRANCH   4   7
HETATM    7  C   UNL     1      43.788 -20.053   2.939  1.00  0.00     0.082 A 
HETATM    8  N   UNL     1      43.695 -20.467   1.649  1.00  0.00    -0.240 NA
HETATM    9  C   UNL     1      44.047 -21.736   1.361  1.00  0.00     0.236 A 
HETATM   10  N   UNL     1      44.512 -22.673   2.201  1.00  0.00    -0.224 NA
HETATM   11  C   UNL     1      44.610 -22.210   3.454  1.00  0.00     0.141 A 
HETATM   12  C   UNL     1      44.280 -20.941   3.907  1.00  0.00     0.041 A 
HETATM   13  N   UNL     1      45.072 -22.940   4.516  1.00  0.00    -0.350 N 
HETATM   14  C   UNL     1      44.583 -20.920   5.300  1.00  0.00     0.034 A 
HETATM   15  C   UNL     1      45.065 -22.165   5.647  1.00  0.00     0.091 A 
HETATM   16  H   UNL     1      45.377 -23.901   4.446  1.00  0.00     0.166 HD
ENDBRANCH   4   7
BRANCH   1  17
HETATM   17  C   UNL     1      42.184 -14.580   4.138  1.00  0.00     0.217 C 
HETATM   18  C   UNL     1      41.553 -14.490   5.532  1.00  0.00     0.045 C 
BRANCH  17  19
HETATM   19  N   UNL     1      41.217 -14.050   3.060  1.00  0.00    -0.063 N 
HETATM   20  H   UNL     1      41.718 -14.128   2.167  1.00  0.00     0.280 HD
HETATM   21  C   UNL     1      39.939 -14.856   2.950  1.00  0.00     0.235 C 
HETATM   22  C   UNL     1      39.075 -14.324   1.814  1.00  0.00     0.028 C 
HETATM   23  C   UNL     1      38.768 -12.844   1.978  1.00  0.00     0.003 C 
HETATM   24  C   UNL     1      40.054 -12.047   2.127  1.00  0.00     0.028 C 
HETATM   25  C   UNL     1      40.913 -12.572   3.267  1.00  0.00     0.235 C 
ENDBRANCH  17  19
ENDBRANCH   1  17
TORSDOF 3
ENDMDL
MODEL 4
REMARK VINA RESULT:      -7.9      1.448      2.085
REMARK  3 active torsions:
REMARK  status: ('A' for Active; 'I' for Inactive)
REMARK    1  A    between atoms: C_2  and  N_3 
REMARK    2  A    between atoms: C_2  and  C_10 
REMARK    3  A    between atoms: C_13  and  C_14 
ROOT
HETATM    1  C   UNL     1      41.829 -15.354   2.787  1.00  0.00    -0.028 A 
HETATM    2  C   UNL     1      43.081 -15.721   2.268  1.00  0.00     0.010 A 
HETATM    3  C   UNL     1      43.687 -16.923   2.650  1.00  0.00     0.014 A 
HETATM    4  C   UNL     1      43.068 -17.796   3.558  1.00  0.00    -0.006 A 
HETATM    5  C   UNL     1      41.827 -17.408   4.089  1.00  0.00     0.014 A 
HETATM    6  C   UNL     1      41.210 -16.211   3.709  1.00  0.00     0.010 A 
ENDROOT
BRANCH   4   7
HETATM    7  C   UNL     1      43.689 -19.055   3.973  1.00  0.00     0.082 A 
HETATM    8  N   UNL     1      44.086 -19.159   5.268  1.00  0.00    -0.240 NA
HETATM    9  C   UNL     1      44.664 -20.310   5.666  1.00  0.00     0.236 A 
HETATM   10  N   UNL     1      44.890 -21.414   4.936  1.00  0.00    -0.224 NA
HETATM   11  C   UNL     1      44.459 -21.271   3.676  1.00  0.00     0.141 A 
HETATM   12  C   UNL     1      43.858 -20.152   3.117  1.00  0.00     0.041 A 
HETATM   13  N   UNL     1      44.542 -22.241   2.714  1.00  0.00    -0.350 N 
HETATM   14  C   UNL     1      43.555 -20.491   1.765  1.00  0.00     0.034 A 
HETATM   15  C   UNL     1      43.992 -21.781   1.545  1.00  0.00     0.091 A 
HETATM   16  H   UNL     1      44.945 -23.155   2.872  1.00  0.00     0.166 HD
ENDBRANCH   4   7
BRANCH   1  17
HETATM   17  C   UNL     1      41.167 -14.066   2.326  1.00  0.00     0.217 C 
HETATM   18  C   UNL     1      40.613 -13.297   3.531  1.00  0.00     0.045 C 
BRANCH  17  19
HETATM   19  N   UNL     1      40.060 -14.328   1.285  1.00  0.00    -0.063 N 
HETATM   20  H   UNL     1      39.981 -15.350   1.207  1.00  0.00     0.280 HD
HETATM   21  C   UNL     1      38.706 -13.787   1.697  1.00  0.00     0.235 C 
HETATM   22  C   UNL     1      37.652 -14.156   0.661  1.00  0.00     0.028 C 
HETATM   23  C   UNL     1      38.027 -13.670  -0.730  1.00  0.00     0.003 C 
HETATM   24  C   UNL     1      39.403 -14.186  -1.120  1.00  0.00     0.028 C 
HETATM   25  C   UNL     1      40.458 -13.810  -0.091  1.00  0.00     0.235 C 
ENDBRANCH  17  19
ENDBRANCH   1  17
TORSDOF 3
ENDMDL
MODEL 5
REMARK VINA RESULT:      -7.9      0.949      2.205
REMARK  3 active torsions:
REMARK  status: ('A' for Active; 'I' for Inactive)
REMARK    1  A    between atoms: C_2  and  N_3 
REMARK    2  A    between atoms: C_2  and  C_10 
REMARK    3  A    between atoms: C_13  and  C_14 
ROOT
HETATM    1  C   UNL     1      41.147 -15.502   1.342  1.00  0.00    -0.028 A 
HETATM    2  C   UNL     1      42.434 -15.239   1.836  1.00  0.00     0.010 A 
HETATM    3  C   UNL     1      43.193 -16.254   2.430  1.00  0.00     0.014 A 
HETATM    4  C   UNL     1      42.695 -17.561   2.550  1.00  0.00    -0.006 A 
HETATM    5  C   UNL     1      41.397 -17.808   2.074  1.00  0.00     0.014 A 
HETATM    6  C   UNL     1      40.634 -16.802   1.474  1.00  0.00     0.010 A 
ENDROOT
BRANCH   4   7
HETATM    7  C   UNL     1      43.471 -18.634   3.173  1.00  0.00     0.082 A 
HETATM    8  N   UNL     1      44.153 -19.473   2.350  1.00  0.00    -0.240 NA
HETATM    9  C   UNL     1      44.869 -20.469   2.907  1.00  0.00     0.236 A 
HETATM   10  N   UNL     1      45.022 -20.744   4.212  1.00  0.00    -0.224 NA
HETATM   11  C   UNL     1      44.352 -19.876   4.983  1.00  0.00     0.141 A 
HETATM   12  C   UNL     1      43.568 -18.812   4.561  1.00  0.00     0.041 A 
HETATM   13  N   UNL     1      44.342 -19.903   6.351  1.00  0.00    -0.350 N 
HETATM   14  C   UNL     1      43.092 -18.171   5.742  1.00  0.00     0.034 A 
HETATM   15  C   UNL     1      43.582 -18.867   6.828  1.00  0.00     0.091 A 
HETATM   16  H   UNL     1      44.839 -20.589   6.903  1.00  0.00     0.166 HD
ENDBRANCH   4   7
BRANCH   1  17
HETATM   17  C   UNL     1      40.357 -14.397   0.660  1.00  0.00     0.217 C 
HETATM   18  C   UNL     1      39.186 -13.961   1.549  1.00  0.00     0.045 C 
BRANCH  17  19
HETATM   19  N   UNL     1      39.860 -14.822  -0.736  1.00  0.00    -0.063 N 
HETATM   20  H   UNL     1      39.384 -15.723  -0.605  1.00  0.00     0.280 HD
HETATM   21  C   UNL     1      38.865 -13.852  -1.341  1.00  0.00     0.235 C 
HETATM   22  C   UNL     1      38.359 -14.379  -2.678  1.00  0.00     0.028 C 
HETATM   23  C   UNL     1      39.498 -14.659  -3.646  1.00  0.00     0.003 C 
HETATM   24  C   UNL     1      40.511 -15.603  -3.017  1.00  0.00     0.028 C 
HETATM   25  C   UNL     1      41.024 -15.072  -1.686  1.00  0.00     0.235 C 
ENDBRANCH  17  19
ENDBRANCH   1  17
TORSDOF 3
ENDMDL
MODEL 6
REMARK VINA RESULT:      -7.8      1.562      7.888
REMARK  3 active torsions:
REMARK  status: ('A' for Active; 'I' for Inactive)
REMARK    1  A    between atoms: C_2  and  N_3 
REMARK    2  A    between atoms: C_2  and  C_10 
REMARK    3  A    between atoms: C_13  and  C_14 
ROOT
HETATM    1  C   UNL     1      43.725 -19.007   1.973  1.00  0.00    -0.028 A 
HETATM    2  C   UNL     1      44.335 -17.769   1.714  1.00  0.00     0.010 A 
HETATM    3  C   UNL     1      43.562 -16.636   1.435  1.00  0.00     0.014 A 
HETATM    4  C   UNL     1      42.161 -16.700   1.403  1.00  0.00    -0.006 A 
HETATM    5  C   UNL     1      41.561 -17.947   1.639  1.00  0.00     0.014 A 
HETATM    6  C   UNL     1      42.325 -19.084   1.926  1.00  0.00     0.010 A 
ENDROOT
BRANCH   4   7
HETATM    7  C   UNL     1      41.335 -15.528   1.107  1.00  0.00     0.082 A 
HETATM    8  N   UNL     1      40.991 -14.725   2.148  1.00  0.00    -0.240 NA
HETATM    9  C   UNL     1      40.228 -13.644   1.893  1.00  0.00     0.236 A 
HETATM   10  N   UNL     1      39.762 -13.226   0.705  1.00  0.00    -0.224 NA
HETATM   11  C   UNL     1      40.148 -14.034  -0.291  1.00  0.00     0.141 A 
HETATM   12  C   UNL     1      40.921 -15.182  -0.187  1.00  0.00     0.041 A 
HETATM   13  N   UNL     1      39.836 -13.842  -1.609  1.00  0.00    -0.350 N 
HETATM   14  C   UNL     1      41.086 -15.677  -1.514  1.00  0.00     0.034 A 
HETATM   15  C   UNL     1      40.404 -14.833  -2.368  1.00  0.00     0.091 A 
HETATM   16  H   UNL     1      39.277 -13.070  -1.947  1.00  0.00     0.166 HD
ENDBRANCH   4   7
BRANCH   1  17
HETATM   17  C   UNL     1      44.580 -20.215   2.319  1.00  0.00     0.217 C 
HETATM   18  C   UNL     1      43.990 -21.478   1.682  1.00  0.00     0.045 C 
BRANCH  17  19
HETATM   19  N   UNL     1      44.740 -20.389   3.842  1.00  0.00    -0.063 N 
HETATM   20  H   UNL     1      45.731 -20.209   4.045  1.00  0.00     0.280 HD
HETATM   21  C   UNL     1      43.914 -19.409   4.650  1.00  0.00     0.235 C 
HETATM   22  C   UNL     1      44.188 -19.587   6.138  1.00  0.00     0.028 C 
HETATM   23  C   UNL     1      43.932 -21.014   6.595  1.00  0.00     0.003 C 
HETATM   24  C   UNL     1      44.735 -21.994   5.755  1.00  0.00     0.028 C 
HETATM   25  C   UNL     1      44.456 -21.823   4.269  1.00  0.00     0.235 C 
ENDBRANCH  17  19
ENDBRANCH   1  17
TORSDOF 3
ENDMDL
MODEL 7
REMARK VINA RESULT:      -7.8      1.496      8.155
REMARK  3 active torsions:
REMARK  status: ('A' for Active; 'I' for Inactive)
REMARK    1  A    between atoms: C_2  and  N_3 
REMARK    2  A    between atoms: C_2  and  C_10 
REMARK    3  A    between atoms: C_13  and  C_14 
ROOT
HETATM    1  C   UNL     1      43.476 -18.463   2.364  1.00  0.00    -0.028 A 
HETATM    2  C   UNL     1      44.054 -17.302   1.826  1.00  0.00     0.010 A 
HETATM    3  C   UNL     1      43.285 -16.401   1.081  1.00  0.00     0.014 A 
HETATM    4  C   UNL     1      41.919 -16.627   0.848  1.00  0.00    -0.006 A 
HETATM    5  C   UNL     1      41.356 -17.803   1.371  1.00  0.00     0.014 A 
HETATM    6  C   UNL     1      42.116 -18.706   2.122  1.00  0.00     0.010 A 
ENDROOT
BRANCH   4   7
HETATM    7  C   UNL     1      41.099 -15.700   0.067  1.00  0.00     0.082 A 
HETATM    8  N   UNL     1      41.232 -15.734  -1.285  1.00  0.00    -0.240 NA
HETATM    9  C   UNL     1      40.487 -14.883  -2.019  1.00  0.00     0.236 A 
HETATM   10  N   UNL     1      39.587 -13.989  -1.583  1.00  0.00    -0.224 NA
HETATM   11  C   UNL     1      39.474 -14.011  -0.248  1.00  0.00     0.141 A 
HETATM   12  C   UNL     1      40.173 -14.816   0.640  1.00  0.00     0.041 A 
HETATM   13  N   UNL     1      38.619 -13.219   0.470  1.00  0.00    -0.350 N 
HETATM   14  C   UNL     1      39.689 -14.495   1.942  1.00  0.00     0.034 A 
HETATM   15  C   UNL     1      38.736 -13.506   1.806  1.00  0.00     0.091 A 
HETATM   16  H   UNL     1      37.997 -12.541   0.052  1.00  0.00     0.166 HD
ENDBRANCH   4   7
BRANCH   1  17
HETATM   17  C   UNL     1      44.318 -19.405   3.209  1.00  0.00     0.217 C 
HETATM   18  C   UNL     1      44.382 -20.788   2.550  1.00  0.00     0.045 C 
BRANCH  17  19
HETATM   19  N   UNL     1      43.792 -19.508   4.654  1.00  0.00    -0.063 N 
HETATM   20  H   UNL     1      42.787 -19.704   4.577  1.00  0.00     0.280 HD
HETATM   21  C   UNL     1      44.426 -20.634   5.446  1.00  0.00     0.235 C 
HETATM   22  C   UNL     1      43.800 -20.724   6.831  1.00  0.00     0.028 C 
HETATM   23  C   UNL     1      43.899 -19.409   7.587  1.00  0.00     0.003 C 
HETATM   24  C   UNL     1      43.296 -18.278   6.770  1.00  0.00     0.028 C 
HETATM   25  C   UNL     1      43.928 -18.181   5.390  1.00  0.00     0.235 C 
ENDBRANCH  17  19
ENDBRANCH   1  17
TORSDOF 3
ENDMDL
MODEL 8
REMARK VINA RESULT:      -7.8      1.724      7.971
REMARK  3 active torsions:
REMARK  status: ('A' for Active; 'I' for Inactive)
REMARK    1  A    between atoms: C_2  and  N_3 
REMARK    2  A    between atoms: C_2  and  C_10 
REMARK    3  A    between atoms: C_13  and  C_14 
ROOT
HETATM    1  C   UNL     1      43.762 -19.088   1.972  1.00  0.00    -0.028 A 
HETATM    2  C   UNL     1      44.359 -17.849   1.689  1.00  0.00     0.010 A 
HETATM    3  C   UNL     1      43.574 -16.730   1.389  1.00  0.00     0.014 A 
HETATM    4  C   UNL     1      42.173 -16.810   1.361  1.00  0.00    -0.006 A 
HETATM    5  C   UNL     1      41.587 -18.058   1.622  1.00  0.00     0.014 A 
HETATM    6  C   UNL     1      42.363 -19.181   1.930  1.00  0.00     0.010 A 
ENDROOT
BRANCH   4   7
HETATM    7  C   UNL     1      41.335 -15.652   1.043  1.00  0.00     0.082 A 
HETATM    8  N   UNL     1      41.139 -15.363  -0.270  1.00  0.00    -0.240 NA
HETATM    9  C   UNL     1      40.373 -14.297  -0.579  1.00  0.00     0.236 A 
HETATM   10  N   UNL     1      39.740 -13.465   0.263  1.00  0.00    -0.224 NA
HETATM   11  C   UNL     1      39.943 -13.806   1.542  1.00  0.00     0.141 A 
HETATM   12  C   UNL     1      40.708 -14.861   2.018  1.00  0.00     0.041 A 
HETATM   13  N   UNL     1      39.405 -13.147   2.614  1.00  0.00    -0.350 N 
HETATM   14  C   UNL     1      40.596 -14.831   3.439  1.00  0.00     0.034 A 
HETATM   15  C   UNL     1      39.791 -13.763   3.777  1.00  0.00     0.091 A 
HETATM   16  H   UNL     1      38.807 -12.336   2.532  1.00  0.00     0.166 HD
ENDBRANCH   4   7
BRANCH   1  17
HETATM   17  C   UNL     1      44.631 -20.280   2.341  1.00  0.00     0.217 C 
HETATM   18  C   UNL     1      44.069 -21.558   1.706  1.00  0.00     0.045 C 
BRANCH  17  19
HETATM   19  N   UNL     1      44.772 -20.440   3.868  1.00  0.00    -0.063 N 
HETATM   20  H   UNL     1      45.761 -20.264   4.081  1.00  0.00     0.280 HD
HETATM   21  C   UNL     1      43.942 -19.446   4.656  1.00  0.00     0.235 C 
HETATM   22  C   UNL     1      44.197 -19.610   6.148  1.00  0.00     0.028 C 
HETATM   23  C   UNL     1      43.927 -21.031   6.617  1.00  0.00     0.003 C 
HETATM   24  C   UNL     1      44.734 -22.025   5.797  1.00  0.00     0.028 C 
HETATM   25  C   UNL     1      44.473 -21.867   4.306  1.00  0.00     0.235 C 
ENDBRANCH  17  19
ENDBRANCH   1  17
TORSDOF 3
ENDMDL
MODEL 9
REMARK VINA RESULT:      -7.6      3.533      7.926
REMARK  3 active torsions:
REMARK  status: ('A' for Active; 'I' for Inactive)
REMARK    1  A    between atoms: C_2  and  N_3 
REMARK    2  A    between atoms: C_2  and  C_10 
REMARK    3  A    between atoms: C_13  and  C_14 
ROOT
HETATM    1  C   UNL     1      42.814 -16.824   5.598  1.00  0.00    -0.028 A 
HETATM    2  C   UNL     1      41.552 -16.791   6.213  1.00  0.00     0.010 A 
HETATM    3  C   UNL     1      40.750 -15.647   6.136  1.00  0.00     0.014 A 
HETATM    4  C   UNL     1      41.179 -14.502   5.446  1.00  0.00    -0.006 A 
HETATM    5  C   UNL     1      42.452 -14.537   4.856  1.00  0.00     0.014 A 
HETATM    6  C   UNL     1      43.258 -15.678   4.922  1.00  0.00     0.010 A 
ENDROOT
BRANCH   4   7
HETATM    7  C   UNL     1      40.357 -13.293   5.360  1.00  0.00     0.082 A 
HETATM    8  N   UNL     1      40.313 -12.486   6.453  1.00  0.00    -0.240 NA
HETATM    9  C   UNL     1      39.558 -11.372   6.391  1.00  0.00     0.236 A 
HETATM   10  N   UNL     1      38.833 -10.924   5.353  1.00  0.00    -0.224 NA
HETATM   11  C   UNL     1      38.929 -11.738   4.294  1.00  0.00     0.141 A 
HETATM   12  C   UNL     1      39.653 -12.919   4.206  1.00  0.00     0.041 A 
HETATM   13  N   UNL     1      38.311 -11.521   3.093  1.00  0.00    -0.350 N 
HETATM   14  C   UNL     1      39.466 -13.407   2.880  1.00  0.00     0.034 A 
HETATM   15  C   UNL     1      38.633 -12.529   2.219  1.00  0.00     0.091 A 
HETATM   16  H   UNL     1      37.720 -10.724   2.901  1.00  0.00     0.166 HD
ENDBRANCH   4   7
BRANCH   1  17
HETATM   17  C   UNL     1      43.650 -18.092   5.655  1.00  0.00     0.217 C 
HETATM   18  C   UNL     1      44.959 -17.828   6.407  1.00  0.00     0.045 C 
BRANCH  17  19
HETATM   19  N   UNL     1      43.928 -18.662   4.249  1.00  0.00    -0.063 N 
HETATM   20  H   UNL     1      44.614 -18.029   3.818  1.00  0.00     0.280 HD
HETATM   21  C   UNL     1      44.528 -20.053   4.272  1.00  0.00     0.235 C 
HETATM   22  C   UNL     1      44.851 -20.513   2.856  1.00  0.00     0.028 C 
HETATM   23  C   UNL     1      43.630 -20.465   1.951  1.00  0.00     0.003 C 
HETATM   24  C   UNL     1      43.012 -19.076   1.963  1.00  0.00     0.028 C 
HETATM   25  C   UNL     1      42.681 -18.620   3.377  1.00  0.00     0.235 C 
ENDBRANCH  17  19
ENDBRANCH   1  17
TORSDOF 3
ENDMDL
MODEL 10
REMARK VINA RESULT:      -7.6      5.464      8.335
REMARK  3 active torsions:
REMARK  status: ('A' for Active; 'I' for Inactive)
REMARK    1  A    between atoms: C_2  and  N_3 
REMARK    2  A    between atoms: C_2  and  C_10 
REMARK    3  A    between atoms: C_13  and  C_14 
ROOT
HETATM    1  C   UNL     1      43.124 -16.035   5.388  1.00  0.00    -0.028 A 
HETATM    2  C   UNL     1      43.352 -14.780   4.800  1.00  0.00     0.010 A 
HETATM    3  C   UNL     1      44.046 -13.782   5.494  1.00  0.00     0.014 A 
HETATM    4  C   UNL     1      44.532 -14.002   6.793  1.00  0.00    -0.006 A 
HETATM    5  C   UNL     1      44.278 -15.251   7.380  1.00  0.00     0.014 A 
HETATM    6  C   UNL     1      43.591 -16.257   6.692  1.00  0.00     0.010 A 
ENDROOT
BRANCH   4   7
HETATM    7  C   UNL     1      45.255 -12.968   7.537  1.00  0.00     0.082 A 
HETATM    8  N   UNL     1      46.551 -12.743   7.197  1.00  0.00    -0.240 NA
HETATM    9  C   UNL     1      47.231 -11.798   7.876  1.00  0.00     0.236 A 
HETATM   10  N   UNL     1      46.781 -11.007   8.863  1.00  0.00    -0.224 NA
HETATM   11  C   UNL     1      45.494 -11.249   9.144  1.00  0.00     0.141 A 
HETATM   12  C   UNL     1      44.668 -12.190   8.545  1.00  0.00     0.041 A 
HETATM   13  N   UNL     1      44.769 -10.581  10.093  1.00  0.00    -0.350 N 
HETATM   14  C   UNL     1      43.389 -12.051   9.160  1.00  0.00     0.034 A 
HETATM   15  C   UNL     1      43.483 -11.056  10.111  1.00  0.00     0.091 A 
HETATM   16  H   UNL     1      45.147  -9.844  10.672  1.00  0.00     0.166 HD
ENDBRANCH   4   7
BRANCH   1  17
HETATM   17  C   UNL     1      42.409 -17.120   4.600  1.00  0.00     0.217 C 
HETATM   18  C   UNL     1      41.411 -17.855   5.502  1.00  0.00     0.045 C 
BRANCH  17  19
HETATM   19  N   UNL     1      43.399 -18.110   3.954  1.00  0.00    -0.063 N 
HETATM   20  H   UNL     1      44.237 -17.563   3.724  1.00  0.00     0.280 HD
HETATM   21  C   UNL     1      43.816 -19.235   4.880  1.00  0.00     0.235 C 
HETATM   22  C   UNL     1      44.854 -20.120   4.203  1.00  0.00     0.028 C 
HETATM   23  C   UNL     1      44.353 -20.670   2.876  1.00  0.00     0.003 C 
HETATM   24  C   UNL     1      43.900 -19.538   1.968  1.00  0.00     0.028 C 
HETATM   25  C   UNL     1      42.857 -18.659   2.641  1.00  0.00     0.235 C 
ENDBRANCH  17  19
ENDBRANCH   1  17
TORSDOF 3
ENDMDL
