MODEL 1
REMARK VINA RESULT:      -7.8      0.000      0.000
REMARK  5 active torsions:
REMARK  status: ('A' for Active; 'I' for Inactive)
REMARK    1  A    between atoms: C_8  and  N_9 
REMARK       I    between atoms: N_9  and  C_10 
REMARK    2  A    between atoms: C_10  and  C_11 
REMARK    3  A    between atoms: C_11  and  N_12 
REMARK    4  A    between atoms: N_12  and  C_13 
REMARK    5  A    between atoms: C_13  and  C_14 
ROOT
HETATM    1  C   UNL     1      41.249 -16.717   2.781  1.00  0.00     0.372 C 
ENDROOT
BRANCH   1   2
HETATM    2  C   UNL     1      41.693 -16.587   4.247  1.00  0.00     0.250 C 
HETATM    3  N   UNL     1      42.539 -15.516   4.444  1.00  0.00    -0.322 N 
HETATM    4  H   UNL     1      42.731 -14.975   3.605  1.00  0.00     0.169 HD
HETATM    5  O   UNL     1      41.279 -17.370   5.093  1.00  0.00    -0.271 OA
BRANCH   3   6
HETATM    6  C   UNL     1      43.167 -15.123   5.610  1.00  0.00     0.085 A 
HETATM    7  C   UNL     1      43.016 -13.845   6.116  1.00  0.00     0.052 A 
HETATM    8  C   UNL     1      42.253 -12.664   5.649  1.00  0.00     0.072 C 
HETATM    9  N   UNL     1      43.773 -13.800   7.252  1.00  0.00    -0.280 N 
HETATM   10  H   UNL     1      43.907 -13.020   7.886  1.00  0.00     0.189 HD
HETATM   11  N   UNL     1      44.406 -14.944   7.525  1.00  0.00    -0.177 NA
HETATM   12  C   UNL     1      44.043 -15.770   6.531  1.00  0.00     0.079 A 
HETATM   13  C   UNL     1      44.584 -17.153   6.546  1.00  0.00     0.075 C 
ENDBRANCH   3   6
ENDBRANCH   1   2
BRANCH   1  14
HETATM   14  N   UNL     1      41.844 -17.928   2.155  1.00  0.00     0.100 N 
HETATM   15  H   UNL     1      41.767 -17.806   1.141  1.00  0.00     0.317 HD
BRANCH  14  16
HETATM   16  C   UNL     1      43.281 -18.041   2.471  1.00  0.00     0.250 C 
HETATM   17  C   UNL     1      44.087 -17.433   1.317  1.00  0.00     0.048 C 
BRANCH  16  18
HETATM   18  C   UNL     1      43.735 -19.471   2.717  1.00  0.00    -0.024 A 
HETATM   19  C   UNL     1      44.087 -19.919   4.004  1.00  0.00     0.036 A 
HETATM   20  C   UNL     1      44.483 -21.242   4.210  1.00  0.00     0.073 A 
HETATM   21 CL   UNL     1      44.912 -21.760   5.794  1.00  0.00    -0.081 Cl
HETATM   22  C   UNL     1      44.527 -22.127   3.137  1.00  0.00     0.138 A 
HETATM   23  F   UNL     1      44.900 -23.403   3.313  1.00  0.00    -0.204 F 
HETATM   24  C   UNL     1      44.178 -21.705   1.857  1.00  0.00     0.044 A 
HETATM   25  C   UNL     1      43.783 -20.382   1.648  1.00  0.00     0.012 A 
ENDBRANCH  16  18
ENDBRANCH  14  16
ENDBRANCH   1  14
TORSDOF 5
ENDMDL
MODEL 2
REMARK VINA RESULT:      -7.6      2.470      3.414
REMARK  5 active torsions:
REMARK  status: ('A' for Active; 'I' for Inactive)
REMARK    1  A    between atoms: C_8  and  N_9 
REMARK       I    between atoms: N_9  and  C_10 
REMARK    2  A    between atoms: C_10  and  C_11 
REMARK    3  A    between atoms: C_11  and  N_12 
REMARK    4  A    between atoms: N_12  and  C_13 
REMARK    5  A    between atoms: C_13  and  C_14 
ROOT
HETATM    1  C   UNL     1      41.213 -16.400   1.375  1.00  0.00     0.372 C 
ENDROOT
BRANCH   1   2
HETATM    2  C   UNL     1      40.254 -15.651   2.314  1.00  0.00     0.250 C 
HETATM    3  N   UNL     1      40.903 -15.119   3.408  1.00  0.00    -0.322 N 
HETATM    4  H   UNL     1      41.905 -15.291   3.424  1.00  0.00     0.169 HD
HETATM    5  O   UNL     1      39.063 -15.557   2.041  1.00  0.00    -0.271 OA
BRANCH   3   6
HETATM    6  C   UNL     1      40.361 -14.428   4.474  1.00  0.00     0.085 A 
HETATM    7  C   UNL     1      40.379 -14.947   5.756  1.00  0.00     0.052 A 
HETATM    8  C   UNL     1      40.902 -16.214   6.318  1.00  0.00     0.072 C 
HETATM    9  N   UNL     1      39.757 -14.021   6.544  1.00  0.00    -0.280 N 
HETATM   10  H   UNL     1      39.584 -14.063   7.543  1.00  0.00     0.189 HD
HETATM   11  N   UNL     1      39.335 -12.943   5.880  1.00  0.00    -0.177 NA
HETATM   12  C   UNL     1      39.700 -13.171   4.608  1.00  0.00     0.079 A 
HETATM   13  C   UNL     1      39.373 -12.136   3.596  1.00  0.00     0.075 C 
ENDBRANCH   3   6
ENDBRANCH   1   2
BRANCH   1  14
HETATM   14  N   UNL     1      41.739 -17.627   2.030  1.00  0.00     0.100 N 
HETATM   15  H   UNL     1      41.624 -18.393   1.359  1.00  0.00     0.317 HD
BRANCH  14  16
HETATM   16  C   UNL     1      43.183 -17.507   2.309  1.00  0.00     0.250 C 
HETATM   17  C   UNL     1      43.930 -17.363   0.978  1.00  0.00     0.048 C 
BRANCH  16  18
HETATM   18  C   UNL     1      43.748 -18.681   3.091  1.00  0.00    -0.024 A 
HETATM   19  C   UNL     1      43.935 -19.941   2.492  1.00  0.00     0.036 A 
HETATM   20  C   UNL     1      44.472 -21.001   3.225  1.00  0.00     0.073 A 
HETATM   21 CL   UNL     1      44.686 -22.531   2.467  1.00  0.00    -0.081 Cl
HETATM   22  C   UNL     1      44.830 -20.812   4.556  1.00  0.00     0.138 A 
HETATM   23  F   UNL     1      45.352 -21.815   5.277  1.00  0.00    -0.204 F 
HETATM   24  C   UNL     1      44.657 -19.573   5.166  1.00  0.00     0.044 A 
HETATM   25  C   UNL     1      44.118 -18.511   4.436  1.00  0.00     0.012 A 
ENDBRANCH  16  18
ENDBRANCH  14  16
ENDBRANCH   1  14
TORSDOF 5
ENDMDL
MODEL 3
REMARK VINA RESULT:      -7.6      2.479      3.279
REMARK  5 active torsions:
REMARK  status: ('A' for Active; 'I' for Inactive)
REMARK    1  A    between atoms: C_8  and  N_9 
REMARK       I    between atoms: N_9  and  C_10 
REMARK    2  A    between atoms: C_10  and  C_11 
REMARK    3  A    between atoms: C_11  and  N_12 
REMARK    4  A    between atoms: N_12  and  C_13 
REMARK    5  A    between atoms: C_13  and  C_14 
ROOT
HETATM    1  C   UNL     1      41.224 -16.415   1.370  1.00  0.00     0.372 C 
ENDROOT
BRANCH   1   2
HETATM    2  C   UNL     1      40.270 -15.644   2.297  1.00  0.00     0.250 C 
HETATM    3  N   UNL     1      40.915 -15.134   3.404  1.00  0.00    -0.322 N 
HETATM    4  H   UNL     1      41.912 -15.332   3.435  1.00  0.00     0.169 HD
HETATM    5  O   UNL     1      39.087 -15.518   2.006  1.00  0.00    -0.271 OA
BRANCH   3   6
HETATM    6  C   UNL     1      40.375 -14.433   4.464  1.00  0.00     0.085 A 
HETATM    7  C   UNL     1      40.365 -14.955   5.745  1.00  0.00     0.052 A 
HETATM    8  C   UNL     1      40.854 -16.233   6.311  1.00  0.00     0.072 C 
HETATM    9  N   UNL     1      39.753 -14.017   6.527  1.00  0.00    -0.280 N 
HETATM   10  H   UNL     1      39.566 -14.056   7.523  1.00  0.00     0.189 HD
HETATM   11  N   UNL     1      39.363 -12.929   5.859  1.00  0.00    -0.177 NA
HETATM   12  C   UNL     1      39.739 -13.163   4.592  1.00  0.00     0.079 A 
HETATM   13  C   UNL     1      39.447 -12.119   3.577  1.00  0.00     0.075 C 
ENDBRANCH   3   6
ENDBRANCH   1   2
BRANCH   1  14
HETATM   14  N   UNL     1      41.736 -17.639   2.041  1.00  0.00     0.100 N 
HETATM   15  H   UNL     1      41.654 -18.404   1.365  1.00  0.00     0.317 HD
BRANCH  14  16
HETATM   16  C   UNL     1      43.167 -17.505   2.376  1.00  0.00     0.250 C 
HETATM   17  C   UNL     1      43.973 -17.452   1.073  1.00  0.00     0.048 C 
BRANCH  16  18
HETATM   18  C   UNL     1      43.689 -18.628   3.258  1.00  0.00    -0.024 A 
HETATM   19  C   UNL     1      43.585 -18.569   4.661  1.00  0.00     0.036 A 
HETATM   20  C   UNL     1      44.055 -19.621   5.450  1.00  0.00     0.073 A 
HETATM   21 CL   UNL     1      43.918 -19.519   7.163  1.00  0.00    -0.081 Cl
HETATM   22  C   UNL     1      44.625 -20.738   4.848  1.00  0.00     0.138 A 
HETATM   23  F   UNL     1      45.078 -21.762   5.588  1.00  0.00    -0.204 F 
HETATM   24  C   UNL     1      44.733 -20.818   3.463  1.00  0.00     0.044 A 
HETATM   25  C   UNL     1      44.265 -19.767   2.671  1.00  0.00     0.012 A 
ENDBRANCH  16  18
ENDBRANCH  14  16
ENDBRANCH   1  14
TORSDOF 5
ENDMDL
MODEL 4
REMARK VINA RESULT:      -7.5      4.596      6.605
REMARK  5 active torsions:
REMARK  status: ('A' for Active; 'I' for Inactive)
REMARK    1  A    between atoms: C_8  and  N_9 
REMARK       I    between atoms: N_9  and  C_10 
REMARK    2  A    between atoms: C_10  and  C_11 
REMARK    3  A    between atoms: C_11  and  N_12 
REMARK    4  A    between atoms: N_12  and  C_13 
REMARK    5  A    between atoms: C_13  and  C_14 
ROOT
HETATM    1  C   UNL     1      41.379 -16.667   0.223  1.00  0.00     0.372 C 
ENDROOT
BRANCH   1   2
HETATM    2  C   UNL     1      41.185 -15.267  -0.379  1.00  0.00     0.250 C 
HETATM    3  N   UNL     1      40.716 -15.315  -1.675  1.00  0.00    -0.322 N 
HETATM    4  H   UNL     1      40.561 -16.256  -2.028  1.00  0.00     0.169 HD
HETATM    5  O   UNL     1      41.418 -14.265   0.288  1.00  0.00    -0.271 OA
BRANCH   3   6
HETATM    6  C   UNL     1      40.471 -14.265  -2.538  1.00  0.00     0.085 A 
HETATM    7  C   UNL     1      39.233 -14.089  -3.130  1.00  0.00     0.052 A 
HETATM    8  C   UNL     1      37.964 -14.849  -3.045  1.00  0.00     0.072 C 
HETATM    9  N   UNL     1      39.348 -12.980  -3.918  1.00  0.00    -0.280 N 
HETATM   10  H   UNL     1      38.641 -12.552  -4.505  1.00  0.00     0.189 HD
HETATM   11  N   UNL     1      40.560 -12.421  -3.889  1.00  0.00    -0.177 NA
HETATM   12  C   UNL     1      41.263 -13.192  -3.044  1.00  0.00     0.079 A 
HETATM   13  C   UNL     1      42.679 -12.827  -2.786  1.00  0.00     0.075 C 
ENDBRANCH   3   6
ENDBRANCH   1   2
BRANCH   1  14
HETATM   14  N   UNL     1      42.759 -16.826   0.754  1.00  0.00     0.100 N 
HETATM   15  H   UNL     1      43.273 -15.977   0.502  1.00  0.00     0.317 HD
BRANCH  14  16
HETATM   16  C   UNL     1      42.758 -16.912   2.228  1.00  0.00     0.250 C 
HETATM   17  C   UNL     1      43.504 -15.697   2.790  1.00  0.00     0.048 C 
BRANCH  16  18
HETATM   18  C   UNL     1      43.383 -18.191   2.759  1.00  0.00    -0.024 A 
HETATM   19  C   UNL     1      43.470 -19.351   1.966  1.00  0.00     0.036 A 
HETATM   20  C   UNL     1      44.065 -20.510   2.469  1.00  0.00     0.073 A 
HETATM   21 CL   UNL     1      44.153 -21.914   1.478  1.00  0.00    -0.081 Cl
HETATM   22  C   UNL     1      44.581 -20.519   3.762  1.00  0.00     0.138 A 
HETATM   23  F   UNL     1      45.161 -21.620   4.263  1.00  0.00    -0.204 F 
HETATM   24  C   UNL     1      44.510 -19.381   4.560  1.00  0.00     0.044 A 
HETATM   25  C   UNL     1      43.913 -18.221   4.060  1.00  0.00     0.012 A 
ENDBRANCH  16  18
ENDBRANCH  14  16
ENDBRANCH   1  14
TORSDOF 5
ENDMDL
MODEL 5
REMARK VINA RESULT:      -7.5      2.133      4.475
REMARK  5 active torsions:
REMARK  status: ('A' for Active; 'I' for Inactive)
REMARK    1  A    between atoms: C_8  and  N_9 
REMARK       I    between atoms: N_9  and  C_10 
REMARK    2  A    between atoms: C_10  and  C_11 
REMARK    3  A    between atoms: C_11  and  N_12 
REMARK    4  A    between atoms: N_12  and  C_13 
REMARK    5  A    between atoms: C_13  and  C_14 
ROOT
HETATM    1  C   UNL     1      42.440 -15.552   5.332  1.00  0.00     0.372 C 
ENDROOT
BRANCH   1   2
HETATM    2  C   UNL     1      41.523 -15.375   4.112  1.00  0.00     0.250 C 
HETATM    3  N   UNL     1      42.224 -15.385   2.925  1.00  0.00    -0.322 N 
HETATM    4  H   UNL     1      43.226 -15.517   3.032  1.00  0.00     0.169 HD
HETATM    5  O   UNL     1      40.310 -15.268   4.256  1.00  0.00    -0.271 OA
BRANCH   3   6
HETATM    6  C   UNL     1      41.741 -15.208   1.642  1.00  0.00     0.085 A 
HETATM    7  C   UNL     1      41.221 -16.262   0.914  1.00  0.00     0.052 A 
HETATM    8  C   UNL     1      41.039 -17.700   1.221  1.00  0.00     0.072 C 
HETATM    9  N   UNL     1      40.857 -15.740  -0.294  1.00  0.00    -0.280 N 
HETATM   10  H   UNL     1      40.441 -16.219  -1.085  1.00  0.00     0.189 HD
HETATM   11  N   UNL     1      41.100 -14.432  -0.412  1.00  0.00    -0.177 NA
HETATM   12  C   UNL     1      41.638 -14.086   0.768  1.00  0.00     0.079 A 
HETATM   13  C   UNL     1      42.024 -12.666   0.965  1.00  0.00     0.075 C 
ENDBRANCH   3   6
ENDBRANCH   1   2
BRANCH   1  14
HETATM   14  N   UNL     1      43.669 -16.303   4.963  1.00  0.00     0.100 N 
HETATM   15  H   UNL     1      44.465 -15.751   5.296  1.00  0.00     0.317 HD
BRANCH  14  16
HETATM   16  C   UNL     1      43.726 -17.607   5.652  1.00  0.00     0.250 C 
HETATM   17  C   UNL     1      44.786 -17.532   6.757  1.00  0.00     0.048 C 
BRANCH  16  18
HETATM   18  C   UNL     1      44.034 -18.769   4.722  1.00  0.00    -0.024 A 
HETATM   19  C   UNL     1      44.449 -20.019   5.219  1.00  0.00     0.036 A 
HETATM   20  C   UNL     1      44.709 -21.077   4.347  1.00  0.00     0.073 A 
HETATM   21 CL   UNL     1      45.219 -22.593   4.984  1.00  0.00    -0.081 Cl
HETATM   22  C   UNL     1      44.553 -20.900   2.975  1.00  0.00     0.138 A 
HETATM   23  F   UNL     1      44.792 -21.905   2.120  1.00  0.00    -0.204 F 
HETATM   24  C   UNL     1      44.139 -19.674   2.463  1.00  0.00     0.044 A 
HETATM   25  C   UNL     1      43.880 -18.612   3.334  1.00  0.00     0.012 A 
ENDBRANCH  16  18
ENDBRANCH  14  16
ENDBRANCH   1  14
TORSDOF 5
ENDMDL
MODEL 6
REMARK VINA RESULT:      -7.5      2.132      4.627
REMARK  5 active torsions:
REMARK  status: ('A' for Active; 'I' for Inactive)
REMARK    1  A    between atoms: C_8  and  N_9 
REMARK       I    between atoms: N_9  and  C_10 
REMARK    2  A    between atoms: C_10  and  C_11 
REMARK    3  A    between atoms: C_11  and  N_12 
REMARK    4  A    between atoms: N_12  and  C_13 
REMARK    5  A    between atoms: C_13  and  C_14 
ROOT
HETATM    1  C   UNL     1      42.455 -15.747   5.757  1.00  0.00     0.372 C 
ENDROOT
BRANCH   1   2
HETATM    2  C   UNL     1      42.467 -15.380   4.264  1.00  0.00     0.250 C 
HETATM    3  N   UNL     1      41.687 -16.232   3.510  1.00  0.00    -0.322 N 
HETATM    4  H   UNL     1      41.220 -16.957   4.048  1.00  0.00     0.169 HD
HETATM    5  O   UNL     1      43.101 -14.410   3.867  1.00  0.00    -0.271 OA
BRANCH   3   6
HETATM    6  C   UNL     1      41.498 -16.236   2.142  1.00  0.00     0.085 A 
HETATM    7  C   UNL     1      40.393 -15.639   1.564  1.00  0.00     0.052 A 
HETATM    8  C   UNL     1      39.232 -14.914   2.131  1.00  0.00     0.072 C 
HETATM    9  N   UNL     1      40.519 -15.840   0.219  1.00  0.00    -0.280 N 
HETATM   10  H   UNL     1      39.892 -15.543  -0.521  1.00  0.00     0.189 HD
HETATM   11  N   UNL     1      41.615 -16.521  -0.125  1.00  0.00    -0.177 NA
HETATM   12  C   UNL     1      42.232 -16.769   1.041  1.00  0.00     0.079 A 
HETATM   13  C   UNL     1      43.511 -17.522   1.003  1.00  0.00     0.075 C 
ENDBRANCH   3   6
ENDBRANCH   1   2
BRANCH   1  14
HETATM   14  N   UNL     1      43.597 -16.640   6.089  1.00  0.00     0.100 N 
HETATM   15  H   UNL     1      44.205 -16.119   6.728  1.00  0.00     0.317 HD
BRANCH  14  16
HETATM   16  C   UNL     1      43.142 -17.846   6.807  1.00  0.00     0.250 C 
HETATM   17  C   UNL     1      43.603 -17.751   8.266  1.00  0.00     0.048 C 
BRANCH  16  18
HETATM   18  C   UNL     1      43.645 -19.142   6.192  1.00  0.00    -0.024 A 
HETATM   19  C   UNL     1      44.066 -19.203   4.850  1.00  0.00     0.036 A 
HETATM   20  C   UNL     1      44.541 -20.401   4.312  1.00  0.00     0.073 A 
HETATM   21 CL   UNL     1      45.044 -20.447   2.667  1.00  0.00    -0.081 Cl
HETATM   22  C   UNL     1      44.605 -21.541   5.107  1.00  0.00     0.138 A 
HETATM   23  F   UNL     1      45.063 -22.700   4.611  1.00  0.00    -0.204 F 
HETATM   24  C   UNL     1      44.199 -21.500   6.437  1.00  0.00     0.044 A 
HETATM   25  C   UNL     1      43.721 -20.304   6.978  1.00  0.00     0.012 A 
ENDBRANCH  16  18
ENDBRANCH  14  16
ENDBRANCH   1  14
TORSDOF 5
ENDMDL
MODEL 7
REMARK VINA RESULT:      -7.3      3.510      5.909
REMARK  5 active torsions:
REMARK  status: ('A' for Active; 'I' for Inactive)
REMARK    1  A    between atoms: C_8  and  N_9 
REMARK       I    between atoms: N_9  and  C_10 
REMARK    2  A    between atoms: C_10  and  C_11 
REMARK    3  A    between atoms: C_11  and  N_12 
REMARK    4  A    between atoms: N_12  and  C_13 
REMARK    5  A    between atoms: C_13  and  C_14 
ROOT
HETATM    1  C   UNL     1      42.171 -17.015   1.380  1.00  0.00     0.372 C 
ENDROOT
BRANCH   1   2
HETATM    2  C   UNL     1      43.395 -17.831   1.825  1.00  0.00     0.250 C 
HETATM    3  N   UNL     1      43.049 -18.897   2.628  1.00  0.00    -0.322 N 
HETATM    4  H   UNL     1      42.050 -18.988   2.794  1.00  0.00     0.169 HD
HETATM    5  O   UNL     1      44.519 -17.522   1.447  1.00  0.00    -0.271 OA
BRANCH   3   6
HETATM    6  C   UNL     1      43.880 -19.811   3.246  1.00  0.00     0.085 A 
HETATM    7  C   UNL     1      44.093 -21.069   2.713  1.00  0.00     0.052 A 
HETATM    8  C   UNL     1      43.580 -21.743   1.497  1.00  0.00     0.072 C 
HETATM    9  N   UNL     1      44.944 -21.702   3.573  1.00  0.00    -0.280 N 
HETATM   10  H   UNL     1      45.318 -22.642   3.507  1.00  0.00     0.189 HD
HETATM   11  N   UNL     1      45.300 -20.959   4.624  1.00  0.00    -0.177 NA
HETATM   12  C   UNL     1      44.661 -19.793   4.439  1.00  0.00     0.079 A 
HETATM   13  C   UNL     1      44.856 -18.726   5.453  1.00  0.00     0.075 C 
ENDBRANCH   3   6
ENDBRANCH   1   2
BRANCH   1  14
HETATM   14  N   UNL     1      41.089 -17.089   2.397  1.00  0.00     0.100 N 
HETATM   15  H   UNL     1      41.323 -17.867   3.021  1.00  0.00     0.317 HD
BRANCH  14  16
HETATM   16  C   UNL     1      41.047 -15.867   3.223  1.00  0.00     0.250 C 
HETATM   17  C   UNL     1      41.721 -14.728   2.448  1.00  0.00     0.048 C 
BRANCH  16  18
HETATM   18  C   UNL     1      41.714 -16.030   4.579  1.00  0.00    -0.024 A 
HETATM   19  C   UNL     1      42.816 -15.241   4.957  1.00  0.00     0.036 A 
HETATM   20  C   UNL     1      43.401 -15.396   6.215  1.00  0.00     0.073 A 
HETATM   21 CL   UNL     1      44.751 -14.420   6.647  1.00  0.00    -0.081 Cl
HETATM   22  C   UNL     1      42.889 -16.335   7.106  1.00  0.00     0.138 A 
HETATM   23  F   UNL     1      43.432 -16.496   8.322  1.00  0.00    -0.204 F 
HETATM   24  C   UNL     1      41.796 -17.121   6.755  1.00  0.00     0.044 A 
HETATM   25  C   UNL     1      41.210 -16.969   5.496  1.00  0.00     0.012 A 
ENDBRANCH  16  18
ENDBRANCH  14  16
ENDBRANCH   1  14
TORSDOF 5
ENDMDL
MODEL 8
REMARK VINA RESULT:      -7.3      1.794      2.219
REMARK  5 active torsions:
REMARK  status: ('A' for Active; 'I' for Inactive)
REMARK    1  A    between atoms: C_8  and  N_9 
REMARK       I    between atoms: N_9  and  C_10 
REMARK    2  A    between atoms: C_10  and  C_11 
REMARK    3  A    between atoms: C_11  and  N_12 
REMARK    4  A    between atoms: N_12  and  C_13 
REMARK    5  A    between atoms: C_13  and  C_14 
ROOT
HETATM    1  C   UNL     1      41.104 -15.170   2.919  1.00  0.00     0.372 C 
ENDROOT
BRANCH   1   2
HETATM    2  C   UNL     1      42.228 -14.506   3.730  1.00  0.00     0.250 C 
HETATM    3  N   UNL     1      42.196 -14.866   5.061  1.00  0.00    -0.322 N 
HETATM    4  H   UNL     1      41.451 -15.515   5.300  1.00  0.00     0.169 HD
HETATM    5  O   UNL     1      43.040 -13.770   3.181  1.00  0.00    -0.271 OA
BRANCH   3   6
HETATM    6  C   UNL     1      43.014 -14.433   6.086  1.00  0.00     0.085 A 
HETATM    7  C   UNL     1      42.900 -13.159   6.612  1.00  0.00     0.052 A 
HETATM    8  C   UNL     1      42.006 -12.020   6.298  1.00  0.00     0.072 C 
HETATM    9  N   UNL     1      43.856 -13.067   7.583  1.00  0.00    -0.280 N 
HETATM   10  H   UNL     1      44.069 -12.276   8.181  1.00  0.00     0.189 HD
HETATM   11  N   UNL     1      44.583 -14.177   7.731  1.00  0.00    -0.177 NA
HETATM   12  C   UNL     1      44.079 -15.029   6.824  1.00  0.00     0.079 A 
HETATM   13  C   UNL     1      44.679 -16.384   6.735  1.00  0.00     0.075 C 
ENDBRANCH   3   6
ENDBRANCH   1   2
BRANCH   1  14
HETATM   14  N   UNL     1      41.133 -16.647   3.089  1.00  0.00     0.100 N 
HETATM   15  H   UNL     1      40.180 -16.983   2.926  1.00  0.00     0.317 HD
BRANCH  14  16
HETATM   16  C   UNL     1      41.998 -17.285   2.077  1.00  0.00     0.250 C 
HETATM   17  C   UNL     1      41.113 -17.834   0.952  1.00  0.00     0.048 C 
BRANCH  16  18
HETATM   18  C   UNL     1      42.866 -18.398   2.640  1.00  0.00    -0.024 A 
HETATM   19  C   UNL     1      43.127 -19.570   1.904  1.00  0.00     0.036 A 
HETATM   20  C   UNL     1      43.942 -20.572   2.433  1.00  0.00     0.073 A 
HETATM   21 CL   UNL     1      44.239 -21.995   1.512  1.00  0.00    -0.081 Cl
HETATM   22  C   UNL     1      44.507 -20.411   3.695  1.00  0.00     0.138 A 
HETATM   23  F   UNL     1      45.297 -21.360   4.220  1.00  0.00    -0.204 F 
HETATM   24  C   UNL     1      44.266 -19.259   4.437  1.00  0.00     0.044 A 
HETATM   25  C   UNL     1      43.449 -18.255   3.910  1.00  0.00     0.012 A 
ENDBRANCH  16  18
ENDBRANCH  14  16
ENDBRANCH   1  14
TORSDOF 5
ENDMDL
MODEL 9
REMARK VINA RESULT:      -7.2      3.004      5.236
REMARK  5 active torsions:
REMARK  status: ('A' for Active; 'I' for Inactive)
REMARK    1  A    between atoms: C_8  and  N_9 
REMARK       I    between atoms: N_9  and  C_10 
REMARK    2  A    between atoms: C_10  and  C_11 
REMARK    3  A    between atoms: C_11  and  N_12 
REMARK    4  A    between atoms: N_12  and  C_13 
REMARK    5  A    between atoms: C_13  and  C_14 
ROOT
HETATM    1  C   UNL     1      41.100 -15.085   6.211  1.00  0.00     0.372 C 
ENDROOT
BRANCH   1   2
HETATM    2  C   UNL     1      41.025 -14.459   4.810  1.00  0.00     0.250 C 
HETATM    3  N   UNL     1      40.014 -15.003   4.047  1.00  0.00    -0.322 N 
HETATM    4  H   UNL     1      39.471 -15.719   4.522  1.00  0.00     0.169 HD
HETATM    5  O   UNL     1      41.795 -13.562   4.488  1.00  0.00    -0.271 OA
BRANCH   3   6
HETATM    6  C   UNL     1      39.683 -14.722   2.735  1.00  0.00     0.085 A 
HETATM    7  C   UNL     1      39.893 -15.641   1.724  1.00  0.00     0.052 A 
HETATM    8  C   UNL     1      40.454 -17.013   1.715  1.00  0.00     0.072 C 
HETATM    9  N   UNL     1      39.470 -15.037   0.575  1.00  0.00    -0.280 N 
HETATM   10  H   UNL     1      39.475 -15.411  -0.369  1.00  0.00     0.189 HD
HETATM   11  N   UNL     1      39.004 -13.799   0.755  1.00  0.00    -0.177 NA
HETATM   12  C   UNL     1      39.122 -13.589   2.076  1.00  0.00     0.079 A 
HETATM   13  C   UNL     1      38.676 -12.278   2.612  1.00  0.00     0.075 C 
ENDBRANCH   3   6
ENDBRANCH   1   2
BRANCH   1  14
HETATM   14  N   UNL     1      42.463 -15.614   6.480  1.00  0.00     0.100 N 
HETATM   15  H   UNL     1      42.785 -15.177   7.348  1.00  0.00     0.317 HD
BRANCH  14  16
HETATM   16  C   UNL     1      42.435 -17.072   6.711  1.00  0.00     0.250 C 
HETATM   17  C   UNL     1      43.115 -17.368   8.053  1.00  0.00     0.048 C 
BRANCH  16  18
HETATM   18  C   UNL     1      43.106 -17.872   5.607  1.00  0.00    -0.024 A 
HETATM   19  C   UNL     1      43.266 -17.345   4.311  1.00  0.00     0.036 A 
HETATM   20  C   UNL     1      43.901 -18.092   3.317  1.00  0.00     0.073 A 
HETATM   21 CL   UNL     1      44.078 -17.424   1.741  1.00  0.00    -0.081 Cl
HETATM   22  C   UNL     1      44.385 -19.364   3.608  1.00  0.00     0.138 A 
HETATM   23  F   UNL     1      45.003 -20.096   2.669  1.00  0.00    -0.204 F 
HETATM   24  C   UNL     1      44.242 -19.901   4.884  1.00  0.00     0.044 A 
HETATM   25  C   UNL     1      43.604 -19.157   5.880  1.00  0.00     0.012 A 
ENDBRANCH  16  18
ENDBRANCH  14  16
ENDBRANCH   1  14
TORSDOF 5
ENDMDL
MODEL 10
REMARK VINA RESULT:      -7.0      3.395      5.215
REMARK  5 active torsions:
REMARK  status: ('A' for Active; 'I' for Inactive)
REMARK    1  A    between atoms: C_8  and  N_9 
REMARK       I    between atoms: N_9  and  C_10 
REMARK    2  A    between atoms: C_10  and  C_11 
REMARK    3  A    between atoms: C_11  and  N_12 
REMARK    4  A    between atoms: N_12  and  C_13 
REMARK    5  A    between atoms: C_13  and  C_14 
ROOT
HETATM    1  C   UNL     1      41.181 -15.981   3.539  1.00  0.00     0.372 C 
ENDROOT
BRANCH   1   2
HETATM    2  C   UNL     1      40.394 -14.886   2.802  1.00  0.00     0.250 C 
HETATM    3  N   UNL     1      40.384 -15.078   1.437  1.00  0.00    -0.322 N 
HETATM    4  H   UNL     1      40.883 -15.908   1.128  1.00  0.00     0.169 HD
HETATM    5  O   UNL     1      39.842 -13.988   3.428  1.00  0.00    -0.271 OA
BRANCH   3   6
HETATM    6  C   UNL     1      39.821 -14.277   0.462  1.00  0.00     0.085 A 
HETATM    7  C   UNL     1      40.598 -13.646  -0.492  1.00  0.00     0.052 A 
HETATM    8  C   UNL     1      42.057 -13.624  -0.743  1.00  0.00     0.072 C 
HETATM    9  N   UNL     1      39.729 -12.939  -1.274  1.00  0.00    -0.280 N 
HETATM   10  H   UNL     1      39.941 -12.352  -2.074  1.00  0.00     0.189 HD
HETATM   11  N   UNL     1      38.452 -13.058  -0.906  1.00  0.00    -0.177 NA
HETATM   12  C   UNL     1      38.486 -13.879   0.156  1.00  0.00     0.079 A 
HETATM   13  C   UNL     1      37.198 -14.222   0.810  1.00  0.00     0.075 C 
ENDBRANCH   3   6
ENDBRANCH   1   2
BRANCH   1  14
HETATM   14  N   UNL     1      41.559 -17.076   2.607  1.00  0.00     0.100 N 
HETATM   15  H   UNL     1      41.160 -16.839   1.694  1.00  0.00     0.317 HD
BRANCH  14  16
HETATM   16  C   UNL     1      43.023 -17.152   2.437  1.00  0.00     0.250 C 
HETATM   17  C   UNL     1      43.344 -17.125   0.938  1.00  0.00     0.048 C 
BRANCH  16  18
HETATM   18  C   UNL     1      43.643 -18.384   3.074  1.00  0.00    -0.024 A 
HETATM   19  C   UNL     1      43.815 -19.578   2.349  1.00  0.00     0.036 A 
HETATM   20  C   UNL     1      44.404 -20.693   2.950  1.00  0.00     0.073 A 
HETATM   21 CL   UNL     1      44.597 -22.141   2.040  1.00  0.00    -0.081 Cl
HETATM   22  C   UNL     1      44.828 -20.623   4.274  1.00  0.00     0.138 A 
HETATM   23  F   UNL     1      45.401 -21.680   4.869  1.00  0.00    -0.204 F 
HETATM   24  C   UNL     1      44.672 -19.450   5.006  1.00  0.00     0.044 A 
HETATM   25  C   UNL     1      44.082 -18.334   4.408  1.00  0.00     0.012 A 
ENDBRANCH  16  18
ENDBRANCH  14  16
ENDBRANCH   1  14
TORSDOF 5
ENDMDL
