MODEL 1
REMARK VINA RESULT:      -7.8      0.000      0.000
REMARK  7 active torsions:
REMARK  status: ('A' for Active; 'I' for Inactive)
REMARK    1  A    between atoms: N_3  and  C_4 
REMARK    2  A    between atoms: C_12  and  C_13 
REMARK       I    between atoms: C_13  and  N_14 
REMARK    3  A    between atoms: N_14  and  C_15 
REMARK    4  A    between atoms: C_15  and  C_16 
REMARK    5  A    between atoms: C_16  and  O_17 
REMARK    6  A    between atoms: C_16  and  C_18 
REMARK    7  A    between atoms: C_21  and  O_22 
ROOT
HETATM    1  C   UNL     1      42.702 -16.385   4.857  1.00  0.00     0.255 C 
HETATM    2  N   UNL     1      43.217 -16.113   3.612  1.00  0.00    -0.350 N 
HETATM    3  O   UNL     1      41.819 -17.221   5.026  1.00  0.00    -0.268 OA
HETATM    4  H   UNL     1      43.927 -15.406   3.494  1.00  0.00     0.163 HD
ENDROOT
BRANCH   2   5
HETATM    5  C   UNL     1      42.677 -16.738   2.397  1.00  0.00     0.114 C 
HETATM    6  C   UNL     1      42.000 -15.669   1.536  1.00  0.00     0.035 C 
BRANCH   5   7
HETATM    7  C   UNL     1      43.800 -17.512   1.651  1.00  0.00     0.173 C 
BRANCH   7   8
HETATM    8  O   UNL     1      43.571 -17.511   0.238  1.00  0.00    -0.389 OA
HETATM    9  H   UNL     1      42.978 -18.258   0.047  1.00  0.00     0.210 HD
ENDBRANCH   7   8
BRANCH   7  10
HETATM   10  C   UNL     1      44.019 -18.918   2.178  1.00  0.00    -0.028 A 
HETATM   11  C   UNL     1      44.665 -19.098   3.408  1.00  0.00     0.012 A 
HETATM   12  C   UNL     1      44.855 -20.378   3.933  1.00  0.00     0.037 A 
HETATM   13  C   UNL     1      44.398 -21.504   3.247  1.00  0.00     0.068 A 
HETATM   14  C   UNL     1      43.757 -21.338   2.019  1.00  0.00     0.037 A 
HETATM   15  C   UNL     1      43.571 -20.054   1.488  1.00  0.00     0.012 A 
BRANCH  13  16
HETATM   16  O   UNL     1      44.640 -22.692   3.877  1.00  0.00    -0.356 OA
HETATM   17  C   UNL     1      45.151 -22.625   5.201  1.00  0.00     0.210 C 
ENDBRANCH  13  16
ENDBRANCH   7  10
ENDBRANCH   5   7
ENDBRANCH   2   5
BRANCH   1  18
HETATM   18  C   UNL     1      43.289 -15.679   5.987  1.00  0.00     0.075 C 
HETATM   19  C   UNL     1      43.473 -14.327   6.271  1.00  0.00     0.051 C 
HETATM   20  C   UNL     1      43.031 -13.101   5.553  1.00  0.00     0.071 C 
HETATM   21  N   UNL     1      44.183 -14.274   7.478  1.00  0.00    -0.220 N 
HETATM   22  N   UNL     1      44.292 -15.510   8.040  1.00  0.00    -0.177 NA
HETATM   23  C   UNL     1      43.781 -16.336   7.135  1.00  0.00     0.158 C 
BRANCH  21  24
HETATM   24  C   UNL     1      44.776 -13.138   8.130  1.00  0.00     0.150 A 
HETATM   25  N   UNL     1      44.048 -12.429   9.036  1.00  0.00    -0.241 NA
HETATM   26  C   UNL     1      44.639 -11.358   9.609  1.00  0.00     0.119 A 
HETATM   27  C   UNL     1      45.931 -10.946   9.332  1.00  0.00     0.019 A 
HETATM   28  C   UNL     1      46.665 -11.672   8.405  1.00  0.00     0.005 A 
HETATM   29  C   UNL     1      46.084 -12.781   7.791  1.00  0.00     0.052 A 
ENDBRANCH  21  24
ENDBRANCH   1  18
TORSDOF 7
ENDMDL
MODEL 2
REMARK VINA RESULT:      -7.8      5.141      8.628
REMARK  7 active torsions:
REMARK  status: ('A' for Active; 'I' for Inactive)
REMARK    1  A    between atoms: N_3  and  C_4 
REMARK    2  A    between atoms: C_12  and  C_13 
REMARK       I    between atoms: C_13  and  N_14 
REMARK    3  A    between atoms: N_14  and  C_15 
REMARK    4  A    between atoms: C_15  and  C_16 
REMARK    5  A    between atoms: C_16  and  O_17 
REMARK    6  A    between atoms: C_16  and  C_18 
REMARK    7  A    between atoms: C_21  and  O_22 
ROOT
HETATM    1  C   UNL     1      41.028 -15.474   0.862  1.00  0.00     0.255 C 
HETATM    2  N   UNL     1      41.885 -15.081  -0.138  1.00  0.00    -0.350 N 
HETATM    3  O   UNL     1      39.851 -15.125   0.883  1.00  0.00    -0.268 OA
HETATM    4  H   UNL     1      42.853 -15.364  -0.123  1.00  0.00     0.163 HD
ENDROOT
BRANCH   2   5
HETATM    5  C   UNL     1      41.470 -14.144  -1.189  1.00  0.00     0.114 C 
HETATM    6  C   UNL     1      42.490 -13.005  -1.284  1.00  0.00     0.035 C 
BRANCH   5   7
HETATM    7  C   UNL     1      41.265 -14.902  -2.531  1.00  0.00     0.173 C 
BRANCH   7   8
HETATM    8  O   UNL     1      42.239 -14.500  -3.500  1.00  0.00    -0.389 OA
HETATM    9  H   UNL     1      42.617 -15.315  -3.875  1.00  0.00     0.210 HD
ENDBRANCH   7   8
BRANCH   7  10
HETATM   10  C   UNL     1      39.856 -14.792  -3.080  1.00  0.00    -0.028 A 
HETATM   11  C   UNL     1      39.356 -15.814  -3.899  1.00  0.00     0.012 A 
HETATM   12  C   UNL     1      38.052 -15.755  -4.396  1.00  0.00     0.037 A 
HETATM   13  C   UNL     1      37.217 -14.683  -4.079  1.00  0.00     0.068 A 
HETATM   14  C   UNL     1      37.705 -13.658  -3.269  1.00  0.00     0.037 A 
HETATM   15  C   UNL     1      39.015 -13.712  -2.774  1.00  0.00     0.012 A 
BRANCH  13  16
HETATM   16  O   UNL     1      35.965 -14.757  -4.623  1.00  0.00    -0.356 OA
HETATM   17  C   UNL     1      35.442 -13.567  -5.197  1.00  0.00     0.210 C 
ENDBRANCH  13  16
ENDBRANCH   7  10
ENDBRANCH   5   7
ENDBRANCH   2   5
BRANCH   1  18
HETATM   18  C   UNL     1      41.557 -16.378   1.874  1.00  0.00     0.075 C 
HETATM   19  C   UNL     1      42.692 -17.186   1.926  1.00  0.00     0.051 C 
HETATM   20  C   UNL     1      43.840 -17.331   0.991  1.00  0.00     0.071 C 
HETATM   21  N   UNL     1      42.610 -17.897   3.130  1.00  0.00    -0.220 N 
HETATM   22  N   UNL     1      41.582 -17.445   3.901  1.00  0.00    -0.177 NA
HETATM   23  C   UNL     1      40.951 -16.563   3.135  1.00  0.00     0.158 C 
BRANCH  21  24
HETATM   24  C   UNL     1      43.428 -18.984   3.597  1.00  0.00     0.150 A 
HETATM   25  N   UNL     1      43.877 -18.980   4.882  1.00  0.00    -0.241 NA
HETATM   26  C   UNL     1      44.660 -20.010   5.271  1.00  0.00     0.119 A 
HETATM   27  C   UNL     1      45.025 -21.060   4.447  1.00  0.00     0.019 A 
HETATM   28  C   UNL     1      44.566 -21.054   3.137  1.00  0.00     0.005 A 
HETATM   29  C   UNL     1      43.760 -20.003   2.702  1.00  0.00     0.052 A 
ENDBRANCH  21  24
ENDBRANCH   1  18
TORSDOF 7
ENDMDL
MODEL 3
REMARK VINA RESULT:      -7.6      3.246      7.395
REMARK  7 active torsions:
REMARK  status: ('A' for Active; 'I' for Inactive)
REMARK    1  A    between atoms: N_3  and  C_4 
REMARK    2  A    between atoms: C_12  and  C_13 
REMARK       I    between atoms: C_13  and  N_14 
REMARK    3  A    between atoms: N_14  and  C_15 
REMARK    4  A    between atoms: C_15  and  C_16 
REMARK    5  A    between atoms: C_16  and  O_17 
REMARK    6  A    between atoms: C_16  and  C_18 
REMARK    7  A    between atoms: C_21  and  O_22 
ROOT
HETATM    1  C   UNL     1      42.957 -14.445   3.009  1.00  0.00     0.255 C 
HETATM    2  N   UNL     1      42.428 -15.345   3.902  1.00  0.00    -0.350 N 
HETATM    3  O   UNL     1      44.068 -13.947   3.169  1.00  0.00    -0.268 OA
HETATM    4  H   UNL     1      41.504 -15.725   3.761  1.00  0.00     0.163 HD
ENDROOT
BRANCH   2   5
HETATM    5  C   UNL     1      43.119 -15.695   5.150  1.00  0.00     0.114 C 
HETATM    6  C   UNL     1      42.871 -14.599   6.190  1.00  0.00     0.035 C 
BRANCH   5   7
HETATM    7  C   UNL     1      42.679 -17.108   5.626  1.00  0.00     0.173 C 
BRANCH   7   8
HETATM    8  O   UNL     1      42.898 -17.267   7.032  1.00  0.00    -0.389 OA
HETATM    9  H   UNL     1      42.477 -16.506   7.469  1.00  0.00     0.210 HD
ENDBRANCH   7   8
BRANCH   7  10
HETATM   10  C   UNL     1      43.311 -18.238   4.834  1.00  0.00    -0.028 A 
HETATM   11  C   UNL     1      42.870 -18.491   3.528  1.00  0.00     0.012 A 
HETATM   12  C   UNL     1      43.453 -19.505   2.764  1.00  0.00     0.037 A 
HETATM   13  C   UNL     1      44.492 -20.279   3.282  1.00  0.00     0.068 A 
HETATM   14  C   UNL     1      44.936 -20.039   4.582  1.00  0.00     0.037 A 
HETATM   15  C   UNL     1      44.349 -19.026   5.352  1.00  0.00     0.012 A 
BRANCH  13  16
HETATM   16  O   UNL     1      44.976 -21.228   2.425  1.00  0.00    -0.356 OA
HETATM   17  C   UNL     1      44.030 -21.895   1.601  1.00  0.00     0.210 C 
ENDBRANCH  13  16
ENDBRANCH   7  10
ENDBRANCH   5   7
ENDBRANCH   2   5
BRANCH   1  18
HETATM   18  C   UNL     1      42.167 -14.144   1.823  1.00  0.00     0.075 C 
HETATM   19  C   UNL     1      41.390 -14.931   0.974  1.00  0.00     0.051 C 
HETATM   20  C   UNL     1      40.999 -16.365   1.046  1.00  0.00     0.071 C 
HETATM   21  N   UNL     1      40.950 -14.083  -0.051  1.00  0.00    -0.220 N 
HETATM   22  N   UNL     1      41.267 -12.785   0.212  1.00  0.00    -0.177 NA
HETATM   23  C   UNL     1      42.010 -12.838   1.311  1.00  0.00     0.158 C 
BRANCH  21  24
HETATM   24  C   UNL     1      40.262 -14.417  -1.269  1.00  0.00     0.150 A 
HETATM   25  N   UNL     1      38.979 -14.002  -1.449  1.00  0.00    -0.241 NA
HETATM   26  C   UNL     1      38.364 -14.356  -2.599  1.00  0.00     0.119 A 
HETATM   27  C   UNL     1      38.962 -15.108  -3.596  1.00  0.00     0.019 A 
HETATM   28  C   UNL     1      40.270 -15.530  -3.402  1.00  0.00     0.005 A 
HETATM   29  C   UNL     1      40.931 -15.186  -2.225  1.00  0.00     0.052 A 
ENDBRANCH  21  24
ENDBRANCH   1  18
TORSDOF 7
ENDMDL
MODEL 4
REMARK VINA RESULT:      -7.6      5.095      8.559
REMARK  7 active torsions:
REMARK  status: ('A' for Active; 'I' for Inactive)
REMARK    1  A    between atoms: N_3  and  C_4 
REMARK    2  A    between atoms: C_12  and  C_13 
REMARK       I    between atoms: C_13  and  N_14 
REMARK    3  A    between atoms: N_14  and  C_15 
REMARK    4  A    between atoms: C_15  and  C_16 
REMARK    5  A    between atoms: C_16  and  O_17 
REMARK    6  A    between atoms: C_16  and  C_18 
REMARK    7  A    between atoms: C_21  and  O_22 
ROOT
HETATM    1  C   UNL     1      41.423 -15.278   1.322  1.00  0.00     0.255 C 
HETATM    2  N   UNL     1      41.888 -15.262   0.029  1.00  0.00    -0.350 N 
HETATM    3  O   UNL     1      40.627 -14.440   1.737  1.00  0.00    -0.268 OA
HETATM    4  H   UNL     1      42.558 -15.949  -0.284  1.00  0.00     0.163 HD
ENDROOT
BRANCH   2   5
HETATM    5  C   UNL     1      41.534 -14.188  -0.908  1.00  0.00     0.114 C 
HETATM    6  C   UNL     1      42.484 -13.004  -0.702  1.00  0.00     0.035 C 
BRANCH   5   7
HETATM    7  C   UNL     1      41.530 -14.730  -2.365  1.00  0.00     0.173 C 
BRANCH   7   8
HETATM    8  O   UNL     1      42.410 -13.967  -3.198  1.00  0.00    -0.389 OA
HETATM    9  H   UNL     1      43.287 -14.383  -3.139  1.00  0.00     0.210 HD
ENDBRANCH   7   8
BRANCH   7  10
HETATM   10  C   UNL     1      40.142 -14.834  -2.969  1.00  0.00    -0.028 A 
HETATM   11  C   UNL     1      39.258 -13.753  -2.848  1.00  0.00     0.012 A 
HETATM   12  C   UNL     1      37.984 -13.808  -3.418  1.00  0.00     0.037 A 
HETATM   13  C   UNL     1      37.570 -14.935  -4.128  1.00  0.00     0.068 A 
HETATM   14  C   UNL     1      38.440 -16.019  -4.251  1.00  0.00     0.037 A 
HETATM   15  C   UNL     1      39.716 -15.968  -3.675  1.00  0.00     0.012 A 
BRANCH  13  16
HETATM   16  O   UNL     1      36.306 -14.852  -4.642  1.00  0.00    -0.356 OA
HETATM   17  C   UNL     1      35.812 -13.550  -4.927  1.00  0.00     0.210 C 
ENDBRANCH  13  16
ENDBRANCH   7  10
ENDBRANCH   5   7
ENDBRANCH   2   5
BRANCH   1  18
HETATM   18  C   UNL     1      41.868 -16.372   2.175  1.00  0.00     0.075 C 
HETATM   19  C   UNL     1      42.966 -17.230   2.124  1.00  0.00     0.051 C 
HETATM   20  C   UNL     1      44.149 -17.261   1.223  1.00  0.00     0.071 C 
HETATM   21  N   UNL     1      42.800 -18.139   3.177  1.00  0.00    -0.220 N 
HETATM   22  N   UNL     1      41.757 -17.782   3.977  1.00  0.00    -0.177 NA
HETATM   23  C   UNL     1      41.198 -16.749   3.358  1.00  0.00     0.158 C 
BRANCH  21  24
HETATM   24  C   UNL     1      43.552 -19.329   3.473  1.00  0.00     0.150 A 
HETATM   25  N   UNL     1      44.138 -19.465   4.693  1.00  0.00    -0.241 NA
HETATM   26  C   UNL     1      44.852 -20.590   4.919  1.00  0.00     0.119 A 
HETATM   27  C   UNL     1      45.016 -21.603   3.990  1.00  0.00     0.019 A 
HETATM   28  C   UNL     1      44.417 -21.453   2.747  1.00  0.00     0.005 A 
HETATM   29  C   UNL     1      43.678 -20.303   2.479  1.00  0.00     0.052 A 
ENDBRANCH  21  24
ENDBRANCH   1  18
TORSDOF 7
ENDMDL
MODEL 5
REMARK VINA RESULT:      -7.5      4.183      7.926
REMARK  7 active torsions:
REMARK  status: ('A' for Active; 'I' for Inactive)
REMARK    1  A    between atoms: N_3  and  C_4 
REMARK    2  A    between atoms: C_12  and  C_13 
REMARK       I    between atoms: C_13  and  N_14 
REMARK    3  A    between atoms: N_14  and  C_15 
REMARK    4  A    between atoms: C_15  and  C_16 
REMARK    5  A    between atoms: C_16  and  O_17 
REMARK    6  A    between atoms: C_16  and  C_18 
REMARK    7  A    between atoms: C_21  and  O_22 
ROOT
HETATM    1  C   UNL     1      42.915 -14.642   2.981  1.00  0.00     0.255 C 
HETATM    2  N   UNL     1      41.639 -14.347   2.563  1.00  0.00    -0.350 N 
HETATM    3  O   UNL     1      43.784 -13.780   3.075  1.00  0.00    -0.268 OA
HETATM    4  H   UNL     1      40.948 -15.075   2.474  1.00  0.00     0.163 HD
ENDROOT
BRANCH   2   5
HETATM    5  C   UNL     1      41.264 -13.000   2.113  1.00  0.00     0.114 C 
HETATM    6  C   UNL     1      41.276 -12.044   3.309  1.00  0.00     0.035 C 
BRANCH   5   7
HETATM    7  C   UNL     1      42.194 -12.548   0.951  1.00  0.00     0.173 C 
BRANCH   7   8
HETATM    8  O   UNL     1      42.250 -11.120   0.867  1.00  0.00    -0.389 OA
HETATM    9  H   UNL     1      43.012 -10.900   0.303  1.00  0.00     0.210 HD
ENDBRANCH   7   8
BRANCH   7  10
HETATM   10  C   UNL     1      41.840 -13.171  -0.386  1.00  0.00    -0.028 A 
HETATM   11  C   UNL     1      40.895 -14.205  -0.433  1.00  0.00     0.012 A 
HETATM   12  C   UNL     1      40.527 -14.778  -1.653  1.00  0.00     0.037 A 
HETATM   13  C   UNL     1      41.086 -14.327  -2.849  1.00  0.00     0.068 A 
HETATM   14  C   UNL     1      42.031 -13.301  -2.813  1.00  0.00     0.037 A 
HETATM   15  C   UNL     1      42.406 -12.729  -1.591  1.00  0.00     0.012 A 
BRANCH  13  16
HETATM   16  O   UNL     1      40.630 -14.967  -3.967  1.00  0.00    -0.356 OA
HETATM   17  C   UNL     1      39.327 -15.531  -3.900  1.00  0.00     0.210 C 
ENDBRANCH  13  16
ENDBRANCH   7  10
ENDBRANCH   5   7
ENDBRANCH   2   5
BRANCH   1  18
HETATM   18  C   UNL     1      43.184 -16.019   3.370  1.00  0.00     0.075 C 
HETATM   19  C   UNL     1      43.720 -17.111   2.689  1.00  0.00     0.051 C 
HETATM   20  C   UNL     1      44.313 -17.228   1.330  1.00  0.00     0.071 C 
HETATM   21  N   UNL     1      43.643 -18.197   3.571  1.00  0.00    -0.220 N 
HETATM   22  N   UNL     1      43.255 -17.797   4.814  1.00  0.00    -0.177 NA
HETATM   23  C   UNL     1      42.961 -16.510   4.675  1.00  0.00     0.158 C 
BRANCH  21  24
HETATM   24  C   UNL     1      43.900 -19.589   3.317  1.00  0.00     0.150 A 
HETATM   25  N   UNL     1      44.611 -20.315   4.223  1.00  0.00    -0.241 NA
HETATM   26  C   UNL     1      44.847 -21.614   3.933  1.00  0.00     0.119 A 
HETATM   27  C   UNL     1      44.407 -22.242   2.780  1.00  0.00     0.019 A 
HETATM   28  C   UNL     1      43.686 -21.493   1.861  1.00  0.00     0.005 A 
HETATM   29  C   UNL     1      43.430 -20.149   2.127  1.00  0.00     0.052 A 
ENDBRANCH  21  24
ENDBRANCH   1  18
TORSDOF 7
ENDMDL
MODEL 6
REMARK VINA RESULT:      -7.3      4.997      8.333
REMARK  7 active torsions:
REMARK  status: ('A' for Active; 'I' for Inactive)
REMARK    1  A    between atoms: N_3  and  C_4 
REMARK    2  A    between atoms: C_12  and  C_13 
REMARK       I    between atoms: C_13  and  N_14 
REMARK    3  A    between atoms: N_14  and  C_15 
REMARK    4  A    between atoms: C_15  and  C_16 
REMARK    5  A    between atoms: C_16  and  O_17 
REMARK    6  A    between atoms: C_16  and  C_18 
REMARK    7  A    between atoms: C_21  and  O_22 
ROOT
HETATM    1  C   UNL     1      41.339 -14.967   0.070  1.00  0.00     0.255 C 
HETATM    2  N   UNL     1      42.189 -16.029   0.261  1.00  0.00    -0.350 N 
HETATM    3  O   UNL     1      40.635 -14.528   0.975  1.00  0.00    -0.268 OA
HETATM    4  H   UNL     1      42.743 -16.387  -0.503  1.00  0.00     0.163 HD
ENDROOT
BRANCH   2   5
HETATM    5  C   UNL     1      42.239 -16.764   1.532  1.00  0.00     0.114 C 
HETATM    6  C   UNL     1      41.495 -18.093   1.378  1.00  0.00     0.035 C 
BRANCH   5   7
HETATM    7  C   UNL     1      43.713 -16.931   1.996  1.00  0.00     0.173 C 
BRANCH   7   8
HETATM    8  O   UNL     1      44.588 -17.086   0.874  1.00  0.00    -0.389 OA
HETATM    9  H   UNL     1      44.236 -17.820   0.341  1.00  0.00     0.210 HD
ENDBRANCH   7   8
BRANCH   7  10
HETATM   10  C   UNL     1      43.907 -18.041   3.011  1.00  0.00    -0.028 A 
HETATM   11  C   UNL     1      44.409 -19.280   2.587  1.00  0.00     0.012 A 
HETATM   12  C   UNL     1      44.625 -20.311   3.503  1.00  0.00     0.037 A 
HETATM   13  C   UNL     1      44.356 -20.128   4.859  1.00  0.00     0.068 A 
HETATM   14  C   UNL     1      43.852 -18.901   5.292  1.00  0.00     0.037 A 
HETATM   15  C   UNL     1      43.628 -17.867   4.374  1.00  0.00     0.012 A 
BRANCH  13  16
HETATM   16  O   UNL     1      44.623 -21.214   5.645  1.00  0.00    -0.356 OA
HETATM   17  C   UNL     1      44.674 -22.478   4.999  1.00  0.00     0.210 C 
ENDBRANCH  13  16
ENDBRANCH   7  10
ENDBRANCH   5   7
ENDBRANCH   2   5
BRANCH   1  18
HETATM   18  C   UNL     1      41.347 -14.337  -1.242  1.00  0.00     0.075 C 
HETATM   19  C   UNL     1      41.535 -13.022  -1.664  1.00  0.00     0.051 C 
HETATM   20  C   UNL     1      41.905 -11.792  -0.913  1.00  0.00     0.071 C 
HETATM   21  N   UNL     1      41.336 -13.024  -3.050  1.00  0.00    -0.220 N 
HETATM   22  N   UNL     1      41.211 -14.292  -3.529  1.00  0.00    -0.177 NA
HETATM   23  C   UNL     1      41.193 -15.059  -2.445  1.00  0.00     0.158 C 
BRANCH  21  24
HETATM   24  C   UNL     1      41.245 -11.908  -3.953  1.00  0.00     0.150 A 
HETATM   25  N   UNL     1      40.021 -11.478  -4.365  1.00  0.00    -0.241 NA
HETATM   26  C   UNL     1      39.984 -10.440  -5.230  1.00  0.00     0.119 A 
HETATM   27  C   UNL     1      41.108  -9.794  -5.713  1.00  0.00     0.019 A 
HETATM   28  C   UNL     1      42.352 -10.241  -5.290  1.00  0.00     0.005 A 
HETATM   29  C   UNL     1      42.426 -11.313  -4.402  1.00  0.00     0.052 A 
ENDBRANCH  21  24
ENDBRANCH   1  18
TORSDOF 7
ENDMDL
MODEL 7
REMARK VINA RESULT:      -7.2      4.961      8.749
REMARK  7 active torsions:
REMARK  status: ('A' for Active; 'I' for Inactive)
REMARK    1  A    between atoms: N_3  and  C_4 
REMARK    2  A    between atoms: C_12  and  C_13 
REMARK       I    between atoms: C_13  and  N_14 
REMARK    3  A    between atoms: N_14  and  C_15 
REMARK    4  A    between atoms: C_15  and  C_16 
REMARK    5  A    between atoms: C_16  and  O_17 
REMARK    6  A    between atoms: C_16  and  C_18 
REMARK    7  A    between atoms: C_21  and  O_22 
ROOT
HETATM    1  C   UNL     1      40.844 -14.563   0.794  1.00  0.00     0.255 C 
HETATM    2  N   UNL     1      41.482 -15.780   0.842  1.00  0.00    -0.350 N 
HETATM    3  O   UNL     1      40.831 -13.798   1.754  1.00  0.00    -0.268 OA
HETATM    4  H   UNL     1      41.461 -16.401   0.048  1.00  0.00     0.163 HD
ENDROOT
BRANCH   2   5
HETATM    5  C   UNL     1      42.104 -16.279   2.075  1.00  0.00     0.114 C 
HETATM    6  C   UNL     1      41.131 -17.223   2.788  1.00  0.00     0.035 C 
BRANCH   5   7
HETATM    7  C   UNL     1      43.476 -16.935   1.753  1.00  0.00     0.173 C 
BRANCH   7   8
HETATM    8  O   UNL     1      43.537 -17.347   0.383  1.00  0.00    -0.389 OA
HETATM    9  H   UNL     1      43.213 -16.601  -0.151  1.00  0.00     0.210 HD
ENDBRANCH   7   8
BRANCH   7  10
HETATM   10  C   UNL     1      43.841 -18.069   2.692  1.00  0.00    -0.028 A 
HETATM   11  C   UNL     1      43.973 -17.810   4.063  1.00  0.00     0.012 A 
HETATM   12  C   UNL     1      44.280 -18.839   4.956  1.00  0.00     0.037 A 
HETATM   13  C   UNL     1      44.452 -20.148   4.503  1.00  0.00     0.068 A 
HETATM   14  C   UNL     1      44.327 -20.417   3.140  1.00  0.00     0.037 A 
HETATM   15  C   UNL     1      44.025 -19.385   2.241  1.00  0.00     0.012 A 
BRANCH  13  16
HETATM   16  O   UNL     1      44.738 -21.057   5.483  1.00  0.00    -0.356 OA
HETATM   17  C   UNL     1      45.028 -22.383   5.065  1.00  0.00     0.210 C 
ENDBRANCH  13  16
ENDBRANCH   7  10
ENDBRANCH   5   7
ENDBRANCH   2   5
BRANCH   1  18
HETATM   18  C   UNL     1      40.229 -14.185  -0.471  1.00  0.00     0.075 C 
HETATM   19  C   UNL     1      38.916 -13.895  -0.839  1.00  0.00     0.051 C 
HETATM   20  C   UNL     1      37.673 -13.764  -0.032  1.00  0.00     0.071 C 
HETATM   21  N   UNL     1      38.936 -13.689  -2.225  1.00  0.00    -0.220 N 
HETATM   22  N   UNL     1      40.212 -13.662  -2.701  1.00  0.00    -0.177 NA
HETATM   23  C   UNL     1      40.966 -13.983  -1.657  1.00  0.00     0.158 C 
BRANCH  21  24
HETATM   24  C   UNL     1      37.832 -13.527  -3.132  1.00  0.00     0.150 A 
HETATM   25  N   UNL     1      37.258 -14.627  -3.691  1.00  0.00    -0.241 NA
HETATM   26  C   UNL     1      36.237 -14.426  -4.554  1.00  0.00     0.119 A 
HETATM   27  C   UNL     1      35.745 -13.178  -4.895  1.00  0.00     0.019 A 
HETATM   28  C   UNL     1      36.339 -12.062  -4.322  1.00  0.00     0.005 A 
HETATM   29  C   UNL     1      37.398 -12.233  -3.432  1.00  0.00     0.052 A 
ENDBRANCH  21  24
ENDBRANCH   1  18
TORSDOF 7
ENDMDL
MODEL 8
REMARK VINA RESULT:      -7.1      3.007      3.791
REMARK  7 active torsions:
REMARK  status: ('A' for Active; 'I' for Inactive)
REMARK    1  A    between atoms: N_3  and  C_4 
REMARK    2  A    between atoms: C_12  and  C_13 
REMARK       I    between atoms: C_13  and  N_14 
REMARK    3  A    between atoms: N_14  and  C_15 
REMARK    4  A    between atoms: C_15  and  C_16 
REMARK    5  A    between atoms: C_16  and  O_17 
REMARK    6  A    between atoms: C_16  and  C_18 
REMARK    7  A    between atoms: C_21  and  O_22 
ROOT
HETATM    1  C   UNL     1      40.378 -15.106   2.749  1.00  0.00     0.255 C 
HETATM    2  N   UNL     1      41.653 -15.501   2.424  1.00  0.00    -0.350 N 
HETATM    3  O   UNL     1      39.388 -15.701   2.333  1.00  0.00    -0.268 OA
HETATM    4  H   UNL     1      42.452 -14.984   2.760  1.00  0.00     0.163 HD
ENDROOT
BRANCH   2   5
HETATM    5  C   UNL     1      41.907 -16.600   1.483  1.00  0.00     0.114 C 
HETATM    6  C   UNL     1      41.459 -16.181   0.081  1.00  0.00     0.035 C 
BRANCH   5   7
HETATM    7  C   UNL     1      43.401 -17.028   1.552  1.00  0.00     0.173 C 
BRANCH   7   8
HETATM    8  O   UNL     1      43.854 -17.510   0.283  1.00  0.00    -0.389 OA
HETATM    9  H   UNL     1      43.918 -18.479   0.356  1.00  0.00     0.210 HD
ENDBRANCH   7   8
BRANCH   7  10
HETATM   10  C   UNL     1      43.697 -18.018   2.663  1.00  0.00    -0.028 A 
HETATM   11  C   UNL     1      44.060 -19.331   2.334  1.00  0.00     0.012 A 
HETATM   12  C   UNL     1      44.367 -20.256   3.333  1.00  0.00     0.037 A 
HETATM   13  C   UNL     1      44.328 -19.891   4.679  1.00  0.00     0.068 A 
HETATM   14  C   UNL     1      43.963 -18.588   5.019  1.00  0.00     0.037 A 
HETATM   15  C   UNL     1      43.649 -17.659   4.018  1.00  0.00     0.012 A 
BRANCH  13  16
HETATM   16  O   UNL     1      44.661 -20.890   5.550  1.00  0.00    -0.356 OA
HETATM   17  C   UNL     1      44.895 -22.177   4.995  1.00  0.00     0.210 C 
ENDBRANCH  13  16
ENDBRANCH   7  10
ENDBRANCH   5   7
ENDBRANCH   2   5
BRANCH   1  18
HETATM   18  C   UNL     1      40.244 -13.980   3.662  1.00  0.00     0.075 C 
HETATM   19  C   UNL     1      40.793 -13.700   4.913  1.00  0.00     0.051 C 
HETATM   20  C   UNL     1      41.813 -14.420   5.723  1.00  0.00     0.071 C 
HETATM   21  N   UNL     1      40.213 -12.497   5.334  1.00  0.00    -0.220 N 
HETATM   22  N   UNL     1      39.473 -11.931   4.340  1.00  0.00    -0.177 NA
HETATM   23  C   UNL     1      39.478 -12.832   3.365  1.00  0.00     0.158 C 
BRANCH  21  24
HETATM   24  C   UNL     1      40.300 -11.850   6.615  1.00  0.00     0.150 A 
HETATM   25  N   UNL     1      39.244 -11.915   7.472  1.00  0.00    -0.241 NA
HETATM   26  C   UNL     1      39.362 -11.275   8.656  1.00  0.00     0.119 A 
HETATM   27  C   UNL     1      40.485 -10.567   9.045  1.00  0.00     0.019 A 
HETATM   28  C   UNL     1      41.556 -10.503   8.164  1.00  0.00     0.005 A 
HETATM   29  C   UNL     1      41.465 -11.147   6.932  1.00  0.00     0.052 A 
ENDBRANCH  21  24
ENDBRANCH   1  18
TORSDOF 7
ENDMDL
MODEL 9
REMARK VINA RESULT:      -7.1      3.587      8.892
REMARK  7 active torsions:
REMARK  status: ('A' for Active; 'I' for Inactive)
REMARK    1  A    between atoms: N_3  and  C_4 
REMARK    2  A    between atoms: C_12  and  C_13 
REMARK       I    between atoms: C_13  and  N_14 
REMARK    3  A    between atoms: N_14  and  C_15 
REMARK    4  A    between atoms: C_15  and  C_16 
REMARK    5  A    between atoms: C_16  and  O_17 
REMARK    6  A    between atoms: C_16  and  C_18 
REMARK    7  A    between atoms: C_21  and  O_22 
ROOT
HETATM    1  C   UNL     1      42.713 -14.875   4.229  1.00  0.00     0.255 C 
HETATM    2  N   UNL     1      41.942 -14.019   3.481  1.00  0.00    -0.350 N 
HETATM    3  O   UNL     1      43.015 -14.628   5.393  1.00  0.00    -0.268 OA
HETATM    4  H   UNL     1      41.724 -14.233   2.519  1.00  0.00     0.163 HD
ENDROOT
BRANCH   2   5
HETATM    5  C   UNL     1      41.512 -12.713   3.996  1.00  0.00     0.114 C 
HETATM    6  C   UNL     1      41.251 -11.766   2.821  1.00  0.00     0.035 C 
BRANCH   5   7
HETATM    7  C   UNL     1      40.284 -12.887   4.933  1.00  0.00     0.173 C 
BRANCH   7   8
HETATM    8  O   UNL     1      39.067 -12.577   4.246  1.00  0.00    -0.389 OA
HETATM    9  H   UNL     1      39.026 -13.161   3.469  1.00  0.00     0.210 HD
ENDBRANCH   7   8
BRANCH   7  10
HETATM   10  C   UNL     1      40.401 -12.115   6.234  1.00  0.00    -0.028 A 
HETATM   11  C   UNL     1      39.345 -12.157   7.155  1.00  0.00     0.012 A 
HETATM   12  C   UNL     1      39.435 -11.481   8.373  1.00  0.00     0.037 A 
HETATM   13  C   UNL     1      40.581 -10.756   8.703  1.00  0.00     0.068 A 
HETATM   14  C   UNL     1      41.636 -10.702   7.792  1.00  0.00     0.037 A 
HETATM   15  C   UNL     1      41.545 -11.376   6.566  1.00  0.00     0.012 A 
BRANCH  13  16
HETATM   16  O   UNL     1      40.540 -10.152   9.928  1.00  0.00    -0.356 OA
HETATM   17  C   UNL     1      40.345 -10.996  11.055  1.00  0.00     0.210 C 
ENDBRANCH  13  16
ENDBRANCH   7  10
ENDBRANCH   5   7
ENDBRANCH   2   5
BRANCH   1  18
HETATM   18  C   UNL     1      43.114 -16.128   3.604  1.00  0.00     0.075 C 
HETATM   19  C   UNL     1      42.933 -17.465   3.955  1.00  0.00     0.051 C 
HETATM   20  C   UNL     1      42.161 -18.097   5.058  1.00  0.00     0.071 C 
HETATM   21  N   UNL     1      43.629 -18.217   2.999  1.00  0.00    -0.220 N 
HETATM   22  N   UNL     1      44.080 -17.429   1.984  1.00  0.00    -0.177 NA
HETATM   23  C   UNL     1      43.791 -16.191   2.367  1.00  0.00     0.158 C 
BRANCH  21  24
HETATM   24  C   UNL     1      43.909 -19.628   2.986  1.00  0.00     0.150 A 
HETATM   25  N   UNL     1      44.587 -20.186   4.026  1.00  0.00    -0.241 NA
HETATM   26  C   UNL     1      44.845 -21.511   3.961  1.00  0.00     0.119 A 
HETATM   27  C   UNL     1      44.461 -22.324   2.908  1.00  0.00     0.019 A 
HETATM   28  C   UNL     1      43.774 -21.745   1.851  1.00  0.00     0.005 A 
HETATM   29  C   UNL     1      43.495 -20.380   1.884  1.00  0.00     0.052 A 
ENDBRANCH  21  24
ENDBRANCH   1  18
TORSDOF 7
ENDMDL
MODEL 10
REMARK VINA RESULT:      -7.0      3.411      8.814
REMARK  7 active torsions:
REMARK  status: ('A' for Active; 'I' for Inactive)
REMARK    1  A    between atoms: N_3  and  C_4 
REMARK    2  A    between atoms: C_12  and  C_13 
REMARK       I    between atoms: C_13  and  N_14 
REMARK    3  A    between atoms: N_14  and  C_15 
REMARK    4  A    between atoms: C_15  and  C_16 
REMARK    5  A    between atoms: C_16  and  O_17 
REMARK    6  A    between atoms: C_16  and  C_18 
REMARK    7  A    between atoms: C_21  and  O_22 
ROOT
HETATM    1  C   UNL     1      42.090 -14.351   4.208  1.00  0.00     0.255 C 
HETATM    2  N   UNL     1      40.778 -14.050   4.483  1.00  0.00    -0.350 N 
HETATM    3  O   UNL     1      42.917 -13.479   3.954  1.00  0.00    -0.268 OA
HETATM    4  H   UNL     1      40.111 -14.785   4.668  1.00  0.00     0.163 HD
ENDROOT
BRANCH   2   5
HETATM    5  C   UNL     1      40.263 -12.677   4.397  1.00  0.00     0.114 C 
HETATM    6  C   UNL     1      39.602 -12.469   3.031  1.00  0.00     0.035 C 
BRANCH   5   7
HETATM    7  C   UNL     1      39.314 -12.387   5.593  1.00  0.00     0.173 C 
BRANCH   7   8
HETATM    8  O   UNL     1      38.186 -11.609   5.175  1.00  0.00    -0.389 OA
HETATM    9  H   UNL     1      38.303 -10.720   5.551  1.00  0.00     0.210 HD
ENDBRANCH   7   8
BRANCH   7  10
HETATM   10  C   UNL     1      40.013 -11.758   6.783  1.00  0.00    -0.028 A 
HETATM   11  C   UNL     1      41.354 -11.366   6.663  1.00  0.00     0.012 A 
HETATM   12  C   UNL     1      42.016 -10.758   7.732  1.00  0.00     0.037 A 
HETATM   13  C   UNL     1      41.354 -10.519   8.937  1.00  0.00     0.068 A 
HETATM   14  C   UNL     1      40.022 -10.909   9.069  1.00  0.00     0.037 A 
HETATM   15  C   UNL     1      39.357 -11.525   8.000  1.00  0.00     0.012 A 
BRANCH  13  16
HETATM   16  O   UNL     1      42.116  -9.909   9.894  1.00  0.00    -0.356 OA
HETATM   17  C   UNL     1      43.379 -10.494  10.180  1.00  0.00     0.210 C 
ENDBRANCH  13  16
ENDBRANCH   7  10
ENDBRANCH   5   7
ENDBRANCH   2   5
BRANCH   1  18
HETATM   18  C   UNL     1      42.482 -15.751   4.288  1.00  0.00     0.075 C 
HETATM   19  C   UNL     1      43.164 -16.598   3.416  1.00  0.00     0.051 C 
HETATM   20  C   UNL     1      43.837 -16.336   2.115  1.00  0.00     0.071 C 
HETATM   21  N   UNL     1      43.156 -17.864   4.015  1.00  0.00    -0.220 N 
HETATM   22  N   UNL     1      42.663 -17.807   5.284  1.00  0.00    -0.177 NA
HETATM   23  C   UNL     1      42.244 -16.555   5.424  1.00  0.00     0.158 C 
BRANCH  21  24
HETATM   24  C   UNL     1      43.570 -19.128   3.467  1.00  0.00     0.150 A 
HETATM   25  N   UNL     1      43.036 -19.556   2.291  1.00  0.00    -0.241 NA
HETATM   26  C   UNL     1      43.439 -20.758   1.824  1.00  0.00     0.119 A 
HETATM   27  C   UNL     1      44.358 -21.570   2.467  1.00  0.00     0.019 A 
HETATM   28  C   UNL     1      44.895 -21.127   3.668  1.00  0.00     0.005 A 
HETATM   29  C   UNL     1      44.496 -19.893   4.180  1.00  0.00     0.052 A 
ENDBRANCH  21  24
ENDBRANCH   1  18
TORSDOF 7
ENDMDL
