MODEL 1
REMARK VINA RESULT:      -8.4      0.000      0.000
REMARK  6 active torsions:
REMARK  status: ('A' for Active; 'I' for Inactive)
REMARK    1  A    between atoms: C_2  and  C_3 
REMARK    2  A    between atoms: C_3  and  C_4 
REMARK    3  A    between atoms: C_3  and  C_10 
REMARK    4  A    between atoms: C_10  and  C_11 
REMARK       I    between atoms: C_11  and  N_12 
REMARK    5  A    between atoms: N_12  and  C_13 
REMARK    6  A    between atoms: C_20  and  C_21 
REMARK       I    between atoms: C_21  and  N_22 
ROOT
HETATM    1  C   UNL     1      40.608 -14.842   4.576  1.00  0.00     0.035 A 
HETATM    2  C   UNL     1      40.423 -14.044   5.713  1.00  0.00     0.046 A 
HETATM    3  C   UNL     1      39.777 -12.793   5.590  1.00  0.00     0.030 A 
HETATM    4  C   UNL     1      39.351 -12.379   4.333  1.00  0.00     0.063 A 
HETATM    5  N   UNL     1      38.784 -11.150   4.528  1.00  0.00    -0.277 N 
HETATM    6  H   UNL     1      38.371 -10.548   3.827  1.00  0.00     0.189 HD
HETATM    7  N   UNL     1      38.787 -10.732   5.803  1.00  0.00    -0.168 NA
HETATM    8  C   UNL     1      39.396 -11.738   6.474  1.00  0.00     0.156 A 
HETATM    9  C   UNL     1      39.521 -13.145   3.181  1.00  0.00     0.034 A 
HETATM   10  C   UNL     1      40.151 -14.386   3.331  1.00  0.00     0.032 A 
ENDROOT
BRANCH   1  11
HETATM   11  N   UNL     1      41.227 -16.111   4.593  1.00  0.00    -0.327 N 
HETATM   12  C   UNL     1      42.582 -16.391   4.623  1.00  0.00     0.223 C 
HETATM   13  O   UNL     1      43.491 -15.568   4.670  1.00  0.00    -0.273 OA
HETATM   14  H   UNL     1      40.597 -16.898   4.538  1.00  0.00     0.169 HD
BRANCH  12  15
HETATM   15  C   UNL     1      42.906 -17.878   4.680  1.00  0.00     0.116 C 
BRANCH  15  16
HETATM   16  C   UNL     1      43.845 -18.393   3.572  1.00  0.00     0.049 C 
BRANCH  16  17
HETATM   17  C   UNL     1      43.307 -17.964   2.213  1.00  0.00    -0.027 C 
HETATM   18  C   UNL     1      43.903 -17.199   1.289  1.00  0.00     0.007 C 
ENDBRANCH  16  17
BRANCH  16  19
HETATM   19  C   UNL     1      44.172 -19.875   3.689  1.00  0.00    -0.050 A 
HETATM   20  C   UNL     1      44.568 -20.455   4.905  1.00  0.00     0.008 A 
HETATM   21  C   UNL     1      44.864 -21.817   4.981  1.00  0.00     0.001 A 
HETATM   22  C   UNL     1      44.766 -22.620   3.847  1.00  0.00     0.000 A 
HETATM   23  C   UNL     1      44.365 -22.063   2.636  1.00  0.00     0.001 A 
HETATM   24  C   UNL     1      44.066 -20.701   2.558  1.00  0.00     0.008 A 
ENDBRANCH  16  19
ENDBRANCH  15  16
ENDBRANCH  12  15
ENDBRANCH   1  11
BRANCH   8  25
HETATM   25  C   UNL     1      39.588 -11.670   7.930  1.00  0.00     0.270 C 
HETATM   26  N   UNL     1      38.851 -12.587   8.632  1.00  0.00    -0.365 N 
HETATM   27  H   UNL     1      38.258 -13.227   8.117  1.00  0.00     0.159 HD
HETATM   28  H   UNL     1      38.931 -12.626   9.635  1.00  0.00     0.159 HD
HETATM   29  O   UNL     1      40.336 -10.886   8.503  1.00  0.00    -0.266 OA
ENDBRANCH   8  25
TORSDOF 6
ENDMDL
MODEL 2
REMARK VINA RESULT:      -8.4      4.199      6.013
REMARK  6 active torsions:
REMARK  status: ('A' for Active; 'I' for Inactive)
REMARK    1  A    between atoms: C_2  and  C_3 
REMARK    2  A    between atoms: C_3  and  C_4 
REMARK    3  A    between atoms: C_3  and  C_10 
REMARK    4  A    between atoms: C_10  and  C_11 
REMARK       I    between atoms: C_11  and  N_12 
REMARK    5  A    between atoms: N_12  and  C_13 
REMARK    6  A    between atoms: C_20  and  C_21 
REMARK       I    between atoms: C_21  and  N_22 
ROOT
HETATM    1  C   UNL     1      41.034 -16.435   1.056  1.00  0.00     0.035 A 
HETATM    2  C   UNL     1      41.310 -15.937  -0.224  1.00  0.00     0.046 A 
HETATM    3  C   UNL     1      40.798 -14.676  -0.607  1.00  0.00     0.030 A 
HETATM    4  C   UNL     1      40.019 -13.966   0.298  1.00  0.00     0.063 A 
HETATM    5  N   UNL     1      39.668 -12.814  -0.350  1.00  0.00    -0.277 N 
HETATM    6  H   UNL     1      39.095 -12.060   0.008  1.00  0.00     0.189 HD
HETATM    7  N   UNL     1      40.163 -12.702  -1.593  1.00  0.00    -0.168 NA
HETATM    8  C   UNL     1      40.866 -13.845  -1.767  1.00  0.00     0.156 A 
HETATM    9  C   UNL     1      39.722 -14.432   1.578  1.00  0.00     0.034 A 
HETATM   10  C   UNL     1      40.252 -15.676   1.938  1.00  0.00     0.032 A 
ENDROOT
BRANCH   1  11
HETATM   11  N   UNL     1      41.508 -17.674   1.541  1.00  0.00    -0.327 N 
HETATM   12  C   UNL     1      42.819 -18.040   1.788  1.00  0.00     0.223 C 
HETATM   13  O   UNL     1      43.808 -17.327   1.653  1.00  0.00    -0.273 OA
HETATM   14  H   UNL     1      40.799 -18.379   1.683  1.00  0.00     0.169 HD
BRANCH  12  15
HETATM   15  C   UNL     1      42.974 -19.446   2.353  1.00  0.00     0.116 C 
BRANCH  15  16
HETATM   16  C   UNL     1      44.286 -19.710   3.118  1.00  0.00     0.049 C 
BRANCH  16  17
HETATM   17  C   UNL     1      44.812 -21.093   2.757  1.00  0.00    -0.027 C 
HETATM   18  C   UNL     1      44.368 -21.927   1.805  1.00  0.00     0.007 C 
ENDBRANCH  16  17
BRANCH  16  19
HETATM   19  C   UNL     1      44.188 -19.436   4.612  1.00  0.00    -0.050 A 
HETATM   20  C   UNL     1      43.973 -20.465   5.543  1.00  0.00     0.008 A 
HETATM   21  C   UNL     1      43.886 -20.183   6.908  1.00  0.00     0.001 A 
HETATM   22  C   UNL     1      44.013 -18.872   7.362  1.00  0.00     0.000 A 
HETATM   23  C   UNL     1      44.235 -17.842   6.453  1.00  0.00     0.001 A 
HETATM   24  C   UNL     1      44.326 -18.122   5.088  1.00  0.00     0.008 A 
ENDBRANCH  16  19
ENDBRANCH  15  16
ENDBRANCH  12  15
ENDBRANCH   1  11
BRANCH   8  25
HETATM   25  C   UNL     1      41.586 -14.107  -3.021  1.00  0.00     0.270 C 
HETATM   26  N   UNL     1      42.786 -13.455  -3.121  1.00  0.00    -0.365 N 
HETATM   27  H   UNL     1      43.085 -12.870  -2.350  1.00  0.00     0.159 HD
HETATM   28  H   UNL     1      43.358 -13.588  -3.940  1.00  0.00     0.159 HD
HETATM   29  O   UNL     1      41.189 -14.843  -3.917  1.00  0.00    -0.266 OA
ENDBRANCH   8  25
TORSDOF 6
ENDMDL
MODEL 3
REMARK VINA RESULT:      -8.2      3.794      5.746
REMARK  6 active torsions:
REMARK  status: ('A' for Active; 'I' for Inactive)
REMARK    1  A    between atoms: C_2  and  C_3 
REMARK    2  A    between atoms: C_3  and  C_4 
REMARK    3  A    between atoms: C_3  and  C_10 
REMARK    4  A    between atoms: C_10  and  C_11 
REMARK       I    between atoms: C_11  and  N_12 
REMARK    5  A    between atoms: N_12  and  C_13 
REMARK    6  A    between atoms: C_20  and  C_21 
REMARK       I    between atoms: C_21  and  N_22 
ROOT
HETATM    1  C   UNL     1      40.793 -15.224   1.719  1.00  0.00     0.035 A 
HETATM    2  C   UNL     1      41.151 -15.127   0.368  1.00  0.00     0.046 A 
HETATM    3  C   UNL     1      40.286 -14.471  -0.537  1.00  0.00     0.030 A 
HETATM    4  C   UNL     1      39.089 -13.948  -0.062  1.00  0.00     0.063 A 
HETATM    5  N   UNL     1      38.476 -13.395  -1.151  1.00  0.00    -0.277 N 
HETATM    6  H   UNL     1      37.578 -12.927  -1.177  1.00  0.00     0.189 HD
HETATM    7  N   UNL     1      39.173 -13.497  -2.293  1.00  0.00    -0.168 NA
HETATM    8  C   UNL     1      40.296 -14.158  -1.931  1.00  0.00     0.156 A 
HETATM    9  C   UNL     1      38.700 -14.029   1.275  1.00  0.00     0.034 A 
HETATM   10  C   UNL     1      39.580 -14.671   2.154  1.00  0.00     0.032 A 
ENDROOT
BRANCH   1  11
HETATM   11  N   UNL     1      41.591 -15.846   2.705  1.00  0.00    -0.327 N 
HETATM   12  C   UNL     1      42.772 -15.380   3.254  1.00  0.00     0.223 C 
HETATM   13  O   UNL     1      43.322 -14.315   2.994  1.00  0.00    -0.273 OA
HETATM   14  H   UNL     1      41.270 -16.754   3.008  1.00  0.00     0.169 HD
BRANCH  12  15
HETATM   15  C   UNL     1      43.352 -16.285   4.334  1.00  0.00     0.116 C 
BRANCH  15  16
HETATM   16  C   UNL     1      42.627 -17.631   4.528  1.00  0.00     0.049 C 
BRANCH  16  17
HETATM   17  C   UNL     1      42.300 -17.821   6.004  1.00  0.00    -0.027 C 
HETATM   18  C   UNL     1      42.434 -16.937   7.003  1.00  0.00     0.007 C 
ENDBRANCH  16  17
BRANCH  16  19
HETATM   19  C   UNL     1      43.339 -18.808   3.877  1.00  0.00    -0.050 A 
HETATM   20  C   UNL     1      44.298 -19.569   4.564  1.00  0.00     0.008 A 
HETATM   21  C   UNL     1      44.936 -20.642   3.940  1.00  0.00     0.001 A 
HETATM   22  C   UNL     1      44.624 -20.973   2.623  1.00  0.00     0.000 A 
HETATM   23  C   UNL     1      43.669 -20.234   1.930  1.00  0.00     0.001 A 
HETATM   24  C   UNL     1      43.027 -19.162   2.554  1.00  0.00     0.008 A 
ENDBRANCH  16  19
ENDBRANCH  15  16
ENDBRANCH  12  15
ENDBRANCH   1  11
BRANCH   8  25
HETATM   25  C   UNL     1      41.346 -14.463  -2.913  1.00  0.00     0.270 C 
HETATM   26  N   UNL     1      42.445 -13.651  -2.824  1.00  0.00    -0.365 N 
HETATM   27  H   UNL     1      42.460 -12.933  -2.110  1.00  0.00     0.159 HD
HETATM   28  H   UNL     1      43.223 -13.797  -3.447  1.00  0.00     0.159 HD
HETATM   29  O   UNL     1      41.287 -15.359  -3.748  1.00  0.00    -0.266 OA
ENDBRANCH   8  25
TORSDOF 6
ENDMDL
MODEL 4
REMARK VINA RESULT:      -8.1      4.496      5.857
REMARK  6 active torsions:
REMARK  status: ('A' for Active; 'I' for Inactive)
REMARK    1  A    between atoms: C_2  and  C_3 
REMARK    2  A    between atoms: C_3  and  C_4 
REMARK    3  A    between atoms: C_3  and  C_10 
REMARK    4  A    between atoms: C_10  and  C_11 
REMARK       I    between atoms: C_11  and  N_12 
REMARK    5  A    between atoms: N_12  and  C_13 
REMARK    6  A    between atoms: C_20  and  C_21 
REMARK       I    between atoms: C_21  and  N_22 
ROOT
HETATM    1  C   UNL     1      41.045 -15.371  -1.218  1.00  0.00     0.035 A 
HETATM    2  C   UNL     1      40.107 -14.415  -0.806  1.00  0.00     0.046 A 
HETATM    3  C   UNL     1      39.145 -13.940  -1.726  1.00  0.00     0.030 A 
HETATM    4  C   UNL     1      39.162 -14.428  -3.026  1.00  0.00     0.063 A 
HETATM    5  N   UNL     1      38.140 -13.788  -3.669  1.00  0.00    -0.277 N 
HETATM    6  H   UNL     1      37.862 -13.895  -4.638  1.00  0.00     0.189 HD
HETATM    7  N   UNL     1      37.446 -12.936  -2.899  1.00  0.00    -0.168 NA
HETATM    8  C   UNL     1      38.052 -13.020  -1.693  1.00  0.00     0.156 A 
HETATM    9  C   UNL     1      40.082 -15.377  -3.472  1.00  0.00     0.034 A 
HETATM   10  C   UNL     1      41.016 -15.842  -2.538  1.00  0.00     0.032 A 
ENDROOT
BRANCH   1  11
HETATM   11  N   UNL     1      42.037 -15.919  -0.375  1.00  0.00    -0.327 N 
HETATM   12  C   UNL     1      41.882 -16.901   0.587  1.00  0.00     0.223 C 
HETATM   13  O   UNL     1      40.842 -17.494   0.856  1.00  0.00    -0.273 OA
HETATM   14  H   UNL     1      42.955 -15.510  -0.470  1.00  0.00     0.169 HD
BRANCH  12  15
HETATM   15  C   UNL     1      43.176 -17.292   1.287  1.00  0.00     0.116 C 
BRANCH  15  16
HETATM   16  C   UNL     1      43.008 -17.926   2.682  1.00  0.00     0.049 C 
BRANCH  16  17
HETATM   17  C   UNL     1      43.547 -16.971   3.740  1.00  0.00    -0.027 C 
HETATM   18  C   UNL     1      42.891 -16.421   4.771  1.00  0.00     0.007 C 
ENDBRANCH  16  17
BRANCH  16  19
HETATM   19  C   UNL     1      43.543 -19.348   2.776  1.00  0.00    -0.050 A 
HETATM   20  C   UNL     1      44.309 -19.783   3.869  1.00  0.00     0.008 A 
HETATM   21  C   UNL     1      44.789 -21.093   3.926  1.00  0.00     0.001 A 
HETATM   22  C   UNL     1      44.508 -21.987   2.895  1.00  0.00     0.000 A 
HETATM   23  C   UNL     1      43.742 -21.575   1.809  1.00  0.00     0.001 A 
HETATM   24  C   UNL     1      43.259 -20.266   1.751  1.00  0.00     0.008 A 
ENDBRANCH  16  19
ENDBRANCH  15  16
ENDBRANCH  12  15
ENDBRANCH   1  11
BRANCH   8  25
HETATM   25  C   UNL     1      37.573 -12.234  -0.547  1.00  0.00     0.270 C 
HETATM   26  N   UNL     1      37.856 -10.897  -0.631  1.00  0.00    -0.365 N 
HETATM   27  H   UNL     1      38.348 -10.557  -1.449  1.00  0.00     0.159 HD
HETATM   28  H   UNL     1      37.552 -10.277   0.102  1.00  0.00     0.159 HD
HETATM   29  O   UNL     1      36.963 -12.692   0.413  1.00  0.00    -0.266 OA
ENDBRANCH   8  25
TORSDOF 6
ENDMDL
MODEL 5
REMARK VINA RESULT:      -8.1      4.901      6.594
REMARK  6 active torsions:
REMARK  status: ('A' for Active; 'I' for Inactive)
REMARK    1  A    between atoms: C_2  and  C_3 
REMARK    2  A    between atoms: C_3  and  C_4 
REMARK    3  A    between atoms: C_3  and  C_10 
REMARK    4  A    between atoms: C_10  and  C_11 
REMARK       I    between atoms: C_11  and  N_12 
REMARK    5  A    between atoms: N_12  and  C_13 
REMARK    6  A    between atoms: C_20  and  C_21 
REMARK       I    between atoms: C_21  and  N_22 
ROOT
HETATM    1  C   UNL     1      41.381 -14.846  -0.664  1.00  0.00     0.035 A 
HETATM    2  C   UNL     1      40.399 -15.128  -1.623  1.00  0.00     0.046 A 
HETATM    3  C   UNL     1      39.606 -14.079  -2.139  1.00  0.00     0.030 A 
HETATM    4  C   UNL     1      39.814 -12.787  -1.671  1.00  0.00     0.063 A 
HETATM    5  N   UNL     1      38.908 -12.009  -2.335  1.00  0.00    -0.277 N 
HETATM    6  H   UNL     1      38.772 -11.009  -2.238  1.00  0.00     0.189 HD
HETATM    7  N   UNL     1      38.138 -12.674  -3.209  1.00  0.00    -0.168 NA
HETATM    8  C   UNL     1      38.558 -13.956  -3.102  1.00  0.00     0.156 A 
HETATM    9  C   UNL     1      40.780 -12.470  -0.716  1.00  0.00     0.034 A 
HETATM   10  C   UNL     1      41.561 -13.525  -0.230  1.00  0.00     0.032 A 
ENDROOT
BRANCH   1  11
HETATM   11  N   UNL     1      42.234 -15.818  -0.096  1.00  0.00    -0.327 N 
HETATM   12  C   UNL     1      41.914 -16.774   0.852  1.00  0.00     0.223 C 
HETATM   13  O   UNL     1      40.807 -16.961   1.346  1.00  0.00    -0.273 OA
HETATM   14  H   UNL     1      43.197 -15.773  -0.397  1.00  0.00     0.169 HD
BRANCH  12  15
HETATM   15  C   UNL     1      43.069 -17.698   1.214  1.00  0.00     0.116 C 
BRANCH  15  16
HETATM   16  C   UNL     1      43.062 -18.228   2.661  1.00  0.00     0.049 C 
BRANCH  16  17
HETATM   17  C   UNL     1      43.714 -17.203   3.579  1.00  0.00    -0.027 C 
HETATM   18  C   UNL     1      43.142 -16.476   4.548  1.00  0.00     0.007 C 
ENDBRANCH  16  17
BRANCH  16  19
HETATM   19  C   UNL     1      43.610 -19.643   2.795  1.00  0.00    -0.050 A 
HETATM   20  C   UNL     1      43.437 -20.605   1.787  1.00  0.00     0.008 A 
HETATM   21  C   UNL     1      43.949 -21.895   1.939  1.00  0.00     0.001 A 
HETATM   22  C   UNL     1      44.642 -22.242   3.097  1.00  0.00     0.000 A 
HETATM   23  C   UNL     1      44.830 -21.297   4.101  1.00  0.00     0.001 A 
HETATM   24  C   UNL     1      44.322 -20.005   3.950  1.00  0.00     0.008 A 
ENDBRANCH  16  19
ENDBRANCH  15  16
ENDBRANCH  12  15
ENDBRANCH   1  11
BRANCH   8  25
HETATM   25  C   UNL     1      37.959 -15.020  -3.921  1.00  0.00     0.270 C 
HETATM   26  N   UNL     1      38.865 -15.719  -4.673  1.00  0.00    -0.365 N 
HETATM   27  H   UNL     1      39.844 -15.470  -4.607  1.00  0.00     0.159 HD
HETATM   28  H   UNL     1      38.548 -16.478  -5.254  1.00  0.00     0.159 HD
HETATM   29  O   UNL     1      36.765 -15.295  -3.951  1.00  0.00    -0.266 OA
ENDBRANCH   8  25
TORSDOF 6
ENDMDL
MODEL 6
REMARK VINA RESULT:      -7.8      4.006      4.676
REMARK  6 active torsions:
REMARK  status: ('A' for Active; 'I' for Inactive)
REMARK    1  A    between atoms: C_2  and  C_3 
REMARK    2  A    between atoms: C_3  and  C_4 
REMARK    3  A    between atoms: C_3  and  C_10 
REMARK    4  A    between atoms: C_10  and  C_11 
REMARK       I    between atoms: C_11  and  N_12 
REMARK    5  A    between atoms: N_12  and  C_13 
REMARK    6  A    between atoms: C_20  and  C_21 
REMARK       I    between atoms: C_21  and  N_22 
ROOT
HETATM    1  C   UNL     1      44.453 -14.380   7.059  1.00  0.00     0.035 A 
HETATM    2  C   UNL     1      44.046 -13.636   8.173  1.00  0.00     0.046 A 
HETATM    3  C   UNL     1      44.856 -12.575   8.637  1.00  0.00     0.030 A 
HETATM    4  C   UNL     1      46.050 -12.304   7.978  1.00  0.00     0.063 A 
HETATM    5  N   UNL     1      46.606 -11.252   8.650  1.00  0.00    -0.277 N 
HETATM    6  H   UNL     1      47.486 -10.792   8.448  1.00  0.00     0.189 HD
HETATM    7  N   UNL     1      45.874 -10.800   9.680  1.00  0.00    -0.168 NA
HETATM    8  C   UNL     1      44.787 -11.606   9.685  1.00  0.00     0.156 A 
HETATM    9  C   UNL     1      46.487 -13.026   6.868  1.00  0.00     0.034 A 
HETATM   10  C   UNL     1      45.661 -14.063   6.420  1.00  0.00     0.032 A 
ENDROOT
BRANCH   1  11
HETATM   11  N   UNL     1      43.712 -15.449   6.508  1.00  0.00    -0.327 N 
HETATM   12  C   UNL     1      44.086 -16.778   6.414  1.00  0.00     0.223 C 
HETATM   13  O   UNL     1      45.133 -17.267   6.826  1.00  0.00    -0.273 OA
HETATM   14  H   UNL     1      42.822 -15.193   6.105  1.00  0.00     0.169 HD
BRANCH  12  15
HETATM   15  C   UNL     1      43.022 -17.679   5.802  1.00  0.00     0.116 C 
BRANCH  15  16
HETATM   16  C   UNL     1      42.996 -17.719   4.261  1.00  0.00     0.049 C 
BRANCH  16  17
HETATM   17  C   UNL     1      41.617 -17.301   3.768  1.00  0.00    -0.027 C 
HETATM   18  C   UNL     1      41.109 -16.064   3.677  1.00  0.00     0.007 C 
ENDBRANCH  16  17
BRANCH  16  19
HETATM   19  C   UNL     1      43.513 -19.026   3.675  1.00  0.00    -0.050 A 
HETATM   20  C   UNL     1      44.379 -19.868   4.389  1.00  0.00     0.008 A 
HETATM   21  C   UNL     1      44.839 -21.060   3.825  1.00  0.00     0.001 A 
HETATM   22  C   UNL     1      44.439 -21.428   2.543  1.00  0.00     0.000 A 
HETATM   23  C   UNL     1      43.573 -20.608   1.825  1.00  0.00     0.001 A 
HETATM   24  C   UNL     1      43.109 -19.417   2.388  1.00  0.00     0.008 A 
ENDBRANCH  16  19
ENDBRANCH  15  16
ENDBRANCH  12  15
ENDBRANCH   1  11
BRANCH   8  25
HETATM   25  C   UNL     1      43.715 -11.426  10.674  1.00  0.00     0.270 C 
HETATM   26  N   UNL     1      42.454 -11.449  10.140  1.00  0.00    -0.365 N 
HETATM   27  H   UNL     1      42.354 -11.593   9.142  1.00  0.00     0.159 HD
HETATM   28  H   UNL     1      41.656 -11.350  10.745  1.00  0.00     0.159 HD
HETATM   29  O   UNL     1      43.890 -11.275  11.878  1.00  0.00    -0.266 OA
ENDBRANCH   8  25
TORSDOF 6
ENDMDL
MODEL 7
REMARK VINA RESULT:      -7.8      1.750      3.143
REMARK  6 active torsions:
REMARK  status: ('A' for Active; 'I' for Inactive)
REMARK    1  A    between atoms: C_2  and  C_3 
REMARK    2  A    between atoms: C_3  and  C_4 
REMARK    3  A    between atoms: C_3  and  C_10 
REMARK    4  A    between atoms: C_10  and  C_11 
REMARK       I    between atoms: C_11  and  N_12 
REMARK    5  A    between atoms: N_12  and  C_13 
REMARK    6  A    between atoms: C_20  and  C_21 
REMARK       I    between atoms: C_21  and  N_22 
ROOT
HETATM    1  C   UNL     1      40.460 -14.980   4.543  1.00  0.00     0.035 A 
HETATM    2  C   UNL     1      39.948 -14.323   3.417  1.00  0.00     0.046 A 
HETATM    3  C   UNL     1      39.373 -13.040   3.559  1.00  0.00     0.030 A 
HETATM    4  C   UNL     1      39.320 -12.465   4.823  1.00  0.00     0.063 A 
HETATM    5  N   UNL     1      38.712 -11.253   4.646  1.00  0.00    -0.277 N 
HETATM    6  H   UNL     1      38.502 -10.563   5.357  1.00  0.00     0.189 HD
HETATM    7  N   UNL     1      38.378 -10.978   3.376  1.00  0.00    -0.168 NA
HETATM    8  C   UNL     1      38.782 -12.072   2.689  1.00  0.00     0.156 A 
HETATM    9  C   UNL     1      39.817 -13.090   5.966  1.00  0.00     0.034 A 
HETATM   10  C   UNL     1      40.393 -14.354   5.797  1.00  0.00     0.032 A 
ENDROOT
BRANCH   1  11
HETATM   11  N   UNL     1      41.066 -16.255   4.507  1.00  0.00    -0.327 N 
HETATM   12  C   UNL     1      42.417 -16.550   4.526  1.00  0.00     0.223 C 
HETATM   13  O   UNL     1      43.335 -15.740   4.608  1.00  0.00    -0.273 OA
HETATM   14  H   UNL     1      40.427 -17.032   4.419  1.00  0.00     0.169 HD
BRANCH  12  15
HETATM   15  C   UNL     1      42.726 -18.042   4.521  1.00  0.00     0.116 C 
BRANCH  15  16
HETATM   16  C   UNL     1      43.731 -18.506   3.449  1.00  0.00     0.049 C 
BRANCH  16  17
HETATM   17  C   UNL     1      43.235 -18.080   2.073  1.00  0.00    -0.027 C 
HETATM   18  C   UNL     1      43.882 -17.363   1.144  1.00  0.00     0.007 C 
ENDBRANCH  16  17
BRANCH  16  19
HETATM   19  C   UNL     1      44.110 -19.976   3.563  1.00  0.00    -0.050 A 
HETATM   20  C   UNL     1      44.103 -20.833   2.451  1.00  0.00     0.008 A 
HETATM   21  C   UNL     1      44.453 -22.178   2.585  1.00  0.00     0.001 A 
HETATM   22  C   UNL     1      44.818 -22.685   3.831  1.00  0.00     0.000 A 
HETATM   23  C   UNL     1      44.839 -21.846   4.942  1.00  0.00     0.001 A 
HETATM   24  C   UNL     1      44.492 -20.500   4.808  1.00  0.00     0.008 A 
ENDBRANCH  16  19
ENDBRANCH  15  16
ENDBRANCH  12  15
ENDBRANCH   1  11
BRANCH   8  25
HETATM   25  C   UNL     1      38.604 -12.162   1.233  1.00  0.00     0.270 C 
HETATM   26  N   UNL     1      37.320 -11.937   0.814  1.00  0.00    -0.365 N 
HETATM   27  H   UNL     1      36.614 -11.723   1.509  1.00  0.00     0.159 HD
HETATM   28  H   UNL     1      37.106 -11.962  -0.170  1.00  0.00     0.159 HD
HETATM   29  O   UNL     1      39.498 -12.405   0.431  1.00  0.00    -0.266 OA
ENDBRANCH   8  25
TORSDOF 6
ENDMDL
MODEL 8
REMARK VINA RESULT:      -7.7      4.369      7.896
REMARK  6 active torsions:
REMARK  status: ('A' for Active; 'I' for Inactive)
REMARK    1  A    between atoms: C_2  and  C_3 
REMARK    2  A    between atoms: C_3  and  C_4 
REMARK    3  A    between atoms: C_3  and  C_10 
REMARK    4  A    between atoms: C_10  and  C_11 
REMARK       I    between atoms: C_11  and  N_12 
REMARK    5  A    between atoms: N_12  and  C_13 
REMARK    6  A    between atoms: C_20  and  C_21 
REMARK       I    between atoms: C_21  and  N_22 
ROOT
HETATM    1  C   UNL     1      42.994 -16.849   2.163  1.00  0.00     0.035 A 
HETATM    2  C   UNL     1      43.096 -16.817   3.560  1.00  0.00     0.046 A 
HETATM    3  C   UNL     1      43.642 -17.926   4.246  1.00  0.00     0.030 A 
HETATM    4  C   UNL     1      44.053 -19.032   3.512  1.00  0.00     0.063 A 
HETATM    5  N   UNL     1      44.516 -19.928   4.435  1.00  0.00    -0.277 N 
HETATM    6  H   UNL     1      44.892 -20.852   4.257  1.00  0.00     0.189 HD
HETATM    7  N   UNL     1      44.459 -19.499   5.705  1.00  0.00    -0.168 NA
HETATM    8  C   UNL     1      43.922 -18.261   5.606  1.00  0.00     0.156 A 
HETATM    9  C   UNL     1      43.964 -19.100   2.122  1.00  0.00     0.034 A 
HETATM   10  C   UNL     1      43.433 -17.984   1.465  1.00  0.00     0.032 A 
ENDROOT
BRANCH   1  11
HETATM   11  N   UNL     1      42.478 -15.791   1.383  1.00  0.00    -0.327 N 
HETATM   12  C   UNL     1      41.152 -15.524   1.091  1.00  0.00     0.223 C 
HETATM   13  O   UNL     1      40.181 -16.156   1.493  1.00  0.00    -0.273 OA
HETATM   14  H   UNL     1      43.172 -15.189   0.964  1.00  0.00     0.169 HD
BRANCH  12  15
HETATM   15  C   UNL     1      40.943 -14.268   0.254  1.00  0.00     0.116 C 
BRANCH  15  16
HETATM   16  C   UNL     1      41.351 -14.386  -1.227  1.00  0.00     0.049 C 
BRANCH  16  17
HETATM   17  C   UNL     1      42.104 -13.131  -1.646  1.00  0.00    -0.027 C 
HETATM   18  C   UNL     1      42.747 -12.895  -2.799  1.00  0.00     0.007 C 
ENDBRANCH  16  17
BRANCH  16  19
HETATM   19  C   UNL     1      40.202 -14.777  -2.147  1.00  0.00    -0.050 A 
HETATM   20  C   UNL     1      38.957 -14.130  -2.096  1.00  0.00     0.008 A 
HETATM   21  C   UNL     1      37.921 -14.511  -2.951  1.00  0.00     0.001 A 
HETATM   22  C   UNL     1      38.114 -15.540  -3.870  1.00  0.00     0.000 A 
HETATM   23  C   UNL     1      39.345 -16.185  -3.940  1.00  0.00     0.001 A 
HETATM   24  C   UNL     1      40.384 -15.804  -3.088  1.00  0.00     0.008 A 
ENDBRANCH  16  19
ENDBRANCH  15  16
ENDBRANCH  12  15
ENDBRANCH   1  11
BRANCH   8  25
HETATM   25  C   UNL     1      43.702 -17.433   6.800  1.00  0.00     0.270 C 
HETATM   26  N   UNL     1      44.444 -16.282   6.825  1.00  0.00    -0.365 N 
HETATM   27  H   UNL     1      45.060 -16.087   6.046  1.00  0.00     0.159 HD
HETATM   28  H   UNL     1      44.347 -15.645   7.598  1.00  0.00     0.159 HD
HETATM   29  O   UNL     1      42.927 -17.706   7.710  1.00  0.00    -0.266 OA
ENDBRANCH   8  25
TORSDOF 6
ENDMDL
MODEL 9
REMARK VINA RESULT:      -7.7      4.701      6.236
REMARK  6 active torsions:
REMARK  status: ('A' for Active; 'I' for Inactive)
REMARK    1  A    between atoms: C_2  and  C_3 
REMARK    2  A    between atoms: C_3  and  C_4 
REMARK    3  A    between atoms: C_3  and  C_10 
REMARK    4  A    between atoms: C_10  and  C_11 
REMARK       I    between atoms: C_11  and  N_12 
REMARK    5  A    between atoms: N_12  and  C_13 
REMARK    6  A    between atoms: C_20  and  C_21 
REMARK       I    between atoms: C_21  and  N_22 
ROOT
HETATM    1  C   UNL     1      41.229 -15.164  -0.953  1.00  0.00     0.035 A 
HETATM    2  C   UNL     1      41.742 -13.874  -0.764  1.00  0.00     0.046 A 
HETATM    3  C   UNL     1      41.956 -13.038  -1.883  1.00  0.00     0.030 A 
HETATM    4  C   UNL     1      41.661 -13.525  -3.150  1.00  0.00     0.063 A 
HETATM    5  N   UNL     1      41.976 -12.511  -4.012  1.00  0.00    -0.277 N 
HETATM    6  H   UNL     1      41.893 -12.517  -5.021  1.00  0.00     0.189 HD
HETATM    7  N   UNL     1      42.434 -11.399  -3.418  1.00  0.00    -0.168 NA
HETATM    8  C   UNL     1      42.426 -11.707  -2.100  1.00  0.00     0.156 A 
HETATM    9  C   UNL     1      41.152 -14.804  -3.376  1.00  0.00     0.034 A 
HETATM   10  C   UNL     1      40.937 -15.608  -2.251  1.00  0.00     0.032 A 
ENDROOT
BRANCH   1  11
HETATM   11  N   UNL     1      40.966 -16.072   0.097  1.00  0.00    -0.327 N 
HETATM   12  C   UNL     1      41.854 -16.943   0.704  1.00  0.00     0.223 C 
HETATM   13  O   UNL     1      43.049 -17.054   0.449  1.00  0.00    -0.273 OA
HETATM   14  H   UNL     1      40.005 -16.108   0.404  1.00  0.00     0.169 HD
BRANCH  12  15
HETATM   15  C   UNL     1      41.246 -17.754   1.841  1.00  0.00     0.116 C 
BRANCH  15  16
HETATM   16  C   UNL     1      41.946 -17.606   3.206  1.00  0.00     0.049 C 
BRANCH  16  17
HETATM   17  C   UNL     1      42.399 -16.163   3.389  1.00  0.00    -0.027 C 
HETATM   18  C   UNL     1      41.737 -15.154   3.971  1.00  0.00     0.007 C 
ENDBRANCH  16  17
BRANCH  16  19
HETATM   19  C   UNL     1      43.027 -18.649   3.454  1.00  0.00    -0.050 A 
HETATM   20  C   UNL     1      43.317 -19.655   2.519  1.00  0.00     0.008 A 
HETATM   21  C   UNL     1      44.313 -20.600   2.775  1.00  0.00     0.001 A 
HETATM   22  C   UNL     1      45.035 -20.551   3.965  1.00  0.00     0.000 A 
HETATM   23  C   UNL     1      44.767 -19.554   4.899  1.00  0.00     0.001 A 
HETATM   24  C   UNL     1      43.773 -18.607   4.644  1.00  0.00     0.008 A 
ENDBRANCH  16  19
ENDBRANCH  15  16
ENDBRANCH  12  15
ENDBRANCH   1  11
BRANCH   8  25
HETATM   25  C   UNL     1      42.855 -10.728  -1.091  1.00  0.00     0.270 C 
HETATM   26  N   UNL     1      41.823 -10.161  -0.391  1.00  0.00    -0.365 N 
HETATM   27  H   UNL     1      40.877 -10.453  -0.603  1.00  0.00     0.159 HD
HETATM   28  H   UNL     1      42.023  -9.491   0.333  1.00  0.00     0.159 HD
HETATM   29  O   UNL     1      44.020 -10.425  -0.859  1.00  0.00    -0.266 OA
ENDBRANCH   8  25
TORSDOF 6
ENDMDL
MODEL 10
REMARK VINA RESULT:      -7.6      1.604      2.660
REMARK  6 active torsions:
REMARK  status: ('A' for Active; 'I' for Inactive)
REMARK    1  A    between atoms: C_2  and  C_3 
REMARK    2  A    between atoms: C_3  and  C_4 
REMARK    3  A    between atoms: C_3  and  C_10 
REMARK    4  A    between atoms: C_10  and  C_11 
REMARK       I    between atoms: C_11  and  N_12 
REMARK    5  A    between atoms: N_12  and  C_13 
REMARK    6  A    between atoms: C_20  and  C_21 
REMARK       I    between atoms: C_21  and  N_22 
ROOT
HETATM    1  C   UNL     1      40.186 -15.117   3.406  1.00  0.00     0.035 A 
HETATM    2  C   UNL     1      40.191 -14.323   4.561  1.00  0.00     0.046 A 
HETATM    3  C   UNL     1      39.546 -13.066   4.546  1.00  0.00     0.030 A 
HETATM    4  C   UNL     1      38.932 -12.641   3.374  1.00  0.00     0.063 A 
HETATM    5  N   UNL     1      38.416 -11.408   3.660  1.00  0.00    -0.277 N 
HETATM    6  H   UNL     1      37.903 -10.798   3.034  1.00  0.00     0.189 HD
HETATM    7  N   UNL     1      38.624 -10.997   4.920  1.00  0.00    -0.168 NA
HETATM    8  C   UNL     1      39.320 -12.011   5.483  1.00  0.00     0.156 A 
HETATM    9  C   UNL     1      38.911 -13.402   2.206  1.00  0.00     0.034 A 
HETATM   10  C   UNL     1      39.544 -14.650   2.250  1.00  0.00     0.032 A 
ENDROOT
BRANCH   1  11
HETATM   11  N   UNL     1      40.788 -16.392   3.321  1.00  0.00    -0.327 N 
HETATM   12  C   UNL     1      42.040 -16.705   2.822  1.00  0.00     0.223 C 
HETATM   13  O   UNL     1      42.867 -15.909   2.389  1.00  0.00    -0.273 OA
HETATM   14  H   UNL     1      40.210 -17.161   3.627  1.00  0.00     0.169 HD
BRANCH  12  15
HETATM   15  C   UNL     1      42.395 -18.183   2.922  1.00  0.00     0.116 C 
BRANCH  15  16
HETATM   16  C   UNL     1      43.781 -18.491   3.519  1.00  0.00     0.049 C 
BRANCH  16  17
HETATM   17  C   UNL     1      44.308 -19.793   2.931  1.00  0.00    -0.027 C 
HETATM   18  C   UNL     1      43.736 -20.577   2.007  1.00  0.00     0.007 C 
ENDBRANCH  16  17
BRANCH  16  19
HETATM   19  C   UNL     1      43.821 -18.416   5.040  1.00  0.00    -0.050 A 
HETATM   20  C   UNL     1      43.760 -19.567   5.841  1.00  0.00     0.008 A 
HETATM   21  C   UNL     1      43.796 -19.468   7.234  1.00  0.00     0.001 A 
HETATM   22  C   UNL     1      43.896 -18.220   7.844  1.00  0.00     0.000 A 
HETATM   23  C   UNL     1      43.967 -17.070   7.064  1.00  0.00     0.001 A 
HETATM   24  C   UNL     1      43.934 -17.167   5.671  1.00  0.00     0.008 A 
ENDBRANCH  16  19
ENDBRANCH  15  16
ENDBRANCH  12  15
ENDBRANCH   1  11
BRANCH   8  25
HETATM   25  C   UNL     1      39.740 -11.954   6.890  1.00  0.00     0.270 C 
HETATM   26  N   UNL     1      41.086 -11.769   7.063  1.00  0.00    -0.365 N 
HETATM   27  H   UNL     1      41.671 -11.678   6.241  1.00  0.00     0.159 HD
HETATM   28  H   UNL     1      41.463 -11.701   7.994  1.00  0.00     0.159 HD
HETATM   29  O   UNL     1      38.985 -12.049   7.852  1.00  0.00    -0.266 OA
ENDBRANCH   8  25
TORSDOF 6
ENDMDL
