MODEL 1
REMARK VINA RESULT:      -9.6      0.000      0.000
REMARK  8 active torsions:
REMARK  status: ('A' for Active; 'I' for Inactive)
REMARK       I    between atoms: N_2  and  C_3 
REMARK    1  A    between atoms: N_2  and  C_29 
REMARK    2  A    between atoms: C_3  and  C_4 
REMARK    3  A    between atoms: C_7  and  C_8 
REMARK       I    between atoms: C_8  and  N_9 
REMARK    4  A    between atoms: N_9  and  C_10 
REMARK    5  A    between atoms: N_20  and  C_21 
REMARK    6  A    between atoms: C_21  and  C_22 
REMARK    7  A    between atoms: C_29  and  C_30 
REMARK    8  A    between atoms: C_30  and  C_31 
ROOT
HETATM    1  C   UNL     1      43.440 -16.074   7.041  1.00  0.00     0.098 C 
HETATM    2  C   UNL     1      42.437 -15.571   6.073  1.00  0.00     0.206 C 
HETATM    3  O   UNL     1      41.340 -16.111   5.942  1.00  0.00    -0.286 OA
HETATM    4  C   UNL     1      42.805 -14.375   5.256  1.00  0.00     0.098 C 
HETATM    5  C   UNL     1      43.871 -13.668   5.673  1.00  0.00     0.111 C 
HETATM    6  N   UNL     1      44.664 -14.004   6.766  1.00  0.00    -0.362 N 
HETATM    7  C   UNL     1      44.438 -15.236   7.368  1.00  0.00     0.111 C 
ENDROOT
BRANCH   1   8
HETATM    8  C   UNL     1      43.405 -17.379   7.742  1.00  0.00     0.258 C 
HETATM    9  N   UNL     1      43.614 -18.547   7.016  1.00  0.00    -0.352 N 
HETATM   10  C   UNL     1      43.745 -19.796   7.755  1.00  0.00     0.152 C 
HETATM   11  O   UNL     1      43.318 -17.374   8.973  1.00  0.00    -0.267 OA
BRANCH   9  12
HETATM   12  C   UNL     1      43.676 -18.679   5.551  1.00  0.00     0.131 C 
BRANCH  12  13
HETATM   13  C   UNL     1      44.901 -19.443   5.045  1.00  0.00     0.079 C 
BRANCH  13  14
HETATM   14  C   UNL     1      44.541 -20.297   3.854  1.00  0.00     0.035 A 
HETATM   15  N   UNL     1      44.831 -21.618   3.936  1.00  0.00    -0.266 NA
HETATM   16  C   UNL     1      44.504 -22.398   2.882  1.00  0.00     0.117 A 
HETATM   17  C   UNL     1      43.907 -21.922   1.729  1.00  0.00     0.019 A 
HETATM   18  C   UNL     1      43.631 -20.562   1.650  1.00  0.00     0.003 A 
HETATM   19  C   UNL     1      43.951 -19.735   2.725  1.00  0.00     0.027 A 
ENDBRANCH  13  14
ENDBRANCH  12  13
ENDBRANCH   9  12
ENDBRANCH   1   8
BRANCH   4  20
HETATM   20  C   UNL     1      42.075 -13.948   4.028  1.00  0.00     0.257 C 
HETATM   21  N   UNL     1      41.535 -14.977   3.296  1.00  0.00    -0.352 N 
HETATM   22  H   UNL     1      41.589 -15.916   3.691  1.00  0.00     0.163 HD
HETATM   23  O   UNL     1      42.013 -12.770   3.693  1.00  0.00    -0.267 OA
BRANCH  21  24
HETATM   24  C   UNL     1      40.870 -14.850   1.997  1.00  0.00     0.084 C 
HETATM   25  C   UNL     1      41.440 -15.857   0.992  1.00  0.00     0.025 C 
HETATM   26  C   UNL     1      41.045 -15.680  -0.476  1.00  0.00     0.002 C 
HETATM   27  C   UNL     1      41.081 -14.241  -0.997  1.00  0.00     0.000 C 
HETATM   28  C   UNL     1      39.711 -13.567  -1.114  1.00  0.00     0.000 C 
HETATM   29  C   UNL     1      38.973 -13.251   0.190  1.00  0.00     0.000 C 
HETATM   30  C   UNL     1      38.491 -14.479   0.962  1.00  0.00     0.002 C 
HETATM   31  C   UNL     1      39.346 -14.870   2.168  1.00  0.00     0.025 C 
ENDBRANCH  21  24
ENDBRANCH   4  20
BRANCH   6  32
HETATM   32  C   UNL     1      45.694 -13.073   7.282  1.00  0.00     0.159 C 
BRANCH  32  33
HETATM   33  C   UNL     1      45.384 -12.487   8.666  1.00  0.00     0.139 C 
HETATM   34  O   UNL     1      44.017 -12.043   8.781  1.00  0.00    -0.384 OA
HETATM   35  C   UNL     1      43.990 -10.918   9.673  1.00  0.00     0.168 C 
HETATM   36  C   UNL     1      45.389 -10.755  10.234  1.00  0.00     0.029 C 
HETATM   37  C   UNL     1      46.240 -11.319   9.123  1.00  0.00     0.035 C 
ENDBRANCH  32  33
ENDBRANCH   6  32
TORSDOF 8
ENDMDL
MODEL 2
REMARK VINA RESULT:      -8.9      3.353      8.917
REMARK  8 active torsions:
REMARK  status: ('A' for Active; 'I' for Inactive)
REMARK       I    between atoms: N_2  and  C_3 
REMARK    1  A    between atoms: N_2  and  C_29 
REMARK    2  A    between atoms: C_3  and  C_4 
REMARK    3  A    between atoms: C_7  and  C_8 
REMARK       I    between atoms: C_8  and  N_9 
REMARK    4  A    between atoms: N_9  and  C_10 
REMARK    5  A    between atoms: N_20  and  C_21 
REMARK    6  A    between atoms: C_21  and  C_22 
REMARK    7  A    between atoms: C_29  and  C_30 
REMARK    8  A    between atoms: C_30  and  C_31 
ROOT
HETATM    1  C   UNL     1      39.335 -14.161   0.708  1.00  0.00     0.098 C 
HETATM    2  C   UNL     1      39.985 -15.116   1.636  1.00  0.00     0.206 C 
HETATM    3  O   UNL     1      39.518 -15.353   2.749  1.00  0.00    -0.286 OA
HETATM    4  C   UNL     1      41.236 -15.787   1.172  1.00  0.00     0.098 C 
HETATM    5  C   UNL     1      41.502 -15.717  -0.145  1.00  0.00     0.111 C 
HETATM    6  N   UNL     1      40.724 -15.031  -1.073  1.00  0.00    -0.362 N 
HETATM    7  C   UNL     1      39.699 -14.230  -0.584  1.00  0.00     0.111 C 
ENDROOT
BRANCH   1   8
HETATM    8  C   UNL     1      38.267 -13.193   1.051  1.00  0.00     0.258 C 
HETATM    9  N   UNL     1      38.601 -12.019   1.719  1.00  0.00    -0.352 N 
HETATM   10  C   UNL     1      37.562 -11.012   1.890  1.00  0.00     0.152 C 
HETATM   11  O   UNL     1      37.131 -13.404   0.617  1.00  0.00    -0.267 OA
BRANCH   9  12
HETATM   12  C   UNL     1      39.900 -11.687   2.327  1.00  0.00     0.131 C 
BRANCH  12  13
HETATM   13  C   UNL     1      39.968 -11.946   3.833  1.00  0.00     0.079 C 
BRANCH  13  14
HETATM   14  C   UNL     1      41.270 -12.616   4.200  1.00  0.00     0.035 A 
HETATM   15  N   UNL     1      41.477 -12.877   5.513  1.00  0.00    -0.266 NA
HETATM   16  C   UNL     1      42.634 -13.487   5.856  1.00  0.00     0.117 A 
HETATM   17  C   UNL     1      43.613 -13.845   4.948  1.00  0.00     0.019 A 
HETATM   18  C   UNL     1      43.396 -13.556   3.606  1.00  0.00     0.003 A 
HETATM   19  C   UNL     1      42.210 -12.933   3.222  1.00  0.00     0.027 A 
ENDBRANCH  13  14
ENDBRANCH  12  13
ENDBRANCH   9  12
ENDBRANCH   1   8
BRANCH   4  20
HETATM   20  C   UNL     1      42.185 -16.500   2.075  1.00  0.00     0.257 C 
HETATM   21  N   UNL     1      41.697 -16.750   3.334  1.00  0.00    -0.352 N 
HETATM   22  H   UNL     1      40.718 -16.524   3.515  1.00  0.00     0.163 HD
HETATM   23  O   UNL     1      43.321 -16.790   1.716  1.00  0.00    -0.267 OA
BRANCH  21  24
HETATM   24  C   UNL     1      42.452 -17.330   4.448  1.00  0.00     0.084 C 
HETATM   25  C   UNL     1      41.744 -17.068   5.781  1.00  0.00     0.025 C 
HETATM   26  C   UNL     1      42.527 -17.372   7.061  1.00  0.00     0.002 C 
HETATM   27  C   UNL     1      43.986 -16.907   7.064  1.00  0.00     0.000 C 
HETATM   28  C   UNL     1      45.013 -18.015   6.822  1.00  0.00     0.000 C 
HETATM   29  C   UNL     1      45.045 -18.646   5.428  1.00  0.00     0.000 C 
HETATM   30  C   UNL     1      43.813 -19.479   5.076  1.00  0.00     0.002 C 
HETATM   31  C   UNL     1      42.801 -18.795   4.156  1.00  0.00     0.025 C 
ENDBRANCH  21  24
ENDBRANCH   4  20
BRANCH   6  32
HETATM   32  C   UNL     1      40.968 -15.165  -2.528  1.00  0.00     0.159 C 
BRANCH  32  33
HETATM   33  C   UNL     1      41.706 -13.977  -3.160  1.00  0.00     0.139 C 
HETATM   34  O   UNL     1      42.584 -13.316  -2.227  1.00  0.00    -0.384 OA
HETATM   35  C   UNL     1      42.626 -11.922  -2.567  1.00  0.00     0.168 C 
HETATM   36  C   UNL     1      41.841 -11.750  -3.854  1.00  0.00     0.029 C 
HETATM   37  C   UNL     1      40.847 -12.883  -3.769  1.00  0.00     0.035 C 
ENDBRANCH  32  33
ENDBRANCH   6  32
TORSDOF 8
ENDMDL
MODEL 3
REMARK VINA RESULT:      -8.8      3.258      8.550
REMARK  8 active torsions:
REMARK  status: ('A' for Active; 'I' for Inactive)
REMARK       I    between atoms: N_2  and  C_3 
REMARK    1  A    between atoms: N_2  and  C_29 
REMARK    2  A    between atoms: C_3  and  C_4 
REMARK    3  A    between atoms: C_7  and  C_8 
REMARK       I    between atoms: C_8  and  N_9 
REMARK    4  A    between atoms: N_9  and  C_10 
REMARK    5  A    between atoms: N_20  and  C_21 
REMARK    6  A    between atoms: C_21  and  C_22 
REMARK    7  A    between atoms: C_29  and  C_30 
REMARK    8  A    between atoms: C_30  and  C_31 
ROOT
HETATM    1  C   UNL     1      40.089 -14.818   1.170  1.00  0.00     0.098 C 
HETATM    2  C   UNL     1      40.860 -15.943   1.750  1.00  0.00     0.206 C 
HETATM    3  O   UNL     1      40.626 -16.370   2.879  1.00  0.00    -0.286 OA
HETATM    4  C   UNL     1      41.939 -16.546   0.911  1.00  0.00     0.098 C 
HETATM    5  C   UNL     1      41.922 -16.240  -0.399  1.00  0.00     0.111 C 
HETATM    6  N   UNL     1      41.011 -15.376  -0.998  1.00  0.00    -0.362 N 
HETATM    7  C   UNL     1      40.165 -14.656  -0.162  1.00  0.00     0.111 C 
ENDROOT
BRANCH   1   8
HETATM    8  C   UNL     1      39.181 -13.906   1.904  1.00  0.00     0.258 C 
HETATM    9  N   UNL     1      39.714 -13.017   2.833  1.00  0.00    -0.352 N 
HETATM   10  C   UNL     1      38.825 -12.019   3.411  1.00  0.00     0.152 C 
HETATM   11  O   UNL     1      37.993 -13.878   1.571  1.00  0.00    -0.267 OA
BRANCH   9  12
HETATM   12  C   UNL     1      41.095 -12.997   3.345  1.00  0.00     0.131 C 
BRANCH  12  13
HETATM   13  C   UNL     1      41.194 -12.876   4.867  1.00  0.00     0.079 C 
BRANCH  13  14
HETATM   14  C   UNL     1      41.495 -14.218   5.488  1.00  0.00     0.035 A 
HETATM   15  N   UNL     1      40.436 -15.020   5.757  1.00  0.00    -0.266 NA
HETATM   16  C   UNL     1      40.690 -16.231   6.303  1.00  0.00     0.117 A 
HETATM   17  C   UNL     1      41.959 -16.685   6.611  1.00  0.00     0.019 A 
HETATM   18  C   UNL     1      43.035 -15.845   6.346  1.00  0.00     0.003 A 
HETATM   19  C   UNL     1      42.804 -14.594   5.776  1.00  0.00     0.027 A 
ENDBRANCH  13  14
ENDBRANCH  12  13
ENDBRANCH   9  12
ENDBRANCH   1   8
BRANCH   4  20
HETATM   20  C   UNL     1      43.011 -17.436   1.444  1.00  0.00     0.257 C 
HETATM   21  N   UNL     1      42.580 -18.368   2.354  1.00  0.00    -0.352 N 
HETATM   22  H   UNL     1      41.575 -18.442   2.515  1.00  0.00     0.163 HD
HETATM   23  O   UNL     1      44.184 -17.297   1.115  1.00  0.00    -0.267 OA
BRANCH  21  24
HETATM   24  C   UNL     1      43.433 -19.285   3.113  1.00  0.00     0.084 C 
HETATM   25  C   UNL     1      44.275 -20.153   2.171  1.00  0.00     0.025 C 
HETATM   26  C   UNL     1      45.019 -21.339   2.791  1.00  0.00     0.002 C 
HETATM   27  C   UNL     1      44.213 -22.167   3.795  1.00  0.00     0.000 C 
HETATM   28  C   UNL     1      44.545 -21.894   5.264  1.00  0.00     0.000 C 
HETATM   29  C   UNL     1      44.153 -20.526   5.827  1.00  0.00     0.000 C 
HETATM   30  C   UNL     1      44.944 -19.350   5.254  1.00  0.00     0.002 C 
HETATM   31  C   UNL     1      44.213 -18.525   4.194  1.00  0.00     0.025 C 
ENDBRANCH  21  24
ENDBRANCH   4  20
BRANCH   6  32
HETATM   32  C   UNL     1      40.930 -15.244  -2.471  1.00  0.00     0.159 C 
BRANCH  32  33
HETATM   33  C   UNL     1      41.619 -13.994  -3.035  1.00  0.00     0.139 C 
HETATM   34  O   UNL     1      42.512 -13.382  -2.083  1.00  0.00    -0.384 OA
HETATM   35  C   UNL     1      42.510 -11.966  -2.319  1.00  0.00     0.168 C 
HETATM   36  C   UNL     1      41.678 -11.719  -3.563  1.00  0.00     0.029 C 
HETATM   37  C   UNL     1      40.715 -12.880  -3.532  1.00  0.00     0.035 C 
ENDBRANCH  32  33
ENDBRANCH   6  32
TORSDOF 8
ENDMDL
MODEL 4
REMARK VINA RESULT:      -8.6      3.546      9.221
REMARK  8 active torsions:
REMARK  status: ('A' for Active; 'I' for Inactive)
REMARK       I    between atoms: N_2  and  C_3 
REMARK    1  A    between atoms: N_2  and  C_29 
REMARK    2  A    between atoms: C_3  and  C_4 
REMARK    3  A    between atoms: C_7  and  C_8 
REMARK       I    between atoms: C_8  and  N_9 
REMARK    4  A    between atoms: N_9  and  C_10 
REMARK    5  A    between atoms: N_20  and  C_21 
REMARK    6  A    between atoms: C_21  and  C_22 
REMARK    7  A    between atoms: C_29  and  C_30 
REMARK    8  A    between atoms: C_30  and  C_31 
ROOT
HETATM    1  C   UNL     1      39.501 -13.450   0.809  1.00  0.00     0.098 C 
HETATM    2  C   UNL     1      40.184 -14.562   1.511  1.00  0.00     0.206 C 
HETATM    3  O   UNL     1      39.702 -15.083   2.516  1.00  0.00    -0.286 OA
HETATM    4  C   UNL     1      41.488 -15.033   0.954  1.00  0.00     0.098 C 
HETATM    5  C   UNL     1      41.785 -14.637  -0.296  1.00  0.00     0.111 C 
HETATM    6  N   UNL     1      40.992 -13.791  -1.067  1.00  0.00    -0.362 N 
HETATM    7  C   UNL     1      39.905 -13.189  -0.446  1.00  0.00     0.111 C 
ENDROOT
BRANCH   1   8
HETATM    8  C   UNL     1      38.365 -12.652   1.327  1.00  0.00     0.258 C 
HETATM    9  N   UNL     1      38.621 -11.528   2.105  1.00  0.00    -0.352 N 
HETATM   10  C   UNL     1      37.498 -10.669   2.454  1.00  0.00     0.152 C 
HETATM   11  O   UNL     1      37.230 -12.942   0.940  1.00  0.00    -0.267 OA
BRANCH   9  12
HETATM   12  C   UNL     1      39.920 -11.119   2.668  1.00  0.00     0.131 C 
BRANCH  12  13
HETATM   13  C   UNL     1      39.970 -11.139   4.197  1.00  0.00     0.079 C 
BRANCH  13  14
HETATM   14  C   UNL     1      40.588 -12.423   4.692  1.00  0.00     0.035 A 
HETATM   15  N   UNL     1      39.798 -13.239   5.431  1.00  0.00    -0.266 NA
HETATM   16  C   UNL     1      40.334 -14.399   5.872  1.00  0.00     0.117 A 
HETATM   17  C   UNL     1      41.637 -14.788   5.623  1.00  0.00     0.019 A 
HETATM   18  C   UNL     1      42.443 -13.934   4.879  1.00  0.00     0.003 A 
HETATM   19  C   UNL     1      41.915 -12.734   4.405  1.00  0.00     0.027 A 
ENDBRANCH  13  14
ENDBRANCH  12  13
ENDBRANCH   9  12
ENDBRANCH   1   8
BRANCH   4  20
HETATM   20  C   UNL     1      42.454 -15.889   1.702  1.00  0.00     0.257 C 
HETATM   21  N   UNL     1      42.025 -17.173   1.928  1.00  0.00    -0.352 N 
HETATM   22  H   UNL     1      41.148 -17.462   1.493  1.00  0.00     0.163 HD
HETATM   23  O   UNL     1      43.522 -15.446   2.112  1.00  0.00    -0.267 OA
BRANCH  21  24
HETATM   24  C   UNL     1      42.721 -18.182   2.730  1.00  0.00     0.084 C 
HETATM   25  C   UNL     1      42.198 -18.191   4.170  1.00  0.00     0.025 C 
HETATM   26  C   UNL     1      42.996 -18.996   5.199  1.00  0.00     0.002 C 
HETATM   27  C   UNL     1      44.516 -18.835   5.123  1.00  0.00     0.000 C 
HETATM   28  C   UNL     1      45.251 -19.997   4.453  1.00  0.00     0.000 C 
HETATM   29  C   UNL     1      45.032 -20.190   2.950  1.00  0.00     0.000 C 
HETATM   30  C   UNL     1      43.622 -20.638   2.564  1.00  0.00     0.002 C 
HETATM   31  C   UNL     1      42.715 -19.538   2.011  1.00  0.00     0.025 C 
ENDBRANCH  21  24
ENDBRANCH   4  20
BRANCH   6  32
HETATM   32  C   UNL     1      41.284 -13.560  -2.501  1.00  0.00     0.159 C 
BRANCH  32  33
HETATM   33  C   UNL     1      40.429 -14.394  -3.465  1.00  0.00     0.139 C 
HETATM   34  O   UNL     1      39.067 -13.929  -3.534  1.00  0.00    -0.384 OA
HETATM   35  C   UNL     1      38.221 -15.064  -3.775  1.00  0.00     0.168 C 
HETATM   36  C   UNL     1      39.127 -16.259  -3.998  1.00  0.00     0.029 C 
HETATM   37  C   UNL     1      40.345 -15.885  -3.190  1.00  0.00     0.035 C 
ENDBRANCH  32  33
ENDBRANCH   6  32
TORSDOF 8
ENDMDL
MODEL 5
REMARK VINA RESULT:      -8.5      3.025      8.024
REMARK  8 active torsions:
REMARK  status: ('A' for Active; 'I' for Inactive)
REMARK       I    between atoms: N_2  and  C_3 
REMARK    1  A    between atoms: N_2  and  C_29 
REMARK    2  A    between atoms: C_3  and  C_4 
REMARK    3  A    between atoms: C_7  and  C_8 
REMARK       I    between atoms: C_8  and  N_9 
REMARK    4  A    between atoms: N_9  and  C_10 
REMARK    5  A    between atoms: N_20  and  C_21 
REMARK    6  A    between atoms: C_21  and  C_22 
REMARK    7  A    between atoms: C_29  and  C_30 
REMARK    8  A    between atoms: C_30  and  C_31 
ROOT
HETATM    1  C   UNL     1      39.741 -14.735   2.576  1.00  0.00     0.098 C 
HETATM    2  C   UNL     1      40.717 -15.845   2.682  1.00  0.00     0.206 C 
HETATM    3  O   UNL     1      41.192 -16.383   1.684  1.00  0.00    -0.286 OA
HETATM    4  C   UNL     1      41.109 -16.291   4.053  1.00  0.00     0.098 C 
HETATM    5  C   UNL     1      40.796 -15.463   5.066  1.00  0.00     0.111 C 
HETATM    6  N   UNL     1      40.101 -14.266   4.923  1.00  0.00    -0.362 N 
HETATM    7  C   UNL     1      39.553 -13.988   3.677  1.00  0.00     0.111 C 
ENDROOT
BRANCH   1   8
HETATM    8  C   UNL     1      39.013 -14.321   1.354  1.00  0.00     0.258 C 
HETATM    9  N   UNL     1      39.681 -13.589   0.377  1.00  0.00    -0.352 N 
HETATM   10  C   UNL     1      38.994 -13.346  -0.884  1.00  0.00     0.152 C 
HETATM   11  O   UNL     1      37.869 -14.753   1.186  1.00  0.00    -0.267 OA
BRANCH   9  12
HETATM   12  C   UNL     1      41.017 -12.979   0.490  1.00  0.00     0.131 C 
BRANCH  12  13
HETATM   13  C   UNL     1      41.899 -13.179  -0.744  1.00  0.00     0.079 C 
BRANCH  13  14
HETATM   14  C   UNL     1      42.401 -11.852  -1.259  1.00  0.00     0.035 A 
HETATM   15  N   UNL     1      43.088 -11.076  -0.386  1.00  0.00    -0.266 NA
HETATM   16  C   UNL     1      43.555  -9.890  -0.836  1.00  0.00     0.117 A 
HETATM   17  C   UNL     1      43.361  -9.425  -2.123  1.00  0.00     0.019 A 
HETATM   18  C   UNL     1      42.640 -10.223  -3.004  1.00  0.00     0.003 A 
HETATM   19  C   UNL     1      42.152 -11.454  -2.570  1.00  0.00     0.027 A 
ENDBRANCH  13  14
ENDBRANCH  12  13
ENDBRANCH   9  12
ENDBRANCH   1   8
BRANCH   4  20
HETATM   20  C   UNL     1      41.800 -17.581   4.345  1.00  0.00     0.257 C 
HETATM   21  N   UNL     1      42.836 -17.879   3.495  1.00  0.00    -0.352 N 
HETATM   22  H   UNL     1      43.108 -17.169   2.814  1.00  0.00     0.163 HD
HETATM   23  O   UNL     1      41.425 -18.320   5.248  1.00  0.00    -0.267 OA
BRANCH  21  24
HETATM   24  C   UNL     1      43.605 -19.125   3.484  1.00  0.00     0.084 C 
HETATM   25  C   UNL     1      44.086 -19.457   2.067  1.00  0.00     0.025 C 
HETATM   26  C   UNL     1      44.673 -20.852   1.837  1.00  0.00     0.002 C 
HETATM   27  C   UNL     1      43.900 -22.005   2.484  1.00  0.00     0.000 C 
HETATM   28  C   UNL     1      44.524 -22.552   3.770  1.00  0.00     0.000 C 
HETATM   29  C   UNL     1      44.512 -21.637   4.997  1.00  0.00     0.000 C 
HETATM   30  C   UNL     1      45.413 -20.407   4.884  1.00  0.00     0.002 C 
HETATM   31  C   UNL     1      44.692 -19.096   4.566  1.00  0.00     0.025 C 
ENDBRANCH  21  24
ENDBRANCH   4  20
BRANCH   6  32
HETATM   32  C   UNL     1      39.969 -13.315   6.051  1.00  0.00     0.159 C 
BRANCH  32  33
HETATM   33  C   UNL     1      40.607 -11.942   5.802  1.00  0.00     0.139 C 
HETATM   34  O   UNL     1      41.565 -11.588   6.818  1.00  0.00    -0.384 OA
HETATM   35  C   UNL     1      41.538 -10.161   6.977  1.00  0.00     0.168 C 
HETATM   36  C   UNL     1      40.615  -9.609   5.908  1.00  0.00     0.029 C 
HETATM   37  C   UNL     1      39.663 -10.758   5.690  1.00  0.00     0.035 C 
ENDBRANCH  32  33
ENDBRANCH   6  32
TORSDOF 8
ENDMDL
MODEL 6
REMARK VINA RESULT:      -8.5      2.431      3.462
REMARK  8 active torsions:
REMARK  status: ('A' for Active; 'I' for Inactive)
REMARK       I    between atoms: N_2  and  C_3 
REMARK    1  A    between atoms: N_2  and  C_29 
REMARK    2  A    between atoms: C_3  and  C_4 
REMARK    3  A    between atoms: C_7  and  C_8 
REMARK       I    between atoms: C_8  and  N_9 
REMARK    4  A    between atoms: N_9  and  C_10 
REMARK    5  A    between atoms: N_20  and  C_21 
REMARK    6  A    between atoms: C_21  and  C_22 
REMARK    7  A    between atoms: C_29  and  C_30 
REMARK    8  A    between atoms: C_30  and  C_31 
ROOT
HETATM    1  C   UNL     1      41.543 -15.779   4.951  1.00  0.00     0.098 C 
HETATM    2  C   UNL     1      41.096 -16.038   3.562  1.00  0.00     0.206 C 
HETATM    3  O   UNL     1      40.602 -17.115   3.234  1.00  0.00    -0.286 OA
HETATM    4  C   UNL     1      41.267 -14.938   2.566  1.00  0.00     0.098 C 
HETATM    5  C   UNL     1      41.516 -13.712   3.061  1.00  0.00     0.111 C 
HETATM    6  N   UNL     1      41.671 -13.422   4.413  1.00  0.00    -0.362 N 
HETATM    7  C   UNL     1      41.733 -14.494   5.296  1.00  0.00     0.111 C 
ENDROOT
BRANCH   1   8
HETATM    8  C   UNL     1      41.724 -16.792   6.017  1.00  0.00     0.258 C 
HETATM    9  N   UNL     1      42.903 -17.529   6.063  1.00  0.00    -0.352 N 
HETATM   10  C   UNL     1      43.125 -18.390   7.217  1.00  0.00     0.152 C 
HETATM   11  O   UNL     1      40.871 -16.856   6.907  1.00  0.00    -0.267 OA
BRANCH   9  12
HETATM   12  C   UNL     1      43.958 -17.574   5.036  1.00  0.00     0.131 C 
BRANCH  12  13
HETATM   13  C   UNL     1      44.788 -18.859   5.052  1.00  0.00     0.079 C 
BRANCH  13  14
HETATM   14  C   UNL     1      44.397 -19.760   3.906  1.00  0.00     0.035 A 
HETATM   15  N   UNL     1      44.834 -21.041   3.956  1.00  0.00    -0.266 NA
HETATM   16  C   UNL     1      44.482 -21.864   2.942  1.00  0.00     0.117 A 
HETATM   17  C   UNL     1      43.718 -21.467   1.861  1.00  0.00     0.019 A 
HETATM   18  C   UNL     1      43.291 -20.145   1.813  1.00  0.00     0.003 A 
HETATM   19  C   UNL     1      43.632 -19.276   2.847  1.00  0.00     0.027 A 
ENDBRANCH  13  14
ENDBRANCH  12  13
ENDBRANCH   9  12
ENDBRANCH   1   8
BRANCH   4  20
HETATM   20  C   UNL     1      41.189 -15.131   1.089  1.00  0.00     0.257 C 
HETATM   21  N   UNL     1      40.226 -14.378   0.464  1.00  0.00    -0.352 N 
HETATM   22  H   UNL     1      39.722 -13.692   1.028  1.00  0.00     0.163 HD
HETATM   23  O   UNL     1      41.907 -15.937   0.507  1.00  0.00    -0.267 OA
BRANCH  21  24
HETATM   24  C   UNL     1      39.861 -14.455  -0.952  1.00  0.00     0.084 C 
HETATM   25  C   UNL     1      38.822 -13.386  -1.307  1.00  0.00     0.025 C 
HETATM   26  C   UNL     1      38.140 -13.499  -2.673  1.00  0.00     0.002 C 
HETATM   27  C   UNL     1      37.696 -14.909  -3.071  1.00  0.00     0.000 C 
HETATM   28  C   UNL     1      38.610 -15.609  -4.079  1.00  0.00     0.000 C 
HETATM   29  C   UNL     1      40.008 -16.007  -3.597  1.00  0.00     0.000 C 
HETATM   30  C   UNL     1      40.942 -14.831  -3.310  1.00  0.00     0.002 C 
HETATM   31  C   UNL     1      41.117 -14.481  -1.832  1.00  0.00     0.025 C 
ENDBRANCH  21  24
ENDBRANCH   4  20
BRANCH   6  32
HETATM   32  C   UNL     1      41.744 -12.023   4.896  1.00  0.00     0.159 C 
BRANCH  32  33
HETATM   33  C   UNL     1      41.044 -11.778   6.239  1.00  0.00     0.139 C 
HETATM   34  O   UNL     1      39.813 -11.044   6.092  1.00  0.00    -0.384 OA
HETATM   35  C   UNL     1      39.633 -10.238   7.267  1.00  0.00     0.168 C 
HETATM   36  C   UNL     1      40.741 -10.603   8.235  1.00  0.00     0.029 C 
HETATM   37  C   UNL     1      41.842 -11.043   7.302  1.00  0.00     0.035 C 
ENDBRANCH  32  33
ENDBRANCH   6  32
TORSDOF 8
ENDMDL
MODEL 7
REMARK VINA RESULT:      -8.3      3.158      7.381
REMARK  8 active torsions:
REMARK  status: ('A' for Active; 'I' for Inactive)
REMARK       I    between atoms: N_2  and  C_3 
REMARK    1  A    between atoms: N_2  and  C_29 
REMARK    2  A    between atoms: C_3  and  C_4 
REMARK    3  A    between atoms: C_7  and  C_8 
REMARK       I    between atoms: C_8  and  N_9 
REMARK    4  A    between atoms: N_9  and  C_10 
REMARK    5  A    between atoms: N_20  and  C_21 
REMARK    6  A    between atoms: C_21  and  C_22 
REMARK    7  A    between atoms: C_29  and  C_30 
REMARK    8  A    between atoms: C_30  and  C_31 
ROOT
HETATM    1  C   UNL     1      40.674 -11.191   2.180  1.00  0.00     0.098 C 
HETATM    2  C   UNL     1      41.783 -12.160   2.350  1.00  0.00     0.206 C 
HETATM    3  O   UNL     1      42.430 -12.575   1.391  1.00  0.00    -0.286 OA
HETATM    4  C   UNL     1      42.091 -12.619   3.738  1.00  0.00     0.098 C 
HETATM    5  C   UNL     1      41.561 -11.897   4.742  1.00  0.00     0.111 C 
HETATM    6  N   UNL     1      40.721 -10.801   4.568  1.00  0.00    -0.362 N 
HETATM    7  C   UNL     1      40.270 -10.536   3.281  1.00  0.00     0.111 C 
ENDROOT
BRANCH   1   8
HETATM    8  C   UNL     1      40.025 -10.819   0.902  1.00  0.00     0.258 C 
HETATM    9  N   UNL     1      38.737 -11.273   0.634  1.00  0.00    -0.352 N 
HETATM   10  C   UNL     1      38.061 -10.752  -0.546  1.00  0.00     0.152 C 
HETATM   11  O   UNL     1      40.603 -10.008   0.172  1.00  0.00    -0.267 OA
BRANCH   9  12
HETATM   12  C   UNL     1      37.977 -12.276   1.399  1.00  0.00     0.131 C 
BRANCH  12  13
HETATM   13  C   UNL     1      37.766 -13.597   0.656  1.00  0.00     0.079 C 
BRANCH  13  14
HETATM   14  C   UNL     1      39.061 -14.365   0.557  1.00  0.00     0.035 A 
HETATM   15  N   UNL     1      39.728 -14.293  -0.621  1.00  0.00    -0.266 NA
HETATM   16  C   UNL     1      40.896 -14.967  -0.721  1.00  0.00     0.117 A 
HETATM   17  C   UNL     1      41.435 -15.728   0.300  1.00  0.00     0.019 A 
HETATM   18  C   UNL     1      40.733 -15.807   1.496  1.00  0.00     0.003 A 
HETATM   19  C   UNL     1      39.529 -15.118   1.631  1.00  0.00     0.027 A 
ENDBRANCH  13  14
ENDBRANCH  12  13
ENDBRANCH   9  12
ENDBRANCH   1   8
BRANCH   4  20
HETATM   20  C   UNL     1      42.925 -13.815   4.056  1.00  0.00     0.257 C 
HETATM   21  N   UNL     1      42.227 -14.875   4.580  1.00  0.00    -0.352 N 
HETATM   22  H   UNL     1      41.210 -14.800   4.617  1.00  0.00     0.163 HD
HETATM   23  O   UNL     1      44.140 -13.812   3.896  1.00  0.00    -0.267 OA
BRANCH  21  24
HETATM   24  C   UNL     1      42.810 -16.121   5.082  1.00  0.00     0.084 C 
HETATM   25  C   UNL     1      42.922 -16.094   6.611  1.00  0.00     0.025 C 
HETATM   26  C   UNL     1      43.749 -17.201   7.271  1.00  0.00     0.002 C 
HETATM   27  C   UNL     1      45.079 -17.525   6.586  1.00  0.00     0.000 C 
HETATM   28  C   UNL     1      45.067 -18.795   5.732  1.00  0.00     0.000 C 
HETATM   29  C   UNL     1      44.226 -18.771   4.453  1.00  0.00     0.000 C 
HETATM   30  C   UNL     1      42.716 -18.710   4.684  1.00  0.00     0.002 C 
HETATM   31  C   UNL     1      42.080 -17.334   4.490  1.00  0.00     0.025 C 
ENDBRANCH  21  24
ENDBRANCH   4  20
BRANCH   6  32
HETATM   32  C   UNL     1      40.339  -9.937   5.710  1.00  0.00     0.159 C 
BRANCH  32  33
HETATM   33  C   UNL     1      40.431 -10.620   7.080  1.00  0.00     0.139 C 
HETATM   34  O   UNL     1      39.134 -10.896   7.645  1.00  0.00    -0.384 OA
HETATM   35  C   UNL     1      39.242 -10.799   9.074  1.00  0.00     0.168 C 
HETATM   36  C   UNL     1      40.707 -10.587   9.400  1.00  0.00     0.029 C 
HETATM   37  C   UNL     1      41.207  -9.886   8.160  1.00  0.00     0.035 C 
ENDBRANCH  32  33
ENDBRANCH   6  32
TORSDOF 8
ENDMDL
MODEL 8
REMARK VINA RESULT:      -8.3      3.634      8.417
REMARK  8 active torsions:
REMARK  status: ('A' for Active; 'I' for Inactive)
REMARK       I    between atoms: N_2  and  C_3 
REMARK    1  A    between atoms: N_2  and  C_29 
REMARK    2  A    between atoms: C_3  and  C_4 
REMARK    3  A    between atoms: C_7  and  C_8 
REMARK       I    between atoms: C_8  and  N_9 
REMARK    4  A    between atoms: N_9  and  C_10 
REMARK    5  A    between atoms: N_20  and  C_21 
REMARK    6  A    between atoms: C_21  and  C_22 
REMARK    7  A    between atoms: C_29  and  C_30 
REMARK    8  A    between atoms: C_30  and  C_31 
ROOT
HETATM    1  C   UNL     1      39.556 -13.252   0.630  1.00  0.00     0.098 C 
HETATM    2  C   UNL     1      39.586 -14.653   1.109  1.00  0.00     0.206 C 
HETATM    3  O   UNL     1      38.689 -15.114   1.814  1.00  0.00    -0.286 OA
HETATM    4  C   UNL     1      40.751 -15.496   0.705  1.00  0.00     0.098 C 
HETATM    5  C   UNL     1      41.511 -15.028  -0.301  1.00  0.00     0.111 C 
HETATM    6  N   UNL     1      41.311 -13.808  -0.941  1.00  0.00    -0.362 N 
HETATM    7  C   UNL     1      40.366 -12.946  -0.398  1.00  0.00     0.111 C 
ENDROOT
BRANCH   1   8
HETATM    8  C   UNL     1      38.663 -12.176   1.121  1.00  0.00     0.258 C 
HETATM    9  N   UNL     1      39.101 -11.343   2.147  1.00  0.00    -0.352 N 
HETATM   10  C   UNL     1      38.277 -10.192   2.490  1.00  0.00     0.152 C 
HETATM   11  O   UNL     1      37.608 -11.975   0.514  1.00  0.00    -0.267 OA
BRANCH   9  12
HETATM   12  C   UNL     1      40.306 -11.518   2.974  1.00  0.00     0.131 C 
BRANCH  12  13
HETATM   13  C   UNL     1      40.116 -12.466   4.160  1.00  0.00     0.079 C 
BRANCH  13  14
HETATM   14  C   UNL     1      41.383 -13.239   4.432  1.00  0.00     0.035 A 
HETATM   15  N   UNL     1      41.409 -13.999   5.554  1.00  0.00    -0.266 NA
HETATM   16  C   UNL     1      42.533 -14.707   5.805  1.00  0.00     0.117 A 
HETATM   17  C   UNL     1      43.651 -14.688   4.993  1.00  0.00     0.019 A 
HETATM   18  C   UNL     1      43.618 -13.892   3.854  1.00  0.00     0.003 A 
HETATM   19  C   UNL     1      42.470 -13.156   3.566  1.00  0.00     0.027 A 
ENDBRANCH  13  14
ENDBRANCH  12  13
ENDBRANCH   9  12
ENDBRANCH   1   8
BRANCH   4  20
HETATM   20  C   UNL     1      41.110 -16.791   1.354  1.00  0.00     0.257 C 
HETATM   21  N   UNL     1      42.162 -16.716   2.234  1.00  0.00    -0.352 N 
HETATM   22  H   UNL     1      42.539 -15.791   2.443  1.00  0.00     0.163 HD
HETATM   23  O   UNL     1      40.529 -17.833   1.075  1.00  0.00    -0.267 OA
BRANCH  21  24
HETATM   24  C   UNL     1      42.790 -17.849   2.918  1.00  0.00     0.084 C 
HETATM   25  C   UNL     1      42.206 -18.029   4.324  1.00  0.00     0.025 C 
HETATM   26  C   UNL     1      42.933 -18.993   5.265  1.00  0.00     0.002 C 
HETATM   27  C   UNL     1      44.459 -18.881   5.269  1.00  0.00     0.000 C 
HETATM   28  C   UNL     1      45.184 -19.971   4.477  1.00  0.00     0.000 C 
HETATM   29  C   UNL     1      45.023 -19.954   2.955  1.00  0.00     0.000 C 
HETATM   30  C   UNL     1      43.617 -20.293   2.459  1.00  0.00     0.002 C 
HETATM   31  C   UNL     1      42.771 -19.096   2.025  1.00  0.00     0.025 C 
ENDBRANCH  21  24
ENDBRANCH   4  20
BRANCH   6  32
HETATM   32  C   UNL     1      42.062 -13.452  -2.168  1.00  0.00     0.159 C 
BRANCH  32  33
HETATM   33  C   UNL     1      42.874 -12.155  -2.060  1.00  0.00     0.139 C 
HETATM   34  O   UNL     1      43.042 -11.723  -0.695  1.00  0.00    -0.384 OA
HETATM   35  C   UNL     1      43.091 -10.288  -0.685  1.00  0.00     0.168 C 
HETATM   36  C   UNL     1      43.088  -9.829  -2.130  1.00  0.00     0.029 C 
HETATM   37  C   UNL     1      42.342 -10.949  -2.814  1.00  0.00     0.035 C 
ENDBRANCH  32  33
ENDBRANCH   6  32
TORSDOF 8
ENDMDL
MODEL 9
REMARK VINA RESULT:      -8.3      2.637      7.842
REMARK  8 active torsions:
REMARK  status: ('A' for Active; 'I' for Inactive)
REMARK       I    between atoms: N_2  and  C_3 
REMARK    1  A    between atoms: N_2  and  C_29 
REMARK    2  A    between atoms: C_3  and  C_4 
REMARK    3  A    between atoms: C_7  and  C_8 
REMARK       I    between atoms: C_8  and  N_9 
REMARK    4  A    between atoms: N_9  and  C_10 
REMARK    5  A    between atoms: N_20  and  C_21 
REMARK    6  A    between atoms: C_21  and  C_22 
REMARK    7  A    between atoms: C_29  and  C_30 
REMARK    8  A    between atoms: C_30  and  C_31 
ROOT
HETATM    1  C   UNL     1      42.030 -12.729   5.021  1.00  0.00     0.098 C 
HETATM    2  C   UNL     1      41.600 -11.920   6.186  1.00  0.00     0.206 C 
HETATM    3  O   UNL     1      40.526 -11.320   6.193  1.00  0.00    -0.286 OA
HETATM    4  C   UNL     1      42.520 -11.857   7.360  1.00  0.00     0.098 C 
HETATM    5  C   UNL     1      43.505 -12.773   7.402  1.00  0.00     0.111 C 
HETATM    6  N   UNL     1      43.742 -13.723   6.413  1.00  0.00    -0.362 N 
HETATM    7  C   UNL     1      43.019 -13.614   5.232  1.00  0.00     0.111 C 
ENDROOT
BRANCH   1   8
HETATM    8  C   UNL     1      41.424 -12.712   3.669  1.00  0.00     0.258 C 
HETATM    9  N   UNL     1      40.804 -13.861   3.186  1.00  0.00    -0.352 N 
HETATM   10  C   UNL     1      40.069 -13.764   1.932  1.00  0.00     0.152 C 
HETATM   11  O   UNL     1      41.377 -11.635   3.068  1.00  0.00    -0.267 OA
BRANCH   9  12
HETATM   12  C   UNL     1      40.842 -15.205   3.787  1.00  0.00     0.131 C 
BRANCH  12  13
HETATM   13  C   UNL     1      40.565 -16.338   2.797  1.00  0.00     0.079 C 
BRANCH  13  14
HETATM   14  C   UNL     1      41.819 -17.134   2.534  1.00  0.00     0.035 A 
HETATM   15  N   UNL     1      42.239 -17.961   3.523  1.00  0.00    -0.266 NA
HETATM   16  C   UNL     1      43.355 -18.690   3.298  1.00  0.00     0.117 A 
HETATM   17  C   UNL     1      44.092 -18.628   2.130  1.00  0.00     0.019 A 
HETATM   18  C   UNL     1      43.660 -17.763   1.131  1.00  0.00     0.003 A 
HETATM   19  C   UNL     1      42.509 -17.004   1.331  1.00  0.00     0.027 A 
ENDBRANCH  13  14
ENDBRANCH  12  13
ENDBRANCH   9  12
ENDBRANCH   1   8
BRANCH   4  20
HETATM   20  C   UNL     1      42.410 -10.847   8.453  1.00  0.00     0.257 C 
HETATM   21  N   UNL     1      42.322 -11.379   9.716  1.00  0.00    -0.352 N 
HETATM   22  H   UNL     1      42.436 -12.388   9.813  1.00  0.00     0.163 HD
HETATM   23  O   UNL     1      42.359  -9.646   8.215  1.00  0.00    -0.267 OA
BRANCH  21  24
HETATM   24  C   UNL     1      42.094 -10.625  10.950  1.00  0.00     0.084 C 
HETATM   25  C   UNL     1      40.623 -10.213  11.074  1.00  0.00     0.025 C 
HETATM   26  C   UNL     1      40.270  -9.199  12.165  1.00  0.00     0.002 C 
HETATM   27  C   UNL     1      41.228  -8.012  12.294  1.00  0.00     0.000 C 
HETATM   28  C   UNL     1      42.211  -8.107  13.463  1.00  0.00     0.000 C 
HETATM   29  C   UNL     1      43.295  -9.185  13.380  1.00  0.00     0.000 C 
HETATM   30  C   UNL     1      42.776 -10.619  13.481  1.00  0.00     0.002 C 
HETATM   31  C   UNL     1      42.679 -11.374  12.155  1.00  0.00     0.025 C 
ENDBRANCH  21  24
ENDBRANCH   4  20
BRANCH   6  32
HETATM   32  C   UNL     1      44.715 -14.821   6.622  1.00  0.00     0.159 C 
BRANCH  32  33
HETATM   33  C   UNL     1      44.087 -16.219   6.694  1.00  0.00     0.139 C 
HETATM   34  O   UNL     1      43.456 -16.474   7.964  1.00  0.00    -0.384 OA
HETATM   35  C   UNL     1      43.581 -17.875   8.250  1.00  0.00     0.168 C 
HETATM   36  C   UNL     1      44.200 -18.528   7.029  1.00  0.00     0.029 C 
HETATM   37  C   UNL     1      45.011 -17.398   6.446  1.00  0.00     0.035 C 
ENDBRANCH  32  33
ENDBRANCH   6  32
TORSDOF 8
ENDMDL
MODEL 10
REMARK VINA RESULT:      -8.2      2.738      8.613
REMARK  8 active torsions:
REMARK  status: ('A' for Active; 'I' for Inactive)
REMARK       I    between atoms: N_2  and  C_3 
REMARK    1  A    between atoms: N_2  and  C_29 
REMARK    2  A    between atoms: C_3  and  C_4 
REMARK    3  A    between atoms: C_7  and  C_8 
REMARK       I    between atoms: C_8  and  N_9 
REMARK    4  A    between atoms: N_9  and  C_10 
REMARK    5  A    between atoms: N_20  and  C_21 
REMARK    6  A    between atoms: C_21  and  C_22 
REMARK    7  A    between atoms: C_29  and  C_30 
REMARK    8  A    between atoms: C_30  and  C_31 
ROOT
HETATM    1  C   UNL     1      40.321 -11.675   4.676  1.00  0.00     0.098 C 
HETATM    2  C   UNL     1      40.788 -13.064   4.894  1.00  0.00     0.206 C 
HETATM    3  O   UNL     1      40.364 -13.749   5.823  1.00  0.00    -0.286 OA
HETATM    4  C   UNL     1      41.800 -13.610   3.940  1.00  0.00     0.098 C 
HETATM    5  C   UNL     1      41.974 -12.929   2.793  1.00  0.00     0.111 C 
HETATM    6  N   UNL     1      41.318 -11.744   2.471  1.00  0.00    -0.362 N 
HETATM    7  C   UNL     1      40.559 -11.141   3.466  1.00  0.00     0.111 C 
ENDROOT
BRANCH   1   8
HETATM    8  C   UNL     1      39.550 -10.848   5.633  1.00  0.00     0.258 C 
HETATM    9  N   UNL     1      40.178 -10.368   6.778  1.00  0.00    -0.352 N 
HETATM   10  C   UNL     1      39.449  -9.420   7.610  1.00  0.00     0.152 C 
HETATM   11  O   UNL     1      38.407 -10.507   5.316  1.00  0.00    -0.267 OA
BRANCH   9  12
HETATM   12  C   UNL     1      41.508 -10.748   7.282  1.00  0.00     0.131 C 
BRANCH  12  13
HETATM   13  C   UNL     1      41.975  -9.930   8.488  1.00  0.00     0.079 C 
BRANCH  13  14
HETATM   14  C   UNL     1      42.914 -10.739   9.349  1.00  0.00     0.035 A 
HETATM   15  N   UNL     1      44.020 -11.240   8.747  1.00  0.00    -0.266 NA
HETATM   16  C   UNL     1      44.877 -11.958   9.508  1.00  0.00     0.117 A 
HETATM   17  C   UNL     1      44.680 -12.216  10.852  1.00  0.00     0.019 A 
HETATM   18  C   UNL     1      43.533 -11.711  11.453  1.00  0.00     0.003 A 
HETATM   19  C   UNL     1      42.635 -10.962  10.695  1.00  0.00     0.027 A 
ENDBRANCH  13  14
ENDBRANCH  12  13
ENDBRANCH   9  12
ENDBRANCH   1   8
BRANCH   4  20
HETATM   20  C   UNL     1      42.613 -14.835   4.197  1.00  0.00     0.257 C 
HETATM   21  N   UNL     1      42.176 -15.959   3.540  1.00  0.00    -0.352 N 
HETATM   22  H   UNL     1      41.413 -15.849   2.871  1.00  0.00     0.163 HD
HETATM   23  O   UNL     1      43.563 -14.825   4.971  1.00  0.00    -0.267 OA
BRANCH  21  24
HETATM   24  C   UNL     1      42.717 -17.311   3.700  1.00  0.00     0.084 C 
HETATM   25  C   UNL     1      42.347 -17.888   5.071  1.00  0.00     0.025 C 
HETATM   26  C   UNL     1      43.053 -19.177   5.500  1.00  0.00     0.002 C 
HETATM   27  C   UNL     1      44.558 -19.225   5.224  1.00  0.00     0.000 C 
HETATM   28  C   UNL     1      44.960 -20.057   4.004  1.00  0.00     0.000 C 
HETATM   29  C   UNL     1      44.559 -19.520   2.628  1.00  0.00     0.000 C 
HETATM   30  C   UNL     1      43.055 -19.534   2.353  1.00  0.00     0.002 C 
HETATM   31  C   UNL     1      42.353 -18.182   2.491  1.00  0.00     0.025 C 
ENDBRANCH  21  24
ENDBRANCH   4  20
BRANCH   6  32
HETATM   32  C   UNL     1      41.411 -11.160   1.113  1.00  0.00     0.159 C 
BRANCH  32  33
HETATM   33  C   UNL     1      42.047 -12.085   0.067  1.00  0.00     0.139 C 
HETATM   34  O   UNL     1      43.064 -11.420  -0.708  1.00  0.00    -0.384 OA
HETATM   35  C   UNL     1      43.060 -11.988  -2.027  1.00  0.00     0.168 C 
HETATM   36  C   UNL     1      42.084 -13.149  -2.013  1.00  0.00     0.029 C 
HETATM   37  C   UNL     1      41.109 -12.726  -0.941  1.00  0.00     0.035 C 
ENDBRANCH  32  33
ENDBRANCH   6  32
TORSDOF 8
ENDMDL
