MODEL 1
REMARK VINA RESULT:      -8.8      0.000      0.000
REMARK  7 active torsions:
REMARK  status: ('A' for Active; 'I' for Inactive)
REMARK    1  A    between atoms: C_2  and  O_3 
REMARK    2  A    between atoms: O_3  and  C_4 
REMARK    3  A    between atoms: C_5  and  N_6 
REMARK    4  A    between atoms: N_9  and  C_11 
REMARK    5  A    between atoms: C_11  and  C_12 
REMARK       I    between atoms: C_12  and  N_13 
REMARK    6  A    between atoms: N_13  and  C_14 
REMARK    7  A    between atoms: C_15  and  C_16 
ROOT
HETATM    1  C   UNL     1      43.708 -16.887   6.449  1.00  0.00     0.275 C 
HETATM    2  C   UNL     1      43.137 -16.945   7.861  1.00  0.00     0.050 C 
ENDROOT
BRANCH   1   3
HETATM    3  N   UNL     1      43.245 -15.608   5.722  1.00  0.00    -0.056 N 
HETATM    4  C   UNL     1      43.435 -15.614   4.199  1.00  0.00     0.255 C 
HETATM    5  C   UNL     1      43.140 -14.207   3.636  1.00  0.00     0.150 C 
HETATM    6  N   UNL     1      41.782 -13.775   4.012  1.00  0.00    -0.375 N 
HETATM    7  C   UNL     1      41.536 -13.759   5.470  1.00  0.00     0.150 C 
HETATM    8  C   UNL     1      41.848 -15.135   6.100  1.00  0.00     0.255 C 
HETATM    9  H   UNL     1      43.914 -14.889   6.045  1.00  0.00     0.281 HD
BRANCH   6  10
HETATM   10  C   UNL     1      40.696 -13.975   3.145  1.00  0.00     0.064 A 
HETATM   11  C   UNL     1      40.129 -12.921   2.372  1.00  0.00     0.095 A 
HETATM   12  C   UNL     1      39.053 -13.169   1.502  1.00  0.00     0.039 A 
HETATM   13  C   UNL     1      38.519 -14.448   1.371  1.00  0.00     0.003 A 
HETATM   14  C   UNL     1      39.065 -15.494   2.097  1.00  0.00     0.002 A 
HETATM   15  C   UNL     1      40.139 -15.258   2.960  1.00  0.00     0.032 A 
BRANCH  11  16
HETATM   16  O   UNL     1      40.727 -11.684   2.468  1.00  0.00    -0.349 OA
BRANCH  16  17
HETATM   17  C   UNL     1      41.040 -10.997   1.257  1.00  0.00     0.171 C 
HETATM   18  C   UNL     1      42.133 -11.776   0.548  1.00  0.00     0.034 C 
ENDBRANCH  16  17
ENDBRANCH  11  16
ENDBRANCH   6  10
ENDBRANCH   1   3
BRANCH   1  19
HETATM   19  C   UNL     1      43.345 -18.131   5.598  1.00  0.00     0.253 C 
HETATM   20  N   UNL     1      44.411 -18.786   5.026  1.00  0.00    -0.325 N 
HETATM   21  H   UNL     1      45.298 -18.298   4.946  1.00  0.00     0.169 HD
HETATM   22  O   UNL     1      42.155 -18.417   5.464  1.00  0.00    -0.271 OA
BRANCH  20  23
HETATM   23  C   UNL     1      44.400 -20.082   4.445  1.00  0.00     0.045 A 
HETATM   24  C   UNL     1      44.032 -20.214   3.082  1.00  0.00     0.001 A 
HETATM   25  C   UNL     1      44.116 -21.482   2.476  1.00  0.00     0.014 A 
HETATM   26  C   UNL     1      44.547 -22.597   3.195  1.00  0.00     0.001 A 
HETATM   27  C   UNL     1      44.892 -22.463   4.533  1.00  0.00     0.002 A 
HETATM   28  C   UNL     1      44.819 -21.215   5.156  1.00  0.00     0.030 A 
BRANCH  24  29
HETATM   29  C   UNL     1      43.528 -19.085   2.282  1.00  0.00    -0.024 A 
HETATM   30  C   UNL     1      44.405 -18.125   1.754  1.00  0.00     0.012 A 
HETATM   31  C   UNL     1      43.919 -17.059   0.993  1.00  0.00     0.001 A 
HETATM   32  C   UNL     1      42.552 -16.939   0.750  1.00  0.00     0.000 A 
HETATM   33  C   UNL     1      41.669 -17.886   1.264  1.00  0.00     0.001 A 
HETATM   34  C   UNL     1      42.154 -18.953   2.022  1.00  0.00     0.012 A 
ENDBRANCH  24  29
ENDBRANCH  20  23
ENDBRANCH   1  19
TORSDOF 7
ENDMDL
MODEL 2
REMARK VINA RESULT:      -8.6      3.044      8.264
REMARK  7 active torsions:
REMARK  status: ('A' for Active; 'I' for Inactive)
REMARK    1  A    between atoms: C_2  and  O_3 
REMARK    2  A    between atoms: O_3  and  C_4 
REMARK    3  A    between atoms: C_5  and  N_6 
REMARK    4  A    between atoms: N_9  and  C_11 
REMARK    5  A    between atoms: C_11  and  C_12 
REMARK       I    between atoms: C_12  and  N_13 
REMARK    6  A    between atoms: N_13  and  C_14 
REMARK    7  A    between atoms: C_15  and  C_16 
ROOT
HETATM    1  C   UNL     1      40.458 -15.304   1.152  1.00  0.00     0.275 C 
HETATM    2  C   UNL     1      39.090 -15.164   1.808  1.00  0.00     0.050 C 
ENDROOT
BRANCH   1   3
HETATM    3  N   UNL     1      41.489 -15.875   2.148  1.00  0.00    -0.056 N 
HETATM    4  C   UNL     1      40.979 -17.021   3.034  1.00  0.00     0.255 C 
HETATM    5  C   UNL     1      42.029 -17.340   4.119  1.00  0.00     0.150 C 
HETATM    6  N   UNL     1      43.327 -17.667   3.501  1.00  0.00    -0.375 N 
HETATM    7  C   UNL     1      43.864 -16.603   2.626  1.00  0.00     0.150 C 
HETATM    8  C   UNL     1      42.841 -16.213   1.537  1.00  0.00     0.255 C 
HETATM    9  H   UNL     1      41.635 -15.101   2.816  1.00  0.00     0.281 HD
BRANCH   6  10
HETATM   10  C   UNL     1      43.688 -19.000   3.246  1.00  0.00     0.064 A 
HETATM   11  C   UNL     1      44.428 -19.785   4.175  1.00  0.00     0.095 A 
HETATM   12  C   UNL     1      44.752 -21.122   3.887  1.00  0.00     0.039 A 
HETATM   13  C   UNL     1      44.356 -21.712   2.690  1.00  0.00     0.003 A 
HETATM   14  C   UNL     1      43.618 -20.976   1.777  1.00  0.00     0.002 A 
HETATM   15  C   UNL     1      43.286 -19.648   2.058  1.00  0.00     0.032 A 
BRANCH  11  16
HETATM   16  O   UNL     1      44.741 -19.197   5.380  1.00  0.00    -0.349 OA
BRANCH  16  17
HETATM   17  C   UNL     1      44.019 -19.617   6.537  1.00  0.00     0.171 C 
HETATM   18  C   UNL     1      43.625 -18.376   7.318  1.00  0.00     0.034 C 
ENDBRANCH  16  17
ENDBRANCH  11  16
ENDBRANCH   6  10
ENDBRANCH   1   3
BRANCH   1  19
HETATM   19  C   UNL     1      40.986 -13.969   0.565  1.00  0.00     0.253 C 
HETATM   20  N   UNL     1      41.503 -14.048  -0.708  1.00  0.00    -0.325 N 
HETATM   21  H   UNL     1      41.768 -14.958  -1.072  1.00  0.00     0.169 HD
HETATM   22  O   UNL     1      40.944 -12.964   1.275  1.00  0.00    -0.271 OA
BRANCH  20  23
HETATM   23  C   UNL     1      41.790 -12.963  -1.578  1.00  0.00     0.045 A 
HETATM   24  C   UNL     1      40.983 -12.781  -2.729  1.00  0.00     0.001 A 
HETATM   25  C   UNL     1      41.201 -11.651  -3.540  1.00  0.00     0.014 A 
HETATM   26  C   UNL     1      42.193 -10.723  -3.229  1.00  0.00     0.001 A 
HETATM   27  C   UNL     1      42.990 -10.914  -2.108  1.00  0.00     0.002 A 
HETATM   28  C   UNL     1      42.792 -12.027  -1.286  1.00  0.00     0.030 A 
BRANCH  24  29
HETATM   29  C   UNL     1      39.948 -13.748  -3.135  1.00  0.00    -0.024 A 
HETATM   30  C   UNL     1      40.292 -15.048  -3.535  1.00  0.00     0.012 A 
HETATM   31  C   UNL     1      39.305 -15.961  -3.916  1.00  0.00     0.001 A 
HETATM   32  C   UNL     1      37.962 -15.585  -3.901  1.00  0.00     0.000 A 
HETATM   33  C   UNL     1      37.604 -14.299  -3.502  1.00  0.00     0.001 A 
HETATM   34  C   UNL     1      38.591 -13.388  -3.119  1.00  0.00     0.012 A 
ENDBRANCH  24  29
ENDBRANCH  20  23
ENDBRANCH   1  19
TORSDOF 7
ENDMDL
MODEL 3
REMARK VINA RESULT:      -8.3      3.087      8.283
REMARK  7 active torsions:
REMARK  status: ('A' for Active; 'I' for Inactive)
REMARK    1  A    between atoms: C_2  and  O_3 
REMARK    2  A    between atoms: O_3  and  C_4 
REMARK    3  A    between atoms: C_5  and  N_6 
REMARK    4  A    between atoms: N_9  and  C_11 
REMARK    5  A    between atoms: C_11  and  C_12 
REMARK       I    between atoms: C_12  and  N_13 
REMARK    6  A    between atoms: N_13  and  C_14 
REMARK    7  A    between atoms: C_15  and  C_16 
ROOT
HETATM    1  C   UNL     1      40.317 -15.006   1.200  1.00  0.00     0.275 C 
HETATM    2  C   UNL     1      39.596 -14.767   2.520  1.00  0.00     0.050 C 
ENDROOT
BRANCH   1   3
HETATM    3  N   UNL     1      41.492 -15.988   1.386  1.00  0.00    -0.056 N 
HETATM    4  C   UNL     1      42.605 -15.509   2.328  1.00  0.00     0.255 C 
HETATM    5  C   UNL     1      43.803 -16.479   2.247  1.00  0.00     0.150 C 
HETATM    6  N   UNL     1      43.376 -17.853   2.566  1.00  0.00    -0.375 N 
HETATM    7  C   UNL     1      42.296 -18.367   1.697  1.00  0.00     0.150 C 
HETATM    8  C   UNL     1      41.078 -17.417   1.707  1.00  0.00     0.255 C 
HETATM    9  H   UNL     1      41.948 -15.999   0.459  1.00  0.00     0.281 HD
BRANCH   6  10
HETATM   10  C   UNL     1      43.494 -18.360   3.871  1.00  0.00     0.064 A 
HETATM   11  C   UNL     1      44.192 -19.566   4.164  1.00  0.00     0.095 A 
HETATM   12  C   UNL     1      44.301 -20.028   5.487  1.00  0.00     0.039 A 
HETATM   13  C   UNL     1      43.734 -19.318   6.541  1.00  0.00     0.003 A 
HETATM   14  C   UNL     1      43.066 -18.132   6.285  1.00  0.00     0.002 A 
HETATM   15  C   UNL     1      42.958 -17.661   4.974  1.00  0.00     0.032 A 
BRANCH  11  16
HETATM   16  O   UNL     1      44.805 -20.206   3.109  1.00  0.00    -0.349 OA
BRANCH  16  17
HETATM   17  C   UNL     1      44.559 -21.601   2.940  1.00  0.00     0.171 C 
HETATM   18  C   UNL     1      43.983 -21.809   1.551  1.00  0.00     0.034 C 
ENDBRANCH  16  17
ENDBRANCH  11  16
ENDBRANCH   6  10
ENDBRANCH   1   3
BRANCH   1  19
HETATM   19  C   UNL     1      40.831 -13.697   0.546  1.00  0.00     0.253 C 
HETATM   20  N   UNL     1      41.478 -13.854  -0.658  1.00  0.00    -0.325 N 
HETATM   21  H   UNL     1      41.825 -14.774  -0.910  1.00  0.00     0.169 HD
HETATM   22  O   UNL     1      40.665 -12.639   1.153  1.00  0.00    -0.271 OA
BRANCH  20  23
HETATM   23  C   UNL     1      41.794 -12.832  -1.593  1.00  0.00     0.045 A 
HETATM   24  C   UNL     1      41.020 -12.728  -2.776  1.00  0.00     0.001 A 
HETATM   25  C   UNL     1      41.266 -11.657  -3.656  1.00  0.00     0.014 A 
HETATM   26  C   UNL     1      42.254 -10.712  -3.383  1.00  0.00     0.001 A 
HETATM   27  C   UNL     1      43.019 -10.829  -2.229  1.00  0.00     0.002 A 
HETATM   28  C   UNL     1      42.792 -11.881  -1.339  1.00  0.00     0.030 A 
BRANCH  24  29
HETATM   29  C   UNL     1      39.992 -13.717  -3.143  1.00  0.00    -0.024 A 
HETATM   30  C   UNL     1      40.348 -15.008  -3.561  1.00  0.00     0.012 A 
HETATM   31  C   UNL     1      39.368 -15.942  -3.904  1.00  0.00     0.001 A 
HETATM   32  C   UNL     1      38.019 -15.597  -3.834  1.00  0.00     0.000 A 
HETATM   33  C   UNL     1      37.648 -14.321  -3.417  1.00  0.00     0.001 A 
HETATM   34  C   UNL     1      38.628 -13.388  -3.071  1.00  0.00     0.012 A 
ENDBRANCH  24  29
ENDBRANCH  20  23
ENDBRANCH   1  19
TORSDOF 7
ENDMDL
MODEL 4
REMARK VINA RESULT:      -8.2      1.543      2.222
REMARK  7 active torsions:
REMARK  status: ('A' for Active; 'I' for Inactive)
REMARK    1  A    between atoms: C_2  and  O_3 
REMARK    2  A    between atoms: O_3  and  C_4 
REMARK    3  A    between atoms: C_5  and  N_6 
REMARK    4  A    between atoms: N_9  and  C_11 
REMARK    5  A    between atoms: C_11  and  C_12 
REMARK       I    between atoms: C_12  and  N_13 
REMARK    6  A    between atoms: N_13  and  C_14 
REMARK    7  A    between atoms: C_15  and  C_16 
ROOT
HETATM    1  C   UNL     1      43.443 -16.306   6.489  1.00  0.00     0.275 C 
HETATM    2  C   UNL     1      43.569 -16.570   7.984  1.00  0.00     0.050 C 
ENDROOT
BRANCH   1   3
HETATM    3  N   UNL     1      42.409 -15.195   6.212  1.00  0.00    -0.056 N 
HETATM    4  C   UNL     1      42.999 -13.824   5.854  1.00  0.00     0.255 C 
HETATM    5  C   UNL     1      41.872 -12.770   5.823  1.00  0.00     0.150 C 
HETATM    6  N   UNL     1      40.817 -13.170   4.876  1.00  0.00    -0.375 N 
HETATM    7  C   UNL     1      40.217 -14.490   5.164  1.00  0.00     0.150 C 
HETATM    8  C   UNL     1      41.302 -15.587   5.244  1.00  0.00     0.255 C 
HETATM    9  H   UNL     1      41.971 -15.036   7.135  1.00  0.00     0.281 HD
BRANCH   6  10
HETATM   10  C   UNL     1      40.822 -12.704   3.551  1.00  0.00     0.064 A 
HETATM   11  C   UNL     1      39.726 -11.992   2.985  1.00  0.00     0.095 A 
HETATM   12  C   UNL     1      39.781 -11.527   1.660  1.00  0.00     0.039 A 
HETATM   13  C   UNL     1      40.906 -11.746   0.871  1.00  0.00     0.003 A 
HETATM   14  C   UNL     1      41.994 -12.420   1.403  1.00  0.00     0.002 A 
HETATM   15  C   UNL     1      41.951 -12.880   2.722  1.00  0.00     0.032 A 
BRANCH  11  16
HETATM   16  O   UNL     1      38.659 -11.726   3.814  1.00  0.00    -0.349 OA
BRANCH  16  17
HETATM   17  C   UNL     1      38.297 -10.361   4.022  1.00  0.00     0.171 C 
HETATM   18  C   UNL     1      39.141  -9.822   5.163  1.00  0.00     0.034 C 
ENDBRANCH  16  17
ENDBRANCH  11  16
ENDBRANCH   6  10
ENDBRANCH   1   3
BRANCH   1  19
HETATM   19  C   UNL     1      43.071 -17.576   5.680  1.00  0.00     0.253 C 
HETATM   20  N   UNL     1      43.874 -17.839   4.594  1.00  0.00    -0.325 N 
HETATM   21  H   UNL     1      44.450 -17.092   4.220  1.00  0.00     0.169 HD
HETATM   22  O   UNL     1      42.086 -18.223   6.033  1.00  0.00    -0.271 OA
BRANCH  20  23
HETATM   23  C   UNL     1      43.940 -19.054   3.860  1.00  0.00     0.045 A 
HETATM   24  C   UNL     1      43.336 -19.108   2.578  1.00  0.00     0.001 A 
HETATM   25  C   UNL     1      43.485 -20.277   1.807  1.00  0.00     0.014 A 
HETATM   26  C   UNL     1      44.207 -21.369   2.287  1.00  0.00     0.001 A 
HETATM   27  C   UNL     1      44.783 -21.314   3.549  1.00  0.00     0.002 A 
HETATM   28  C   UNL     1      44.651 -20.165   4.332  1.00  0.00     0.030 A 
BRANCH  24  29
HETATM   29  C   UNL     1      42.526 -18.006   2.034  1.00  0.00    -0.024 A 
HETATM   30  C   UNL     1      43.072 -17.088   1.124  1.00  0.00     0.012 A 
HETATM   31  C   UNL     1      42.295 -16.047   0.609  1.00  0.00     0.001 A 
HETATM   32  C   UNL     1      40.964 -15.910   0.998  1.00  0.00     0.000 A 
HETATM   33  C   UNL     1      40.405 -16.815   1.898  1.00  0.00     0.001 A 
HETATM   34  C   UNL     1      41.180 -17.857   2.410  1.00  0.00     0.012 A 
ENDBRANCH  24  29
ENDBRANCH  20  23
ENDBRANCH   1  19
TORSDOF 7
ENDMDL
MODEL 5
REMARK VINA RESULT:      -8.2      2.770      4.790
REMARK  7 active torsions:
REMARK  status: ('A' for Active; 'I' for Inactive)
REMARK    1  A    between atoms: C_2  and  O_3 
REMARK    2  A    between atoms: O_3  and  C_4 
REMARK    3  A    between atoms: C_5  and  N_6 
REMARK    4  A    between atoms: N_9  and  C_11 
REMARK    5  A    between atoms: C_11  and  C_12 
REMARK       I    between atoms: C_12  and  N_13 
REMARK    6  A    between atoms: N_13  and  C_14 
REMARK    7  A    between atoms: C_15  and  C_16 
ROOT
HETATM    1  C   UNL     1      42.423 -14.329   3.577  1.00  0.00     0.275 C 
HETATM    2  C   UNL     1      42.159 -12.941   4.146  1.00  0.00     0.050 C 
ENDROOT
BRANCH   1   3
HETATM    3  N   UNL     1      41.554 -14.585   2.328  1.00  0.00    -0.056 N 
HETATM    4  C   UNL     1      40.769 -13.370   1.815  1.00  0.00     0.255 C 
HETATM    5  C   UNL     1      39.787 -13.819   0.712  1.00  0.00     0.150 C 
HETATM    6  N   UNL     1      40.509 -14.499  -0.378  1.00  0.00    -0.375 N 
HETATM    7  C   UNL     1      41.294 -15.673   0.058  1.00  0.00     0.150 C 
HETATM    8  C   UNL     1      42.275 -15.295   1.190  1.00  0.00     0.255 C 
HETATM    9  H   UNL     1      40.816 -15.222   2.672  1.00  0.00     0.281 HD
BRANCH   6  10
HETATM   10  C   UNL     1      40.927 -13.791  -1.517  1.00  0.00     0.064 A 
HETATM   11  C   UNL     1      40.116 -13.666  -2.681  1.00  0.00     0.095 A 
HETATM   12  C   UNL     1      40.566 -12.932  -3.793  1.00  0.00     0.039 A 
HETATM   13  C   UNL     1      41.810 -12.308  -3.782  1.00  0.00     0.003 A 
HETATM   14  C   UNL     1      42.610 -12.398  -2.654  1.00  0.00     0.002 A 
HETATM   15  C   UNL     1      42.169 -13.120  -1.542  1.00  0.00     0.032 A 
BRANCH  11  16
HETATM   16  O   UNL     1      38.861 -14.231  -2.633  1.00  0.00    -0.349 OA
BRANCH  16  17
HETATM   17  C   UNL     1      38.419 -14.974  -3.768  1.00  0.00     0.171 C 
HETATM   18  C   UNL     1      39.258 -16.236  -3.857  1.00  0.00     0.034 C 
ENDBRANCH  16  17
ENDBRANCH  11  16
ENDBRANCH   6  10
ENDBRANCH   1   3
BRANCH   1  19
HETATM   19  C   UNL     1      42.192 -15.460   4.612  1.00  0.00     0.253 C 
HETATM   20  N   UNL     1      43.307 -16.196   4.941  1.00  0.00    -0.325 N 
HETATM   21  H   UNL     1      44.112 -16.165   4.323  1.00  0.00     0.169 HD
HETATM   22  O   UNL     1      41.048 -15.643   5.029  1.00  0.00    -0.271 OA
BRANCH  20  23
HETATM   23  C   UNL     1      43.447 -17.084   6.041  1.00  0.00     0.045 A 
HETATM   24  C   UNL     1      43.721 -18.451   5.781  1.00  0.00     0.001 A 
HETATM   25  C   UNL     1      43.958 -19.313   6.868  1.00  0.00     0.014 A 
HETATM   26  C   UNL     1      43.921 -18.845   8.181  1.00  0.00     0.001 A 
HETATM   27  C   UNL     1      43.637 -17.508   8.428  1.00  0.00     0.002 A 
HETATM   28  C   UNL     1      43.401 -16.632   7.367  1.00  0.00     0.030 A 
BRANCH  24  29
HETATM   29  C   UNL     1      43.731 -19.015   4.421  1.00  0.00    -0.024 A 
HETATM   30  C   UNL     1      44.672 -19.987   4.048  1.00  0.00     0.012 A 
HETATM   31  C   UNL     1      44.673 -20.520   2.757  1.00  0.00     0.001 A 
HETATM   32  C   UNL     1      43.733 -20.089   1.823  1.00  0.00     0.000 A 
HETATM   33  C   UNL     1      42.789 -19.128   2.178  1.00  0.00     0.001 A 
HETATM   34  C   UNL     1      42.786 -18.597   3.469  1.00  0.00     0.012 A 
ENDBRANCH  24  29
ENDBRANCH  20  23
ENDBRANCH   1  19
TORSDOF 7
ENDMDL
MODEL 6
REMARK VINA RESULT:      -8.2      2.766      4.777
REMARK  7 active torsions:
REMARK  status: ('A' for Active; 'I' for Inactive)
REMARK    1  A    between atoms: C_2  and  O_3 
REMARK    2  A    between atoms: O_3  and  C_4 
REMARK    3  A    between atoms: C_5  and  N_6 
REMARK    4  A    between atoms: N_9  and  C_11 
REMARK    5  A    between atoms: C_11  and  C_12 
REMARK       I    between atoms: C_12  and  N_13 
REMARK    6  A    between atoms: N_13  and  C_14 
REMARK    7  A    between atoms: C_15  and  C_16 
ROOT
HETATM    1  C   UNL     1      43.166 -16.276   2.575  1.00  0.00     0.275 C 
HETATM    2  C   UNL     1      43.170 -15.434   3.845  1.00  0.00     0.050 C 
ENDROOT
BRANCH   1   3
HETATM    3  N   UNL     1      42.044 -15.821   1.618  1.00  0.00    -0.056 N 
HETATM    4  C   UNL     1      41.743 -14.316   1.628  1.00  0.00     0.255 C 
HETATM    5  C   UNL     1      40.469 -14.039   0.803  1.00  0.00     0.150 C 
HETATM    6  N   UNL     1      40.621 -14.554  -0.570  1.00  0.00    -0.375 N 
HETATM    7  C   UNL     1      40.923 -15.999  -0.643  1.00  0.00     0.150 C 
HETATM    8  C   UNL     1      42.173 -16.347   0.196  1.00  0.00     0.255 C 
HETATM    9  H   UNL     1      41.192 -16.240   2.027  1.00  0.00     0.281 HD
BRANCH   6  10
HETATM   10  C   UNL     1      41.061 -13.717  -1.608  1.00  0.00     0.064 A 
HETATM   11  C   UNL     1      40.240 -13.381  -2.722  1.00  0.00     0.095 A 
HETATM   12  C   UNL     1      40.714 -12.524  -3.731  1.00  0.00     0.039 A 
HETATM   13  C   UNL     1      41.995 -11.982  -3.664  1.00  0.00     0.003 A 
HETATM   14  C   UNL     1      42.807 -12.278  -2.582  1.00  0.00     0.002 A 
HETATM   15  C   UNL     1      42.342 -13.123  -1.571  1.00  0.00     0.032 A 
BRANCH  11  16
HETATM   16  O   UNL     1      38.954 -13.873  -2.721  1.00  0.00    -0.349 OA
BRANCH  16  17
HETATM   17  C   UNL     1      38.662 -14.982  -3.571  1.00  0.00     0.171 C 
HETATM   18  C   UNL     1      37.169 -14.977  -3.848  1.00  0.00     0.034 C 
ENDBRANCH  16  17
ENDBRANCH  11  16
ENDBRANCH   6  10
ENDBRANCH   1   3
BRANCH   1  19
HETATM   19  C   UNL     1      43.027 -17.794   2.857  1.00  0.00     0.253 C 
HETATM   20  N   UNL     1      44.209 -18.497   2.897  1.00  0.00    -0.325 N 
HETATM   21  H   UNL     1      45.038 -18.083   2.482  1.00  0.00     0.169 HD
HETATM   22  O   UNL     1      41.895 -18.261   2.983  1.00  0.00    -0.271 OA
BRANCH  20  23
HETATM   23  C   UNL     1      44.400 -19.811   3.401  1.00  0.00     0.045 A 
HETATM   24  C   UNL     1      44.288 -20.027   4.798  1.00  0.00     0.001 A 
HETATM   25  C   UNL     1      44.379 -21.343   5.291  1.00  0.00     0.014 A 
HETATM   26  C   UNL     1      44.579 -22.422   4.431  1.00  0.00     0.001 A 
HETATM   27  C   UNL     1      44.702 -22.202   3.066  1.00  0.00     0.002 A 
HETATM   28  C   UNL     1      44.614 -20.906   2.552  1.00  0.00     0.030 A 
BRANCH  24  29
HETATM   29  C   UNL     1      44.120 -18.926   5.762  1.00  0.00    -0.024 A 
HETATM   30  C   UNL     1      45.201 -18.104   6.116  1.00  0.00     0.012 A 
HETATM   31  C   UNL     1      45.033 -17.060   7.028  1.00  0.00     0.001 A 
HETATM   32  C   UNL     1      43.783 -16.823   7.597  1.00  0.00     0.000 A 
HETATM   33  C   UNL     1      42.698 -17.627   7.253  1.00  0.00     0.001 A 
HETATM   34  C   UNL     1      42.866 -18.669   6.339  1.00  0.00     0.012 A 
ENDBRANCH  24  29
ENDBRANCH  20  23
ENDBRANCH   1  19
TORSDOF 7
ENDMDL
MODEL 7
REMARK VINA RESULT:      -8.1      1.505      2.190
REMARK  7 active torsions:
REMARK  status: ('A' for Active; 'I' for Inactive)
REMARK    1  A    between atoms: C_2  and  O_3 
REMARK    2  A    between atoms: O_3  and  C_4 
REMARK    3  A    between atoms: C_5  and  N_6 
REMARK    4  A    between atoms: N_9  and  C_11 
REMARK    5  A    between atoms: C_11  and  C_12 
REMARK       I    between atoms: C_12  and  N_13 
REMARK    6  A    between atoms: N_13  and  C_14 
REMARK    7  A    between atoms: C_15  and  C_16 
ROOT
HETATM    1  C   UNL     1      42.170 -15.592   6.129  1.00  0.00     0.275 C 
HETATM    2  C   UNL     1      40.733 -16.100   6.120  1.00  0.00     0.050 C 
ENDROOT
BRANCH   1   3
HETATM    3  N   UNL     1      42.356 -14.452   5.108  1.00  0.00    -0.056 N 
HETATM    4  C   UNL     1      42.799 -14.893   3.706  1.00  0.00     0.255 C 
HETATM    5  C   UNL     1      43.157 -13.650   2.863  1.00  0.00     0.150 C 
HETATM    6  N   UNL     1      42.015 -12.720   2.804  1.00  0.00    -0.375 N 
HETATM    7  C   UNL     1      41.536 -12.268   4.128  1.00  0.00     0.150 C 
HETATM    8  C   UNL     1      41.194 -13.471   5.034  1.00  0.00     0.255 C 
HETATM    9  H   UNL     1      43.175 -13.935   5.468  1.00  0.00     0.281 HD
BRANCH   6  10
HETATM   10  C   UNL     1      41.107 -12.760   1.733  1.00  0.00     0.064 A 
HETATM   11  C   UNL     1      41.428 -12.263   0.438  1.00  0.00     0.095 A 
HETATM   12  C   UNL     1      40.495 -12.339  -0.611  1.00  0.00     0.039 A 
HETATM   13  C   UNL     1      39.239 -12.906  -0.411  1.00  0.00     0.003 A 
HETATM   14  C   UNL     1      38.910 -13.415   0.835  1.00  0.00     0.002 A 
HETATM   15  C   UNL     1      39.833 -13.348   1.882  1.00  0.00     0.032 A 
BRANCH  11  16
HETATM   16  O   UNL     1      42.703 -11.776   0.253  1.00  0.00    -0.349 OA
BRANCH  16  17
HETATM   17  C   UNL     1      43.073 -11.352  -1.058  1.00  0.00     0.171 C 
HETATM   18  C   UNL     1      43.595  -9.930  -0.959  1.00  0.00     0.034 C 
ENDBRANCH  16  17
ENDBRANCH  11  16
ENDBRANCH   6  10
ENDBRANCH   1   3
BRANCH   1  19
HETATM   19  C   UNL     1      43.208 -16.711   5.856  1.00  0.00     0.253 C 
HETATM   20  N   UNL     1      42.712 -17.839   5.242  1.00  0.00    -0.325 N 
HETATM   21  H   UNL     1      41.710 -18.002   5.258  1.00  0.00     0.169 HD
HETATM   22  O   UNL     1      44.366 -16.535   6.233  1.00  0.00    -0.271 OA
BRANCH  20  23
HETATM   23  C   UNL     1      43.467 -18.877   4.633  1.00  0.00     0.045 A 
HETATM   24  C   UNL     1      43.501 -18.951   3.217  1.00  0.00     0.001 A 
HETATM   25  C   UNL     1      44.327 -19.916   2.609  1.00  0.00     0.014 A 
HETATM   26  C   UNL     1      45.096 -20.792   3.374  1.00  0.00     0.001 A 
HETATM   27  C   UNL     1      45.046 -20.722   4.761  1.00  0.00     0.002 A 
HETATM   28  C   UNL     1      44.237 -19.772   5.388  1.00  0.00     0.030 A 
BRANCH  24  29
HETATM   29  C   UNL     1      42.679 -18.086   2.355  1.00  0.00    -0.024 A 
HETATM   30  C   UNL     1      41.324 -17.862   2.638  1.00  0.00     0.012 A 
HETATM   31  C   UNL     1      40.551 -17.036   1.817  1.00  0.00     0.001 A 
HETATM   32  C   UNL     1      41.124 -16.425   0.703  1.00  0.00     0.000 A 
HETATM   33  C   UNL     1      42.470 -16.633   0.411  1.00  0.00     0.001 A 
HETATM   34  C   UNL     1      43.243 -17.456   1.233  1.00  0.00     0.012 A 
ENDBRANCH  24  29
ENDBRANCH  20  23
ENDBRANCH   1  19
TORSDOF 7
ENDMDL
MODEL 8
REMARK VINA RESULT:      -8.0      4.648      9.436
REMARK  7 active torsions:
REMARK  status: ('A' for Active; 'I' for Inactive)
REMARK    1  A    between atoms: C_2  and  O_3 
REMARK    2  A    between atoms: O_3  and  C_4 
REMARK    3  A    between atoms: C_5  and  N_6 
REMARK    4  A    between atoms: N_9  and  C_11 
REMARK    5  A    between atoms: C_11  and  C_12 
REMARK       I    between atoms: C_12  and  N_13 
REMARK    6  A    between atoms: N_13  and  C_14 
REMARK    7  A    between atoms: C_15  and  C_16 
ROOT
HETATM    1  C   UNL     1      41.053 -11.667   6.198  1.00  0.00     0.275 C 
HETATM    2  C   UNL     1      39.532 -11.597   6.262  1.00  0.00     0.050 C 
ENDROOT
BRANCH   1   3
HETATM    3  N   UNL     1      41.542 -13.124   6.334  1.00  0.00    -0.056 N 
HETATM    4  C   UNL     1      40.670 -14.176   5.634  1.00  0.00     0.255 C 
HETATM    5  C   UNL     1      41.147 -15.589   6.035  1.00  0.00     0.150 C 
HETATM    6  N   UNL     1      42.574 -15.764   5.711  1.00  0.00    -0.375 N 
HETATM    7  C   UNL     1      43.463 -14.770   6.349  1.00  0.00     0.150 C 
HETATM    8  C   UNL     1      43.016 -13.330   6.014  1.00  0.00     0.255 C 
HETATM    9  H   UNL     1      41.411 -13.331   7.338  1.00  0.00     0.281 HD
BRANCH   6  10
HETATM   10  C   UNL     1      42.971 -16.347   4.497  1.00  0.00     0.064 A 
HETATM   11  C   UNL     1      43.311 -17.725   4.384  1.00  0.00     0.095 A 
HETATM   12  C   UNL     1      43.686 -18.272   3.145  1.00  0.00     0.039 A 
HETATM   13  C   UNL     1      43.731 -17.484   1.999  1.00  0.00     0.003 A 
HETATM   14  C   UNL     1      43.386 -16.144   2.078  1.00  0.00     0.002 A 
HETATM   15  C   UNL     1      43.006 -15.593   3.304  1.00  0.00     0.032 A 
BRANCH  11  16
HETATM   16  O   UNL     1      43.185 -18.495   5.519  1.00  0.00    -0.349 OA
BRANCH  16  17
HETATM   17  C   UNL     1      44.347 -19.164   6.006  1.00  0.00     0.171 C 
HETATM   18  C   UNL     1      45.292 -18.114   6.563  1.00  0.00     0.034 C 
ENDBRANCH  16  17
ENDBRANCH  11  16
ENDBRANCH   6  10
ENDBRANCH   1   3
BRANCH   1  19
HETATM   19  C   UNL     1      41.744 -10.783   7.268  1.00  0.00     0.253 C 
HETATM   20  N   UNL     1      41.811 -11.329   8.530  1.00  0.00    -0.325 N 
HETATM   21  H   UNL     1      41.193 -12.100   8.762  1.00  0.00     0.169 HD
HETATM   22  O   UNL     1      42.141  -9.667   6.934  1.00  0.00    -0.271 OA
BRANCH  20  23
HETATM   23  C   UNL     1      42.616 -10.878   9.610  1.00  0.00     0.045 A 
HETATM   24  C   UNL     1      42.069  -9.940  10.522  1.00  0.00     0.001 A 
HETATM   25  C   UNL     1      42.827  -9.566  11.648  1.00  0.00     0.014 A 
HETATM   26  C   UNL     1      44.096 -10.099  11.871  1.00  0.00     0.001 A 
HETATM   27  C   UNL     1      44.631 -11.006  10.966  1.00  0.00     0.002 A 
HETATM   28  C   UNL     1      43.898 -11.394   9.842  1.00  0.00     0.030 A 
BRANCH  24  29
HETATM   29  C   UNL     1      40.753  -9.309  10.319  1.00  0.00    -0.024 A 
HETATM   30  C   UNL     1      39.577  -9.930  10.765  1.00  0.00     0.012 A 
HETATM   31  C   UNL     1      38.334  -9.324  10.572  1.00  0.00     0.001 A 
HETATM   32  C   UNL     1      38.250  -8.089   9.931  1.00  0.00     0.000 A 
HETATM   33  C   UNL     1      39.409  -7.457   9.486  1.00  0.00     0.001 A 
HETATM   34  C   UNL     1      40.652  -8.062   9.681  1.00  0.00     0.012 A 
ENDBRANCH  24  29
ENDBRANCH  20  23
ENDBRANCH   1  19
TORSDOF 7
ENDMDL
MODEL 9
REMARK VINA RESULT:      -8.0      2.455      4.601
REMARK  7 active torsions:
REMARK  status: ('A' for Active; 'I' for Inactive)
REMARK    1  A    between atoms: C_2  and  O_3 
REMARK    2  A    between atoms: O_3  and  C_4 
REMARK    3  A    between atoms: C_5  and  N_6 
REMARK    4  A    between atoms: N_9  and  C_11 
REMARK    5  A    between atoms: C_11  and  C_12 
REMARK       I    between atoms: C_12  and  N_13 
REMARK    6  A    between atoms: N_13  and  C_14 
REMARK    7  A    between atoms: C_15  and  C_16 
ROOT
HETATM    1  C   UNL     1      39.953 -15.068   3.102  1.00  0.00     0.275 C 
HETATM    2  C   UNL     1      39.955 -16.261   2.154  1.00  0.00     0.050 C 
ENDROOT
BRANCH   1   3
HETATM    3  N   UNL     1      40.367 -13.779   2.363  1.00  0.00    -0.056 N 
HETATM    4  C   UNL     1      41.749 -13.819   1.696  1.00  0.00     0.255 C 
HETATM    5  C   UNL     1      42.120 -12.408   1.192  1.00  0.00     0.150 C 
HETATM    6  N   UNL     1      41.087 -11.900   0.271  1.00  0.00    -0.375 N 
HETATM    7  C   UNL     1      39.730 -11.849   0.856  1.00  0.00     0.150 C 
HETATM    8  C   UNL     1      39.313 -13.228   1.412  1.00  0.00     0.255 C 
HETATM    9  H   UNL     1      40.486 -13.090   3.124  1.00  0.00     0.281 HD
BRANCH   6  10
HETATM   10  C   UNL     1      41.220 -12.058  -1.118  1.00  0.00     0.064 A 
HETATM   11  C   UNL     1      41.837 -11.075  -1.944  1.00  0.00     0.095 A 
HETATM   12  C   UNL     1      41.966 -11.281  -3.329  1.00  0.00     0.039 A 
HETATM   13  C   UNL     1      41.499 -12.449  -3.924  1.00  0.00     0.003 A 
HETATM   14  C   UNL     1      40.912 -13.429  -3.140  1.00  0.00     0.002 A 
HETATM   15  C   UNL     1      40.785 -13.236  -1.762  1.00  0.00     0.032 A 
BRANCH  11  16
HETATM   16  O   UNL     1      42.355  -9.965  -1.315  1.00  0.00    -0.349 OA
BRANCH  16  17
HETATM   17  C   UNL     1      43.774  -9.828  -1.261  1.00  0.00     0.171 C 
HETATM   18  C   UNL     1      44.097  -8.349  -1.145  1.00  0.00     0.034 C 
ENDBRANCH  16  17
ENDBRANCH  11  16
ENDBRANCH   6  10
ENDBRANCH   1   3
BRANCH   1  19
HETATM   19  C   UNL     1      40.868 -15.277   4.337  1.00  0.00     0.253 C 
HETATM   20  N   UNL     1      41.050 -16.585   4.721  1.00  0.00    -0.325 N 
HETATM   21  H   UNL     1      40.396 -17.288   4.389  1.00  0.00     0.169 HD
HETATM   22  O   UNL     1      41.324 -14.281   4.898  1.00  0.00    -0.271 OA
BRANCH  20  23
HETATM   23  C   UNL     1      42.035 -17.079   5.618  1.00  0.00     0.045 A 
HETATM   24  C   UNL     1      43.220 -17.645   5.084  1.00  0.00     0.001 A 
HETATM   25  C   UNL     1      44.240 -18.044   5.968  1.00  0.00     0.014 A 
HETATM   26  C   UNL     1      44.097 -17.895   7.347  1.00  0.00     0.001 A 
HETATM   27  C   UNL     1      42.927 -17.353   7.864  1.00  0.00     0.002 A 
HETATM   28  C   UNL     1      41.902 -16.947   7.007  1.00  0.00     0.030 A 
BRANCH  24  29
HETATM   29  C   UNL     1      43.413 -17.869   3.641  1.00  0.00    -0.024 A 
HETATM   30  C   UNL     1      43.204 -19.133   3.072  1.00  0.00     0.012 A 
HETATM   31  C   UNL     1      43.386 -19.337   1.702  1.00  0.00     0.001 A 
HETATM   32  C   UNL     1      43.780 -18.280   0.884  1.00  0.00     0.000 A 
HETATM   33  C   UNL     1      43.989 -17.016   1.433  1.00  0.00     0.001 A 
HETATM   34  C   UNL     1      43.804 -16.812   2.802  1.00  0.00     0.012 A 
ENDBRANCH  24  29
ENDBRANCH  20  23
ENDBRANCH   1  19
TORSDOF 7
ENDMDL
MODEL 10
REMARK VINA RESULT:      -7.9      4.397      9.341
REMARK  7 active torsions:
REMARK  status: ('A' for Active; 'I' for Inactive)
REMARK    1  A    between atoms: C_2  and  O_3 
REMARK    2  A    between atoms: O_3  and  C_4 
REMARK    3  A    between atoms: C_5  and  N_6 
REMARK    4  A    between atoms: N_9  and  C_11 
REMARK    5  A    between atoms: C_11  and  C_12 
REMARK       I    between atoms: C_12  and  N_13 
REMARK    6  A    between atoms: N_13  and  C_14 
REMARK    7  A    between atoms: C_15  and  C_16 
ROOT
HETATM    1  C   UNL     1      41.184 -11.815   6.085  1.00  0.00     0.275 C 
HETATM    2  C   UNL     1      40.511 -11.477   4.761  1.00  0.00     0.050 C 
ENDROOT
BRANCH   1   3
HETATM    3  N   UNL     1      41.569 -13.308   6.140  1.00  0.00    -0.056 N 
HETATM    4  C   UNL     1      40.673 -14.248   5.322  1.00  0.00     0.255 C 
HETATM    5  C   UNL     1      41.034 -15.714   5.643  1.00  0.00     0.150 C 
HETATM    6  N   UNL     1      42.463 -15.963   5.382  1.00  0.00    -0.375 N 
HETATM    7  C   UNL     1      43.377 -15.078   6.136  1.00  0.00     0.150 C 
HETATM    8  C   UNL     1      43.043 -13.591   5.884  1.00  0.00     0.255 C 
HETATM    9  H   UNL     1      41.368 -13.574   7.119  1.00  0.00     0.281 HD
BRANCH   6  10
HETATM   10  C   UNL     1      42.891 -16.486   4.152  1.00  0.00     0.064 A 
HETATM   11  C   UNL     1      43.439 -17.795   4.025  1.00  0.00     0.095 A 
HETATM   12  C   UNL     1      43.838 -18.287   2.770  1.00  0.00     0.039 A 
HETATM   13  C   UNL     1      43.703 -17.511   1.622  1.00  0.00     0.003 A 
HETATM   14  C   UNL     1      43.155 -16.242   1.715  1.00  0.00     0.002 A 
HETATM   15  C   UNL     1      42.750 -15.747   2.958  1.00  0.00     0.032 A 
BRANCH  11  16
HETATM   16  O   UNL     1      43.490 -18.564   5.166  1.00  0.00    -0.349 OA
BRANCH  16  17
HETATM   17  C   UNL     1      44.759 -19.071   5.575  1.00  0.00     0.171 C 
HETATM   18  C   UNL     1      45.347 -18.101   6.583  1.00  0.00     0.034 C 
ENDBRANCH  16  17
ENDBRANCH  11  16
ENDBRANCH   6  10
ENDBRANCH   1   3
BRANCH   1  19
HETATM   19  C   UNL     1      40.310 -11.457   7.315  1.00  0.00     0.253 C 
HETATM   20  N   UNL     1      41.003 -11.192   8.474  1.00  0.00    -0.325 N 
HETATM   21  H   UNL     1      41.966 -11.505   8.549  1.00  0.00     0.169 HD
HETATM   22  O   UNL     1      39.086 -11.472   7.184  1.00  0.00    -0.271 OA
BRANCH  20  23
HETATM   23  C   UNL     1      40.493 -10.579   9.649  1.00  0.00     0.045 A 
HETATM   24  C   UNL     1      41.370 -10.370  10.744  1.00  0.00     0.001 A 
HETATM   25  C   UNL     1      40.894  -9.674  11.871  1.00  0.00     0.014 A 
HETATM   26  C   UNL     1      39.585  -9.197  11.924  1.00  0.00     0.001 A 
HETATM   27  C   UNL     1      38.727  -9.418  10.854  1.00  0.00     0.002 A 
HETATM   28  C   UNL     1      39.176 -10.104   9.723  1.00  0.00     0.030 A 
BRANCH  24  29
HETATM   29  C   UNL     1      42.749 -10.886  10.767  1.00  0.00    -0.024 A 
HETATM   30  C   UNL     1      43.092 -11.997  11.553  1.00  0.00     0.012 A 
HETATM   31  C   UNL     1      44.401 -12.483  11.567  1.00  0.00     0.001 A 
HETATM   32  C   UNL     1      45.384 -11.865  10.796  1.00  0.00     0.000 A 
HETATM   33  C   UNL     1      45.060 -10.764  10.007  1.00  0.00     0.001 A 
HETATM   34  C   UNL     1      43.750 -10.280   9.991  1.00  0.00     0.012 A 
ENDBRANCH  24  29
ENDBRANCH  20  23
ENDBRANCH   1  19
TORSDOF 7
ENDMDL
