MODEL 1
REMARK VINA RESULT:      -8.9      0.000      0.000
REMARK  5 active torsions:
REMARK  status: ('A' for Active; 'I' for Inactive)
REMARK    1  A    between atoms: C_7  and  S_8 
REMARK    2  A    between atoms: S_8  and  C_9 
REMARK    3  A    between atoms: C_9  and  C_10 
REMARK       I    between atoms: C_10  and  N_11 
REMARK    4  A    between atoms: N_11  and  N_12 
REMARK       I    between atoms: N_12  and  C_13 
REMARK       I    between atoms: C_13  and  N_14 
REMARK    5  A    between atoms: N_14  and  C_15 
ROOT
HETATM    1  C   UNL     1      41.006 -16.968   1.972  1.00  0.00     0.245 C 
HETATM    2  N   UNL     1      40.571 -15.677   1.776  1.00  0.00    -0.265 N 
HETATM    3  O   UNL     1      41.050 -17.779   1.041  1.00  0.00    -0.271 OA
HETATM    4  H   UNL     1      40.595 -14.953   2.495  1.00  0.00     0.190 HD
ENDROOT
BRANCH   1   5
HETATM    5  C   UNL     1      41.547 -17.315   3.342  1.00  0.00     0.184 C 
BRANCH   5   6
HETATM    6  S   UNL     1      43.259 -16.772   3.609  1.00  0.00    -0.118 SA
BRANCH   6   7
HETATM    7  C   UNL     1      43.941 -18.284   4.177  1.00  0.00     0.035 A 
HETATM    8  C   UNL     1      44.489 -18.494   5.424  1.00  0.00     0.023 A 
HETATM    9  C   UNL     1      44.694 -17.579   6.577  1.00  0.00     0.069 C 
HETATM   10  N   UNL     1      44.862 -19.815   5.480  1.00  0.00    -0.358 N 
HETATM   11  H   UNL     1      45.290 -20.266   6.276  1.00  0.00     0.166 HD
HETATM   12  C   UNL     1      44.565 -20.455   4.297  1.00  0.00     0.044 A 
HETATM   13  C   UNL     1      44.000 -19.505   3.444  1.00  0.00     0.009 A 
HETATM   14  C   UNL     1      44.756 -21.791   3.925  1.00  0.00     0.030 A 
HETATM   15  C   UNL     1      43.624 -19.913   2.146  1.00  0.00     0.015 A 
HETATM   16  C   UNL     1      43.809 -21.245   1.757  1.00  0.00     0.001 A 
HETATM   17  C   UNL     1      44.364 -22.169   2.639  1.00  0.00     0.002 A 
ENDBRANCH   6   7
ENDBRANCH   5   6
ENDBRANCH   1   5
BRANCH   2  18
HETATM   18  N   UNL     1      40.237 -15.289   0.468  1.00  0.00    -0.249 N 
HETATM   19  C   UNL     1      41.077 -14.423  -0.177  1.00  0.00     0.339 C 
HETATM   20  N   UNL     1      40.868 -14.212  -1.510  1.00  0.00    -0.308 N 
HETATM   21  O   UNL     1      42.025 -13.879   0.391  1.00  0.00    -0.245 OA
HETATM   22  H   UNL     1      41.650 -13.724  -1.929  1.00  0.00     0.170 HD
HETATM   23  H   UNL     1      39.844 -16.047  -0.087  1.00  0.00     0.192 HD
BRANCH  20  24
HETATM   24  C   UNL     1      39.816 -14.575  -2.373  1.00  0.00     0.036 A 
HETATM   25  C   UNL     1      38.558 -13.966  -2.387  1.00  0.00     0.029 A 
HETATM   26  C   UNL     1      37.559 -14.418  -3.256  1.00  0.00     0.002 A 
HETATM   27  C   UNL     1      37.815 -15.467  -4.134  1.00  0.00     0.000 A 
HETATM   28  C   UNL     1      39.078 -16.052  -4.159  1.00  0.00     0.002 A 
HETATM   29  C   UNL     1      40.075 -15.600  -3.291  1.00  0.00     0.029 A 
ENDBRANCH  20  24
ENDBRANCH   2  18
TORSDOF 5
ENDMDL
MODEL 2
REMARK VINA RESULT:      -8.9      5.500      9.143
REMARK  5 active torsions:
REMARK  status: ('A' for Active; 'I' for Inactive)
REMARK    1  A    between atoms: C_7  and  S_8 
REMARK    2  A    between atoms: S_8  and  C_9 
REMARK    3  A    between atoms: C_9  and  C_10 
REMARK       I    between atoms: C_10  and  N_11 
REMARK    4  A    between atoms: N_11  and  N_12 
REMARK       I    between atoms: N_12  and  C_13 
REMARK       I    between atoms: C_13  and  N_14 
REMARK    5  A    between atoms: N_14  and  C_15 
ROOT
HETATM    1  C   UNL     1      43.208 -14.133   6.098  1.00  0.00     0.245 C 
HETATM    2  N   UNL     1      44.125 -14.497   7.057  1.00  0.00    -0.265 N 
HETATM    3  O   UNL     1      42.541 -13.100   6.207  1.00  0.00    -0.271 OA
HETATM    4  H   UNL     1      44.754 -15.296   6.970  1.00  0.00     0.190 HD
ENDROOT
BRANCH   1   5
HETATM    5  C   UNL     1      43.144 -14.981   4.846  1.00  0.00     0.184 C 
BRANCH   5   6
HETATM    6  S   UNL     1      41.857 -16.260   4.896  1.00  0.00    -0.118 SA
BRANCH   6   7
HETATM    7  C   UNL     1      42.874 -17.664   5.151  1.00  0.00     0.035 A 
HETATM    8  C   UNL     1      43.288 -18.138   6.378  1.00  0.00     0.023 A 
HETATM    9  C   UNL     1      43.057 -17.636   7.757  1.00  0.00     0.069 C 
HETATM   10  N   UNL     1      44.025 -19.274   6.140  1.00  0.00    -0.358 N 
HETATM   11  H   UNL     1      44.457 -19.847   6.851  1.00  0.00     0.166 HD
HETATM   12  C   UNL     1      44.091 -19.537   4.790  1.00  0.00     0.044 A 
HETATM   13  C   UNL     1      43.389 -18.523   4.136  1.00  0.00     0.009 A 
HETATM   14  C   UNL     1      44.717 -20.587   4.108  1.00  0.00     0.030 A 
HETATM   15  C   UNL     1      43.327 -18.554   2.726  1.00  0.00     0.015 A 
HETATM   16  C   UNL     1      43.949 -19.598   2.029  1.00  0.00     0.001 A 
HETATM   17  C   UNL     1      44.629 -20.600   2.714  1.00  0.00     0.002 A 
ENDBRANCH   6   7
ENDBRANCH   5   6
ENDBRANCH   1   5
BRANCH   2  18
HETATM   18  N   UNL     1      44.324 -13.623   8.139  1.00  0.00    -0.249 N 
HETATM   19  C   UNL     1      45.453 -12.851   8.138  1.00  0.00     0.339 C 
HETATM   20  N   UNL     1      45.544 -11.859   9.070  1.00  0.00    -0.308 N 
HETATM   21  O   UNL     1      46.348 -12.994   7.303  1.00  0.00    -0.245 OA
HETATM   22  H   UNL     1      46.308 -11.228   8.860  1.00  0.00     0.170 HD
HETATM   23  H   UNL     1      43.465 -13.180   8.461  1.00  0.00     0.192 HD
BRANCH  20  24
HETATM   24  C   UNL     1      44.767 -11.552  10.205  1.00  0.00     0.036 A 
HETATM   25  C   UNL     1      44.359 -12.486  11.161  1.00  0.00     0.029 A 
HETATM   26  C   UNL     1      43.556 -12.096  12.238  1.00  0.00     0.002 A 
HETATM   27  C   UNL     1      43.174 -10.766  12.383  1.00  0.00     0.000 A 
HETATM   28  C   UNL     1      43.612  -9.819  11.461  1.00  0.00     0.002 A 
HETATM   29  C   UNL     1      44.413 -10.209  10.386  1.00  0.00     0.029 A 
ENDBRANCH  20  24
ENDBRANCH   2  18
TORSDOF 5
ENDMDL
MODEL 3
REMARK VINA RESULT:      -8.9      5.601      9.530
REMARK  5 active torsions:
REMARK  status: ('A' for Active; 'I' for Inactive)
REMARK    1  A    between atoms: C_7  and  S_8 
REMARK    2  A    between atoms: S_8  and  C_9 
REMARK    3  A    between atoms: C_9  and  C_10 
REMARK       I    between atoms: C_10  and  N_11 
REMARK    4  A    between atoms: N_11  and  N_12 
REMARK       I    between atoms: N_12  and  C_13 
REMARK       I    between atoms: C_13  and  N_14 
REMARK    5  A    between atoms: N_14  and  C_15 
ROOT
HETATM    1  C   UNL     1      43.955 -15.059   6.825  1.00  0.00     0.245 C 
HETATM    2  N   UNL     1      44.177 -13.701   6.844  1.00  0.00    -0.265 N 
HETATM    3  O   UNL     1      43.953 -15.724   7.866  1.00  0.00    -0.271 OA
HETATM    4  H   UNL     1      44.106 -13.101   6.022  1.00  0.00     0.190 HD
ENDROOT
BRANCH   1   5
HETATM    5  C   UNL     1      43.587 -15.681   5.494  1.00  0.00     0.184 C 
BRANCH   5   6
HETATM    6  S   UNL     1      42.023 -16.602   5.528  1.00  0.00    -0.118 SA
BRANCH   6   7
HETATM    7  C   UNL     1      42.200 -17.499   4.033  1.00  0.00     0.035 A 
HETATM    8  C   UNL     1      41.533 -17.231   2.856  1.00  0.00     0.023 A 
HETATM    9  C   UNL     1      40.512 -16.207   2.514  1.00  0.00     0.069 C 
HETATM   10  N   UNL     1      41.990 -18.131   1.924  1.00  0.00    -0.358 N 
HETATM   11  H   UNL     1      41.686 -18.176   0.961  1.00  0.00     0.166 HD
HETATM   12  C   UNL     1      42.933 -18.969   2.476  1.00  0.00     0.044 A 
HETATM   13  C   UNL     1      43.072 -18.607   3.817  1.00  0.00     0.009 A 
HETATM   14  C   UNL     1      43.662 -20.011   1.892  1.00  0.00     0.030 A 
HETATM   15  C   UNL     1      43.976 -19.339   4.617  1.00  0.00     0.015 A 
HETATM   16  C   UNL     1      44.713 -20.385   4.048  1.00  0.00     0.001 A 
HETATM   17  C   UNL     1      44.559 -20.711   2.704  1.00  0.00     0.002 A 
ENDBRANCH   6   7
ENDBRANCH   5   6
ENDBRANCH   1   5
BRANCH   2  18
HETATM   18  N   UNL     1      44.340 -13.081   8.094  1.00  0.00    -0.249 N 
HETATM   19  C   UNL     1      45.565 -12.547   8.388  1.00  0.00     0.339 C 
HETATM   20  N   UNL     1      45.665 -11.766   9.503  1.00  0.00    -0.308 N 
HETATM   21  O   UNL     1      46.546 -12.708   7.660  1.00  0.00    -0.245 OA
HETATM   22  H   UNL     1      46.544 -11.264   9.520  1.00  0.00     0.170 HD
HETATM   23  H   UNL     1      43.524 -12.547   8.387  1.00  0.00     0.192 HD
BRANCH  20  24
HETATM   24  C   UNL     1      44.778 -11.521  10.570  1.00  0.00     0.036 A 
HETATM   25  C   UNL     1      44.262 -12.508  11.414  1.00  0.00     0.029 A 
HETATM   26  C   UNL     1      43.356 -12.175  12.427  1.00  0.00     0.002 A 
HETATM   27  C   UNL     1      42.976 -10.850  12.619  1.00  0.00     0.000 A 
HETATM   28  C   UNL     1      43.517  -9.853  11.813  1.00  0.00     0.002 A 
HETATM   29  C   UNL     1      44.421 -10.186  10.802  1.00  0.00     0.029 A 
ENDBRANCH  20  24
ENDBRANCH   2  18
TORSDOF 5
ENDMDL
MODEL 4
REMARK VINA RESULT:      -8.8      6.539      9.873
REMARK  5 active torsions:
REMARK  status: ('A' for Active; 'I' for Inactive)
REMARK    1  A    between atoms: C_7  and  S_8 
REMARK    2  A    between atoms: S_8  and  C_9 
REMARK    3  A    between atoms: C_9  and  C_10 
REMARK       I    between atoms: C_10  and  N_11 
REMARK    4  A    between atoms: N_11  and  N_12 
REMARK       I    between atoms: N_12  and  C_13 
REMARK       I    between atoms: C_13  and  N_14 
REMARK    5  A    between atoms: N_14  and  C_15 
ROOT
HETATM    1  C   UNL     1      44.338 -13.286   7.635  1.00  0.00     0.245 C 
HETATM    2  N   UNL     1      43.250 -12.444   7.608  1.00  0.00    -0.265 N 
HETATM    3  O   UNL     1      45.108 -13.309   8.600  1.00  0.00    -0.271 OA
HETATM    4  H   UNL     1      42.544 -12.449   6.872  1.00  0.00     0.190 HD
ENDROOT
BRANCH   1   5
HETATM    5  C   UNL     1      44.479 -14.270   6.493  1.00  0.00     0.184 C 
BRANCH   5   6
HETATM    6  S   UNL     1      42.911 -14.646   5.658  1.00  0.00    -0.118 SA
BRANCH   6   7
HETATM    7  C   UNL     1      43.195 -16.336   5.290  1.00  0.00     0.035 A 
HETATM    8  C   UNL     1      43.153 -17.370   6.202  1.00  0.00     0.023 A 
HETATM    9  C   UNL     1      42.913 -17.381   7.668  1.00  0.00     0.069 C 
HETATM   10  N   UNL     1      43.384 -18.529   5.502  1.00  0.00    -0.358 N 
HETATM   11  H   UNL     1      43.408 -19.456   5.904  1.00  0.00     0.166 HD
HETATM   12  C   UNL     1      43.571 -18.262   4.164  1.00  0.00     0.044 A 
HETATM   13  C   UNL     1      43.478 -16.879   4.002  1.00  0.00     0.009 A 
HETATM   14  C   UNL     1      43.816 -19.136   3.098  1.00  0.00     0.030 A 
HETATM   15  C   UNL     1      43.658 -16.343   2.708  1.00  0.00     0.015 A 
HETATM   16  C   UNL     1      43.904 -17.203   1.631  1.00  0.00     0.001 A 
HETATM   17  C   UNL     1      43.977 -18.580   1.827  1.00  0.00     0.002 A 
ENDBRANCH   6   7
ENDBRANCH   5   6
ENDBRANCH   1   5
BRANCH   2  18
HETATM   18  N   UNL     1      43.005 -11.653   8.743  1.00  0.00    -0.249 N 
HETATM   19  C   UNL     1      42.356 -10.462   8.565  1.00  0.00     0.339 C 
HETATM   20  N   UNL     1      41.933  -9.798   9.680  1.00  0.00    -0.308 N 
HETATM   21  O   UNL     1      42.106 -10.009   7.447  1.00  0.00    -0.245 OA
HETATM   22  H   UNL     1      41.299  -9.045   9.438  1.00  0.00     0.170 HD
HETATM   23  H   UNL     1      42.747 -12.198   9.564  1.00  0.00     0.192 HD
BRANCH  20  24
HETATM   24  C   UNL     1      42.186  -9.994  11.052  1.00  0.00     0.036 A 
HETATM   25  C   UNL     1      43.285  -9.469  11.738  1.00  0.00     0.029 A 
HETATM   26  C   UNL     1      43.475  -9.747  13.095  1.00  0.00     0.002 A 
HETATM   27  C   UNL     1      42.555 -10.531  13.785  1.00  0.00     0.000 A 
HETATM   28  C   UNL     1      41.433 -11.022  13.124  1.00  0.00     0.002 A 
HETATM   29  C   UNL     1      41.245 -10.744  11.768  1.00  0.00     0.029 A 
ENDBRANCH  20  24
ENDBRANCH   2  18
TORSDOF 5
ENDMDL
MODEL 5
REMARK VINA RESULT:      -8.2      4.894      7.055
REMARK  5 active torsions:
REMARK  status: ('A' for Active; 'I' for Inactive)
REMARK    1  A    between atoms: C_7  and  S_8 
REMARK    2  A    between atoms: S_8  and  C_9 
REMARK    3  A    between atoms: C_9  and  C_10 
REMARK       I    between atoms: C_10  and  N_11 
REMARK    4  A    between atoms: N_11  and  N_12 
REMARK       I    between atoms: N_12  and  C_13 
REMARK       I    between atoms: C_13  and  N_14 
REMARK    5  A    between atoms: N_14  and  C_15 
ROOT
HETATM    1  C   UNL     1      41.329 -15.637   5.246  1.00  0.00     0.245 C 
HETATM    2  N   UNL     1      42.350 -14.748   5.492  1.00  0.00    -0.265 N 
HETATM    3  O   UNL     1      40.182 -15.426   5.653  1.00  0.00    -0.271 OA
HETATM    4  H   UNL     1      43.290 -14.840   5.107  1.00  0.00     0.190 HD
ENDROOT
BRANCH   1   5
HETATM    5  C   UNL     1      41.640 -16.817   4.350  1.00  0.00     0.184 C 
BRANCH   5   6
HETATM    6  S   UNL     1      43.268 -16.717   3.553  1.00  0.00    -0.118 SA
BRANCH   6   7
HETATM    7  C   UNL     1      43.955 -18.218   4.142  1.00  0.00     0.035 A 
HETATM    8  C   UNL     1      44.515 -18.405   5.388  1.00  0.00     0.023 A 
HETATM    9  C   UNL     1      44.732 -17.468   6.521  1.00  0.00     0.069 C 
HETATM   10  N   UNL     1      44.887 -19.725   5.465  1.00  0.00    -0.358 N 
HETATM   11  H   UNL     1      45.324 -20.161   6.266  1.00  0.00     0.166 HD
HETATM   12  C   UNL     1      44.578 -20.387   4.298  1.00  0.00     0.044 A 
HETATM   13  C   UNL     1      44.005 -19.454   3.433  1.00  0.00     0.009 A 
HETATM   14  C   UNL     1      44.765 -21.730   3.950  1.00  0.00     0.030 A 
HETATM   15  C   UNL     1      43.616 -19.885   2.146  1.00  0.00     0.015 A 
HETATM   16  C   UNL     1      43.796 -21.225   1.782  1.00  0.00     0.001 A 
HETATM   17  C   UNL     1      44.359 -22.132   2.675  1.00  0.00     0.002 A 
ENDBRANCH   6   7
ENDBRANCH   5   6
ENDBRANCH   1   5
BRANCH   2  18
HETATM   18  N   UNL     1      42.034 -13.558   6.169  1.00  0.00    -0.249 N 
HETATM   19  C   UNL     1      41.917 -12.413   5.429  1.00  0.00     0.339 C 
HETATM   20  N   UNL     1      41.409 -11.308   6.048  1.00  0.00    -0.308 N 
HETATM   21  O   UNL     1      42.207 -12.370   4.232  1.00  0.00    -0.245 OA
HETATM   22  H   UNL     1      41.178 -10.587   5.376  1.00  0.00     0.170 HD
HETATM   23  H   UNL     1      41.360 -13.691   6.920  1.00  0.00     0.192 HD
BRANCH  20  24
HETATM   24  C   UNL     1      41.126 -11.025   7.399  1.00  0.00     0.036 A 
HETATM   25  C   UNL     1      42.065 -10.557   8.323  1.00  0.00     0.029 A 
HETATM   26  C   UNL     1      41.702 -10.337   9.656  1.00  0.00     0.002 A 
HETATM   27  C   UNL     1      40.393 -10.561  10.072  1.00  0.00     0.000 A 
HETATM   28  C   UNL     1      39.439 -10.985   9.151  1.00  0.00     0.002 A 
HETATM   29  C   UNL     1      39.803 -11.204   7.820  1.00  0.00     0.029 A 
ENDBRANCH  20  24
ENDBRANCH   2  18
TORSDOF 5
ENDMDL
MODEL 6
REMARK VINA RESULT:      -8.0      1.926      2.530
REMARK  5 active torsions:
REMARK  status: ('A' for Active; 'I' for Inactive)
REMARK    1  A    between atoms: C_7  and  S_8 
REMARK    2  A    between atoms: S_8  and  C_9 
REMARK    3  A    between atoms: C_9  and  C_10 
REMARK       I    between atoms: C_10  and  N_11 
REMARK    4  A    between atoms: N_11  and  N_12 
REMARK       I    between atoms: N_12  and  C_13 
REMARK       I    between atoms: C_13  and  N_14 
REMARK    5  A    between atoms: N_14  and  C_15 
ROOT
HETATM    1  C   UNL     1      42.733 -14.700   3.252  1.00  0.00     0.245 C 
HETATM    2  N   UNL     1      41.769 -15.470   2.643  1.00  0.00    -0.265 N 
HETATM    3  O   UNL     1      43.237 -13.730   2.678  1.00  0.00    -0.271 OA
HETATM    4  H   UNL     1      41.268 -16.228   3.107  1.00  0.00     0.190 HD
ENDROOT
BRANCH   1   5
HETATM    5  C   UNL     1      43.057 -15.014   4.697  1.00  0.00     0.184 C 
BRANCH   5   6
HETATM    6  S   UNL     1      41.925 -16.215   5.453  1.00  0.00    -0.118 SA
BRANCH   6   7
HETATM    7  C   UNL     1      43.049 -17.539   5.691  1.00  0.00     0.035 A 
HETATM    8  C   UNL     1      43.592 -17.918   6.901  1.00  0.00     0.023 A 
HETATM    9  C   UNL     1      43.443 -17.354   8.268  1.00  0.00     0.069 C 
HETATM   10  N   UNL     1      44.379 -19.018   6.659  1.00  0.00    -0.358 N 
HETATM   11  H   UNL     1      44.904 -19.523   7.359  1.00  0.00     0.166 HD
HETATM   12  C   UNL     1      44.351 -19.352   5.323  1.00  0.00     0.044 A 
HETATM   13  C   UNL     1      43.534 -18.420   4.681  1.00  0.00     0.009 A 
HETATM   14  C   UNL     1      44.986 -20.399   4.645  1.00  0.00     0.030 A 
HETATM   15  C   UNL     1      43.359 -18.535   3.285  1.00  0.00     0.015 A 
HETATM   16  C   UNL     1      43.988 -19.576   2.591  1.00  0.00     0.001 A 
HETATM   17  C   UNL     1      44.786 -20.495   3.266  1.00  0.00     0.002 A 
ENDBRANCH   6   7
ENDBRANCH   5   6
ENDBRANCH   1   5
BRANCH   2  18
HETATM   18  N   UNL     1      41.328 -15.080   1.367  1.00  0.00    -0.249 N 
HETATM   19  C   UNL     1      39.982 -15.094   1.123  1.00  0.00     0.339 C 
HETATM   20  N   UNL     1      39.542 -14.520  -0.034  1.00  0.00    -0.308 N 
HETATM   21  O   UNL     1      39.172 -15.558   1.927  1.00  0.00    -0.245 OA
HETATM   22  H   UNL     1      38.536 -14.404  -0.025  1.00  0.00     0.170 HD
HETATM   23  H   UNL     1      41.857 -14.299   0.981  1.00  0.00     0.192 HD
BRANCH  20  24
HETATM   24  C   UNL     1      40.220 -14.047  -1.175  1.00  0.00     0.036 A 
HETATM   25  C   UNL     1      40.555 -12.708  -1.398  1.00  0.00     0.029 A 
HETATM   26  C   UNL     1      41.198 -12.324  -2.579  1.00  0.00     0.002 A 
HETATM   27  C   UNL     1      41.534 -13.276  -3.537  1.00  0.00     0.000 A 
HETATM   28  C   UNL     1      41.245 -14.618  -3.306  1.00  0.00     0.002 A 
HETATM   29  C   UNL     1      40.603 -15.001  -2.126  1.00  0.00     0.029 A 
ENDBRANCH  20  24
ENDBRANCH   2  18
TORSDOF 5
ENDMDL
MODEL 7
REMARK VINA RESULT:      -7.7      5.852      9.569
REMARK  5 active torsions:
REMARK  status: ('A' for Active; 'I' for Inactive)
REMARK    1  A    between atoms: C_7  and  S_8 
REMARK    2  A    between atoms: S_8  and  C_9 
REMARK    3  A    between atoms: C_9  and  C_10 
REMARK       I    between atoms: C_10  and  N_11 
REMARK    4  A    between atoms: N_11  and  N_12 
REMARK       I    between atoms: N_12  and  C_13 
REMARK       I    between atoms: C_13  and  N_14 
REMARK    5  A    between atoms: N_14  and  C_15 
ROOT
HETATM    1  C   UNL     1      43.684 -14.201   6.573  1.00  0.00     0.245 C 
HETATM    2  N   UNL     1      44.412 -14.233   7.741  1.00  0.00    -0.265 N 
HETATM    3  O   UNL     1      42.907 -13.273   6.327  1.00  0.00    -0.271 OA
HETATM    4  H   UNL     1      45.124 -14.934   7.948  1.00  0.00     0.190 HD
ENDROOT
BRANCH   1   5
HETATM    5  C   UNL     1      43.971 -15.278   5.549  1.00  0.00     0.184 C 
BRANCH   5   6
HETATM    6  S   UNL     1      43.424 -16.932   6.060  1.00  0.00    -0.118 SA
BRANCH   6   7
HETATM    7  C   UNL     1      43.055 -17.599   4.482  1.00  0.00     0.035 A 
HETATM    8  C   UNL     1      43.621 -18.735   3.942  1.00  0.00     0.023 A 
HETATM    9  C   UNL     1      44.660 -19.660   4.463  1.00  0.00     0.069 C 
HETATM   10  N   UNL     1      43.028 -18.935   2.719  1.00  0.00    -0.358 N 
HETATM   11  H   UNL     1      43.235 -19.697   2.089  1.00  0.00     0.166 HD
HETATM   12  C   UNL     1      42.096 -17.953   2.463  1.00  0.00     0.044 A 
HETATM   13  C   UNL     1      42.106 -17.080   3.553  1.00  0.00     0.009 A 
HETATM   14  C   UNL     1      41.257 -17.776   1.357  1.00  0.00     0.030 A 
HETATM   15  C   UNL     1      41.243 -15.963   3.522  1.00  0.00     0.015 A 
HETATM   16  C   UNL     1      40.398 -15.771   2.423  1.00  0.00     0.001 A 
HETATM   17  C   UNL     1      40.405 -16.669   1.359  1.00  0.00     0.002 A 
ENDBRANCH   6   7
ENDBRANCH   5   6
ENDBRANCH   1   5
BRANCH   2  18
HETATM   18  N   UNL     1      44.291 -13.144   8.620  1.00  0.00    -0.249 N 
HETATM   19  C   UNL     1      45.340 -12.271   8.705  1.00  0.00     0.339 C 
HETATM   20  N   UNL     1      45.142 -11.108   9.392  1.00  0.00    -0.308 N 
HETATM   21  O   UNL     1      46.418 -12.480   8.147  1.00  0.00    -0.245 OA
HETATM   22  H   UNL     1      45.897 -10.453   9.227  1.00  0.00     0.170 HD
HETATM   23  H   UNL     1      43.355 -12.742   8.633  1.00  0.00     0.192 HD
BRANCH  20  24
HETATM   24  C   UNL     1      44.095 -10.667  10.225  1.00  0.00     0.036 A 
HETATM   25  C   UNL     1      42.832 -10.276   9.770  1.00  0.00     0.029 A 
HETATM   26  C   UNL     1      41.864  -9.816  10.669  1.00  0.00     0.002 A 
HETATM   27  C   UNL     1      42.141  -9.764  12.032  1.00  0.00     0.000 A 
HETATM   28  C   UNL     1      43.380 -10.192  12.501  1.00  0.00     0.002 A 
HETATM   29  C   UNL     1      44.346 -10.651  11.603  1.00  0.00     0.029 A 
ENDBRANCH  20  24
ENDBRANCH   2  18
TORSDOF 5
ENDMDL
MODEL 8
REMARK VINA RESULT:      -7.7      1.982      2.779
REMARK  5 active torsions:
REMARK  status: ('A' for Active; 'I' for Inactive)
REMARK    1  A    between atoms: C_7  and  S_8 
REMARK    2  A    between atoms: S_8  and  C_9 
REMARK    3  A    between atoms: C_9  and  C_10 
REMARK       I    between atoms: C_10  and  N_11 
REMARK    4  A    between atoms: N_11  and  N_12 
REMARK       I    between atoms: N_12  and  C_13 
REMARK       I    between atoms: C_13  and  N_14 
REMARK    5  A    between atoms: N_14  and  C_15 
ROOT
HETATM    1  C   UNL     1      41.217 -15.890   0.368  1.00  0.00     0.245 C 
HETATM    2  N   UNL     1      40.873 -16.078  -0.952  1.00  0.00    -0.265 N 
HETATM    3  O   UNL     1      41.099 -14.787   0.911  1.00  0.00    -0.271 OA
HETATM    4  H   UNL     1      40.877 -16.985  -1.417  1.00  0.00     0.190 HD
ENDROOT
BRANCH   1   5
HETATM    5  C   UNL     1      41.623 -17.116   1.157  1.00  0.00     0.184 C 
BRANCH   5   6
HETATM    6  S   UNL     1      43.394 -17.502   1.044  1.00  0.00    -0.118 SA
BRANCH   6   7
HETATM    7  C   UNL     1      43.685 -17.948   2.713  1.00  0.00     0.035 A 
HETATM    8  C   UNL     1      43.556 -17.108   3.799  1.00  0.00     0.023 A 
HETATM    9  C   UNL     1      43.196 -15.669   3.894  1.00  0.00     0.069 C 
HETATM   10  N   UNL     1      43.829 -17.856   4.918  1.00  0.00    -0.358 N 
HETATM   11  H   UNL     1      43.809 -17.511   5.868  1.00  0.00     0.166 HD
HETATM   12  C   UNL     1      44.129 -19.155   4.575  1.00  0.00     0.044 A 
HETATM   13  C   UNL     1      44.067 -19.239   3.183  1.00  0.00     0.009 A 
HETATM   14  C   UNL     1      44.450 -20.249   5.387  1.00  0.00     0.030 A 
HETATM   15  C   UNL     1      44.359 -20.479   2.574  1.00  0.00     0.015 A 
HETATM   16  C   UNL     1      44.682 -21.583   3.372  1.00  0.00     0.001 A 
HETATM   17  C   UNL     1      44.722 -21.467   4.759  1.00  0.00     0.002 A 
ENDBRANCH   6   7
ENDBRANCH   5   6
ENDBRANCH   1   5
BRANCH   2  18
HETATM   18  N   UNL     1      40.323 -14.988  -1.647  1.00  0.00    -0.249 N 
HETATM   19  C   UNL     1      40.643 -14.845  -2.969  1.00  0.00     0.339 C 
HETATM   20  N   UNL     1      39.950 -13.919  -3.693  1.00  0.00    -0.308 N 
HETATM   21  O   UNL     1      41.489 -15.551  -3.522  1.00  0.00    -0.245 OA
HETATM   22  H   UNL     1      40.117 -14.031  -4.686  1.00  0.00     0.170 HD
HETATM   23  H   UNL     1      39.359 -14.790  -1.384  1.00  0.00     0.192 HD
BRANCH  20  24
HETATM   24  C   UNL     1      39.050 -12.903  -3.317  1.00  0.00     0.036 A 
HETATM   25  C   UNL     1      39.430 -11.652  -2.822  1.00  0.00     0.029 A 
HETATM   26  C   UNL     1      38.464 -10.716  -2.438  1.00  0.00     0.002 A 
HETATM   27  C   UNL     1      37.111 -11.012  -2.566  1.00  0.00     0.000 A 
HETATM   28  C   UNL     1      36.720 -12.237  -3.100  1.00  0.00     0.002 A 
HETATM   29  C   UNL     1      37.686 -13.172  -3.483  1.00  0.00     0.029 A 
ENDBRANCH  20  24
ENDBRANCH   2  18
TORSDOF 5
ENDMDL
MODEL 9
REMARK VINA RESULT:      -7.6      3.165      7.764
REMARK  5 active torsions:
REMARK  status: ('A' for Active; 'I' for Inactive)
REMARK    1  A    between atoms: C_7  and  S_8 
REMARK    2  A    between atoms: S_8  and  C_9 
REMARK    3  A    between atoms: C_9  and  C_10 
REMARK       I    between atoms: C_10  and  N_11 
REMARK    4  A    between atoms: N_11  and  N_12 
REMARK       I    between atoms: N_12  and  C_13 
REMARK       I    between atoms: C_13  and  N_14 
REMARK    5  A    between atoms: N_14  and  C_15 
ROOT
HETATM    1  C   UNL     1      41.883 -16.274   5.476  1.00  0.00     0.245 C 
HETATM    2  N   UNL     1      43.159 -16.347   4.964  1.00  0.00    -0.265 N 
HETATM    3  O   UNL     1      41.214 -17.293   5.676  1.00  0.00    -0.271 OA
HETATM    4  H   UNL     1      43.777 -15.542   4.859  1.00  0.00     0.190 HD
ENDROOT
BRANCH   1   5
HETATM    5  C   UNL     1      41.386 -14.910   5.902  1.00  0.00     0.184 C 
BRANCH   5   6
HETATM    6  S   UNL     1      39.890 -14.373   5.023  1.00  0.00    -0.118 SA
BRANCH   6   7
HETATM    7  C   UNL     1      40.585 -14.104   3.437  1.00  0.00     0.035 A 
HETATM    8  C   UNL     1      41.062 -12.899   2.967  1.00  0.00     0.023 A 
HETATM    9  C   UNL     1      41.105 -11.549   3.585  1.00  0.00     0.069 C 
HETATM   10  N   UNL     1      41.559 -13.129   1.707  1.00  0.00    -0.358 N 
HETATM   11  H   UNL     1      41.982 -12.431   1.112  1.00  0.00     0.166 HD
HETATM   12  C   UNL     1      41.411 -14.453   1.360  1.00  0.00     0.044 A 
HETATM   13  C   UNL     1      40.777 -15.092   2.427  1.00  0.00     0.009 A 
HETATM   14  C   UNL     1      41.786 -15.123   0.189  1.00  0.00     0.030 A 
HETATM   15  C   UNL     1      40.490 -16.469   2.307  1.00  0.00     0.015 A 
HETATM   16  C   UNL     1      40.857 -17.154   1.142  1.00  0.00     0.001 A 
HETATM   17  C   UNL     1      41.500 -16.488   0.102  1.00  0.00     0.002 A 
ENDBRANCH   6   7
ENDBRANCH   5   6
ENDBRANCH   1   5
BRANCH   2  18
HETATM   18  N   UNL     1      43.702 -17.622   4.733  1.00  0.00    -0.249 N 
HETATM   19  C   UNL     1      44.582 -18.119   5.655  1.00  0.00     0.339 C 
HETATM   20  N   UNL     1      44.944 -19.430   5.543  1.00  0.00    -0.308 N 
HETATM   21  O   UNL     1      45.007 -17.441   6.592  1.00  0.00    -0.245 OA
HETATM   22  H   UNL     1      45.429 -19.747   6.374  1.00  0.00     0.170 HD
HETATM   23  H   UNL     1      43.030 -18.278   4.339  1.00  0.00     0.192 HD
BRANCH  20  24
HETATM   24  C   UNL     1      44.735 -20.387   4.531  1.00  0.00     0.036 A 
HETATM   25  C   UNL     1      44.847 -21.769   4.712  1.00  0.00     0.029 A 
HETATM   26  C   UNL     1      44.657 -22.644   3.638  1.00  0.00     0.002 A 
HETATM   27  C   UNL     1      44.331 -22.148   2.379  1.00  0.00     0.000 A 
HETATM   28  C   UNL     1      44.173 -20.777   2.196  1.00  0.00     0.002 A 
HETATM   29  C   UNL     1      44.363 -19.904   3.270  1.00  0.00     0.029 A 
ENDBRANCH  20  24
ENDBRANCH   2  18
TORSDOF 5
ENDMDL
MODEL 10
REMARK VINA RESULT:      -7.5      6.440      9.832
REMARK  5 active torsions:
REMARK  status: ('A' for Active; 'I' for Inactive)
REMARK    1  A    between atoms: C_7  and  S_8 
REMARK    2  A    between atoms: S_8  and  C_9 
REMARK    3  A    between atoms: C_9  and  C_10 
REMARK       I    between atoms: C_10  and  N_11 
REMARK    4  A    between atoms: N_11  and  N_12 
REMARK       I    between atoms: N_12  and  C_13 
REMARK       I    between atoms: C_13  and  N_14 
REMARK    5  A    between atoms: N_14  and  C_15 
ROOT
HETATM    1  C   UNL     1      40.236 -12.746   6.286  1.00  0.00     0.245 C 
HETATM    2  N   UNL     1      39.431 -12.600   7.393  1.00  0.00    -0.265 N 
HETATM    3  O   UNL     1      41.334 -12.185   6.214  1.00  0.00    -0.271 OA
HETATM    4  H   UNL     1      38.556 -13.108   7.531  1.00  0.00     0.190 HD
ENDROOT
BRANCH   1   5
HETATM    5  C   UNL     1      39.779 -13.720   5.222  1.00  0.00     0.184 C 
BRANCH   5   6
HETATM    6  S   UNL     1      40.880 -13.794   3.780  1.00  0.00    -0.118 SA
BRANCH   6   7
HETATM    7  C   UNL     1      41.551 -15.394   4.027  1.00  0.00     0.035 A 
HETATM    8  C   UNL     1      41.228 -16.517   3.295  1.00  0.00     0.023 A 
HETATM    9  C   UNL     1      40.265 -16.725   2.183  1.00  0.00     0.069 C 
HETATM   10  N   UNL     1      42.004 -17.544   3.775  1.00  0.00    -0.358 N 
HETATM   11  H   UNL     1      41.993 -18.493   3.430  1.00  0.00     0.166 HD
HETATM   12  C   UNL     1      42.816 -17.104   4.797  1.00  0.00     0.044 A 
HETATM   13  C   UNL     1      42.537 -15.751   4.994  1.00  0.00     0.009 A 
HETATM   14  C   UNL     1      43.766 -17.800   5.554  1.00  0.00     0.030 A 
HETATM   15  C   UNL     1      43.232 -15.065   6.013  1.00  0.00     0.015 A 
HETATM   16  C   UNL     1      44.185 -15.747   6.780  1.00  0.00     0.001 A 
HETATM   17  C   UNL     1      44.449 -17.094   6.548  1.00  0.00     0.002 A 
ENDBRANCH   6   7
ENDBRANCH   5   6
ENDBRANCH   1   5
BRANCH   2  18
HETATM   18  N   UNL     1      39.923 -11.842   8.468  1.00  0.00    -0.249 N 
HETATM   19  C   UNL     1      39.358 -10.618   8.700  1.00  0.00     0.339 C 
HETATM   20  N   UNL     1      39.686  -9.978   9.860  1.00  0.00    -0.308 N 
HETATM   21  O   UNL     1      38.539 -10.114   7.930  1.00  0.00    -0.245 OA
HETATM   22  H   UNL     1      39.072  -9.191  10.029  1.00  0.00     0.170 HD
HETATM   23  H   UNL     1      40.151 -12.405   9.285  1.00  0.00     0.192 HD
BRANCH  20  24
HETATM   24  C   UNL     1      40.667 -10.235  10.838  1.00  0.00     0.036 A 
HETATM   25  C   UNL     1      40.457 -11.005  11.986  1.00  0.00     0.029 A 
HETATM   26  C   UNL     1      41.480 -11.176  12.924  1.00  0.00     0.002 A 
HETATM   27  C   UNL     1      42.729 -10.601  12.712  1.00  0.00     0.000 A 
HETATM   28  C   UNL     1      42.964  -9.869  11.550  1.00  0.00     0.002 A 
HETATM   29  C   UNL     1      41.940  -9.698  10.615  1.00  0.00     0.029 A 
ENDBRANCH  20  24
ENDBRANCH   2  18
TORSDOF 5
ENDMDL
