MODEL 1
REMARK VINA RESULT:      -8.9      0.000      0.000
REMARK  8 active torsions:
REMARK  status: ('A' for Active; 'I' for Inactive)
REMARK    1  A    between atoms: C_2  and  O_3 
REMARK    2  A    between atoms: O_3  and  C_4 
REMARK    3  A    between atoms: C_4  and  C_5 
REMARK    4  A    between atoms: C_6  and  C_8 
REMARK    5  A    between atoms: C_6  and  O_7 
REMARK    6  A    between atoms: C_16  and  C_17 
REMARK    7  A    between atoms: C_18  and  C_19 
REMARK    8  A    between atoms: N_26  and  C_27 
ROOT
HETATM    1  C   UNL     1      42.959 -13.900   5.183  1.00  0.00     0.177 C 
HETATM    2  C   UNL     1      41.657 -13.123   5.432  1.00  0.00     0.250 C 
HETATM    3  N   UNL     1      41.631 -12.005   4.496  1.00  0.00    -0.303 N 
HETATM    4  C   UNL     1      41.757 -12.239   3.165  1.00  0.00     0.319 C 
HETATM    5  O   UNL     1      41.341 -11.446   2.333  1.00  0.00    -0.247 OA
HETATM    6  N   UNL     1      42.342 -13.409   2.822  1.00  0.00    -0.333 N 
HETATM    7  C   UNL     1      43.139 -14.248   3.700  1.00  0.00     0.142 C 
HETATM    8  H   UNL     1      40.992 -11.242   4.690  1.00  0.00     0.167 HD
HETATM    9  H   UNL     1      42.417 -13.546   1.820  1.00  0.00     0.165 HD
ENDROOT
BRANCH   7  10
HETATM   10  C   UNL     1      42.941 -15.670   3.250  1.00  0.00     0.015 A 
HETATM   11  C   UNL     1      41.956 -16.174   2.335  1.00  0.00     0.097 A 
HETATM   12  N   UNL     1      42.101 -17.491   2.144  1.00  0.00    -0.167 NA
HETATM   13  N   UNL     1      43.146 -17.869   2.907  1.00  0.00    -0.244 N 
HETATM   14  C   UNL     1      43.668 -16.795   3.592  1.00  0.00     0.130 A 
BRANCH  11  15
HETATM   15  C   UNL     1      40.892 -15.463   1.621  1.00  0.00    -0.005 A 
HETATM   16  C   UNL     1      41.178 -14.842   0.395  1.00  0.00     0.014 A 
HETATM   17  C   UNL     1      40.181 -14.171  -0.316  1.00  0.00     0.001 A 
HETATM   18  C   UNL     1      38.885 -14.113   0.192  1.00  0.00     0.000 A 
HETATM   19  C   UNL     1      38.583 -14.737   1.401  1.00  0.00     0.001 A 
HETATM   20  C   UNL     1      39.579 -15.417   2.108  1.00  0.00     0.014 A 
ENDBRANCH  11  15
BRANCH  13  21
HETATM   21  C   UNL     1      43.584 -19.223   2.931  1.00  0.00     0.058 A 
HETATM   22  C   UNL     1      43.251 -20.073   1.864  1.00  0.00     0.031 A 
HETATM   23  C   UNL     1      43.674 -21.404   1.864  1.00  0.00     0.002 A 
HETATM   24  C   UNL     1      44.428 -21.897   2.926  1.00  0.00     0.000 A 
HETATM   25  C   UNL     1      44.761 -21.061   3.991  1.00  0.00     0.002 A 
HETATM   26  C   UNL     1      44.342 -19.727   3.997  1.00  0.00     0.031 A 
ENDBRANCH  13  21
ENDBRANCH   7  10
BRANCH   1  27
HETATM   27  C   UNL     1      43.312 -15.036   6.115  1.00  0.00     0.270 C 
HETATM   28  O   UNL     1      42.506 -15.896   6.447  1.00  0.00    -0.265 OA
BRANCH  27  29
HETATM   29  O   UNL     1      44.626 -15.063   6.438  1.00  0.00    -0.321 OA
BRANCH  29  30
HETATM   30  C   UNL     1      45.243 -13.796   6.717  1.00  0.00     0.174 C 
HETATM   31  C   UNL     1      44.882 -13.327   8.114  1.00  0.00     0.034 C 
ENDBRANCH  29  30
ENDBRANCH  27  29
ENDBRANCH   1  27
BRANCH   2  32
HETATM   32  C   UNL     1      40.328 -13.967   5.349  1.00  0.00     0.439 C 
HETATM   33  F   UNL     1      40.508 -15.228   4.905  1.00  0.00    -0.166 F 
HETATM   34  F   UNL     1      39.744 -14.053   6.573  1.00  0.00    -0.166 F 
HETATM   35  F   UNL     1      39.405 -13.398   4.539  1.00  0.00    -0.166 F 
ENDBRANCH   2  32
BRANCH   2  36
HETATM   36  O   UNL     1      41.758 -12.441   6.690  1.00  0.00    -0.363 OA
HETATM   37  H   UNL     1      42.703 -12.443   6.919  1.00  0.00     0.213 HD
ENDBRANCH   2  36
TORSDOF 8
ENDMDL
MODEL 2
REMARK VINA RESULT:      -8.6      2.642      6.140
REMARK  8 active torsions:
REMARK  status: ('A' for Active; 'I' for Inactive)
REMARK    1  A    between atoms: C_2  and  O_3 
REMARK    2  A    between atoms: O_3  and  C_4 
REMARK    3  A    between atoms: C_4  and  C_5 
REMARK    4  A    between atoms: C_6  and  C_8 
REMARK    5  A    between atoms: C_6  and  O_7 
REMARK    6  A    between atoms: C_16  and  C_17 
REMARK    7  A    between atoms: C_18  and  C_19 
REMARK    8  A    between atoms: N_26  and  C_27 
ROOT
HETATM    1  C   UNL     1      42.061 -17.271   6.399  1.00  0.00     0.177 C 
HETATM    2  C   UNL     1      43.396 -17.480   7.130  1.00  0.00     0.250 C 
HETATM    3  N   UNL     1      43.529 -18.908   7.393  1.00  0.00    -0.303 N 
HETATM    4  C   UNL     1      43.446 -19.792   6.367  1.00  0.00     0.319 C 
HETATM    5  O   UNL     1      43.943 -20.906   6.439  1.00  0.00    -0.247 OA
HETATM    6  N   UNL     1      42.806 -19.355   5.259  1.00  0.00    -0.333 N 
HETATM    7  C   UNL     1      41.923 -18.202   5.188  1.00  0.00     0.142 C 
HETATM    8  H   UNL     1      44.205 -19.198   8.091  1.00  0.00     0.167 HD
HETATM    9  H   UNL     1      42.765 -20.044   4.516  1.00  0.00     0.165 HD
ENDROOT
BRANCH   7  10
HETATM   10  C   UNL     1      42.053 -17.632   3.803  1.00  0.00     0.015 A 
HETATM   11  C   UNL     1      42.705 -18.219   2.668  1.00  0.00     0.097 A 
HETATM   12  N   UNL     1      42.593 -17.439   1.585  1.00  0.00    -0.167 NA
HETATM   13  N   UNL     1      41.893 -16.355   1.976  1.00  0.00    -0.244 N 
HETATM   14  C   UNL     1      41.560 -16.438   3.309  1.00  0.00     0.130 A 
BRANCH  11  15
HETATM   15  C   UNL     1      43.418 -19.495   2.554  1.00  0.00    -0.005 A 
HETATM   16  C   UNL     1      42.823 -20.559   1.857  1.00  0.00     0.014 A 
HETATM   17  C   UNL     1      43.485 -21.781   1.719  1.00  0.00     0.001 A 
HETATM   18  C   UNL     1      44.749 -21.953   2.276  1.00  0.00     0.000 A 
HETATM   19  C   UNL     1      45.358 -20.902   2.959  1.00  0.00     0.001 A 
HETATM   20  C   UNL     1      44.700 -19.675   3.089  1.00  0.00     0.014 A 
ENDBRANCH  11  15
BRANCH  13  21
HETATM   21  C   UNL     1      41.580 -15.314   1.056  1.00  0.00     0.058 A 
HETATM   22  C   UNL     1      41.258 -15.643  -0.271  1.00  0.00     0.031 A 
HETATM   23  C   UNL     1      40.943 -14.639  -1.189  1.00  0.00     0.002 A 
HETATM   24  C   UNL     1      40.949 -13.304  -0.794  1.00  0.00     0.000 A 
HETATM   25  C   UNL     1      41.270 -12.968   0.521  1.00  0.00     0.002 A 
HETATM   26  C   UNL     1      41.585 -13.968   1.447  1.00  0.00     0.031 A 
ENDBRANCH  13  21
ENDBRANCH   7  10
BRANCH   1  27
HETATM   27  C   UNL     1      41.601 -15.857   6.126  1.00  0.00     0.270 C 
HETATM   28  O   UNL     1      40.429 -15.572   5.911  1.00  0.00    -0.265 OA
BRANCH  27  29
HETATM   29  O   UNL     1      42.591 -14.945   6.265  1.00  0.00    -0.321 OA
BRANCH  29  30
HETATM   30  C   UNL     1      42.469 -13.745   5.485  1.00  0.00     0.174 C 
HETATM   31  C   UNL     1      43.576 -13.672   4.450  1.00  0.00     0.034 C 
ENDBRANCH  29  30
ENDBRANCH  27  29
ENDBRANCH   1  27
BRANCH   2  32
HETATM   32  C   UNL     1      44.674 -16.913   6.401  1.00  0.00     0.439 C 
HETATM   33  F   UNL     1      44.524 -16.770   5.068  1.00  0.00    -0.166 F 
HETATM   34  F   UNL     1      45.002 -15.692   6.900  1.00  0.00    -0.166 F 
HETATM   35  F   UNL     1      45.763 -17.693   6.588  1.00  0.00    -0.166 F 
ENDBRANCH   2  32
BRANCH   2  36
HETATM   36  O   UNL     1      43.284 -16.953   8.460  1.00  0.00    -0.363 OA
HETATM   37  H   UNL     1      42.929 -17.677   9.004  1.00  0.00     0.213 HD
ENDBRANCH   2  36
TORSDOF 8
ENDMDL
MODEL 3
REMARK VINA RESULT:      -8.6      3.368      7.085
REMARK  8 active torsions:
REMARK  status: ('A' for Active; 'I' for Inactive)
REMARK    1  A    between atoms: C_2  and  O_3 
REMARK    2  A    between atoms: O_3  and  C_4 
REMARK    3  A    between atoms: C_4  and  C_5 
REMARK    4  A    between atoms: C_6  and  C_8 
REMARK    5  A    between atoms: C_6  and  O_7 
REMARK    6  A    between atoms: C_16  and  C_17 
REMARK    7  A    between atoms: C_18  and  C_19 
REMARK    8  A    between atoms: N_26  and  C_27 
ROOT
HETATM    1  C   UNL     1      40.410 -15.820   1.691  1.00  0.00     0.177 C 
HETATM    2  C   UNL     1      41.425 -16.162   2.793  1.00  0.00     0.250 C 
HETATM    3  N   UNL     1      42.207 -17.301   2.325  1.00  0.00    -0.303 N 
HETATM    4  C   UNL     1      42.857 -17.228   1.135  1.00  0.00     0.319 C 
HETATM    5  O   UNL     1      43.822 -17.936   0.889  1.00  0.00    -0.247 OA
HETATM    6  N   UNL     1      42.386 -16.313   0.259  1.00  0.00    -0.333 N 
HETATM    7  C   UNL     1      41.086 -15.667   0.322  1.00  0.00     0.142 C 
HETATM    8  H   UNL     1      42.734 -17.826   3.015  1.00  0.00     0.167 HD
HETATM    9  H   UNL     1      42.897 -16.290  -0.616  1.00  0.00     0.165 HD
ENDROOT
BRANCH   7  10
HETATM   10  C   UNL     1      41.246 -14.294  -0.269  1.00  0.00     0.015 A 
HETATM   11  C   UNL     1      40.644 -13.776  -1.465  1.00  0.00     0.097 A 
HETATM   12  N   UNL     1      40.987 -12.497  -1.667  1.00  0.00    -0.167 NA
HETATM   13  N   UNL     1      41.798 -12.161  -0.644  1.00  0.00    -0.244 N 
HETATM   14  C   UNL     1      41.979 -13.225   0.211  1.00  0.00     0.130 A 
BRANCH  11  15
HETATM   15  C   UNL     1      39.747 -14.431  -2.421  1.00  0.00    -0.005 A 
HETATM   16  C   UNL     1      38.441 -13.944  -2.588  1.00  0.00     0.014 A 
HETATM   17  C   UNL     1      37.568 -14.538  -3.502  1.00  0.00     0.001 A 
HETATM   18  C   UNL     1      37.991 -15.627  -4.260  1.00  0.00     0.000 A 
HETATM   19  C   UNL     1      39.289 -16.113  -4.115  1.00  0.00     0.001 A 
HETATM   20  C   UNL     1      40.167 -15.512  -3.207  1.00  0.00     0.014 A 
ENDBRANCH  11  15
BRANCH  13  21
HETATM   21  C   UNL     1      42.342 -10.849  -0.541  1.00  0.00     0.058 A 
HETATM   22  C   UNL     1      43.470 -10.511  -1.305  1.00  0.00     0.031 A 
HETATM   23  C   UNL     1      44.018  -9.229  -1.224  1.00  0.00     0.002 A 
HETATM   24  C   UNL     1      43.449  -8.278  -0.382  1.00  0.00     0.000 A 
HETATM   25  C   UNL     1      42.329  -8.606   0.383  1.00  0.00     0.002 A 
HETATM   26  C   UNL     1      41.774  -9.887   0.306  1.00  0.00     0.031 A 
ENDBRANCH  13  21
ENDBRANCH   7  10
BRANCH   1  27
HETATM   27  C   UNL     1      39.370 -14.759   1.971  1.00  0.00     0.270 C 
HETATM   28  O   UNL     1      39.331 -14.131   3.021  1.00  0.00    -0.265 OA
BRANCH  27  29
HETATM   29  O   UNL     1      38.580 -14.502   0.903  1.00  0.00    -0.321 OA
BRANCH  29  30
HETATM   30  C   UNL     1      37.606 -13.460   1.064  1.00  0.00     0.174 C 
HETATM   31  C   UNL     1      38.180 -12.125   0.626  1.00  0.00     0.034 C 
ENDBRANCH  29  30
ENDBRANCH  27  29
ENDBRANCH   1  27
BRANCH   2  32
HETATM   32  C   UNL     1      42.359 -14.980   3.255  1.00  0.00     0.439 C 
HETATM   33  F   UNL     1      41.882 -13.755   2.954  1.00  0.00    -0.166 F 
HETATM   34  F   UNL     1      42.541 -15.019   4.602  1.00  0.00    -0.166 F 
HETATM   35  F   UNL     1      43.597 -15.058   2.714  1.00  0.00    -0.166 F 
ENDBRANCH   2  32
BRANCH   2  36
HETATM   36  O   UNL     1      40.724 -16.734   3.907  1.00  0.00    -0.363 OA
HETATM   37  H   UNL     1      39.919 -17.135   3.537  1.00  0.00     0.213 HD
ENDBRANCH   2  36
TORSDOF 8
ENDMDL
MODEL 4
REMARK VINA RESULT:      -8.4      1.986      5.461
REMARK  8 active torsions:
REMARK  status: ('A' for Active; 'I' for Inactive)
REMARK    1  A    between atoms: C_2  and  O_3 
REMARK    2  A    between atoms: O_3  and  C_4 
REMARK    3  A    between atoms: C_4  and  C_5 
REMARK    4  A    between atoms: C_6  and  C_8 
REMARK    5  A    between atoms: C_6  and  O_7 
REMARK    6  A    between atoms: C_16  and  C_17 
REMARK    7  A    between atoms: C_18  and  C_19 
REMARK    8  A    between atoms: N_26  and  C_27 
ROOT
HETATM    1  C   UNL     1      42.861 -17.038   5.404  1.00  0.00     0.177 C 
HETATM    2  C   UNL     1      42.259 -15.980   6.340  1.00  0.00     0.250 C 
HETATM    3  N   UNL     1      43.312 -15.015   6.640  1.00  0.00    -0.303 N 
HETATM    4  C   UNL     1      43.960 -14.389   5.625  1.00  0.00     0.319 C 
HETATM    5  O   UNL     1      44.523 -13.317   5.791  1.00  0.00    -0.247 OA
HETATM    6  N   UNL     1      43.918 -15.008   4.425  1.00  0.00    -0.333 N 
HETATM    7  C   UNL     1      43.564 -16.400   4.199  1.00  0.00     0.142 C 
HETATM    8  H   UNL     1      43.180 -14.407   7.441  1.00  0.00     0.167 HD
HETATM    9  H   UNL     1      44.414 -14.509   3.694  1.00  0.00     0.165 HD
ENDROOT
BRANCH   7  10
HETATM   10  C   UNL     1      42.916 -16.476   2.844  1.00  0.00     0.015 A 
HETATM   11  C   UNL     1      42.861 -17.603   1.958  1.00  0.00     0.097 A 
HETATM   12  N   UNL     1      42.170 -17.316   0.848  1.00  0.00    -0.167 NA
HETATM   13  N   UNL     1      41.773 -16.034   0.975  1.00  0.00    -0.244 N 
HETATM   14  C   UNL     1      42.214 -15.498   2.164  1.00  0.00     0.130 A 
BRANCH  11  15
HETATM   15  C   UNL     1      43.422 -18.948   2.118  1.00  0.00    -0.005 A 
HETATM   16  C   UNL     1      42.682 -20.061   1.687  1.00  0.00     0.014 A 
HETATM   17  C   UNL     1      43.196 -21.353   1.813  1.00  0.00     0.001 A 
HETATM   18  C   UNL     1      44.457 -21.548   2.372  1.00  0.00     0.000 A 
HETATM   19  C   UNL     1      45.208 -20.452   2.792  1.00  0.00     0.001 A 
HETATM   20  C   UNL     1      44.698 -19.158   2.658  1.00  0.00     0.014 A 
ENDBRANCH  11  15
BRANCH  13  21
HETATM   21  C   UNL     1      40.995 -15.403  -0.037  1.00  0.00     0.058 A 
HETATM   22  C   UNL     1      41.203 -15.753  -1.381  1.00  0.00     0.031 A 
HETATM   23  C   UNL     1      40.448 -15.151  -2.391  1.00  0.00     0.002 A 
HETATM   24  C   UNL     1      39.486 -14.198  -2.069  1.00  0.00     0.000 A 
HETATM   25  C   UNL     1      39.276 -13.842  -0.738  1.00  0.00     0.002 A 
HETATM   26  C   UNL     1      40.026 -14.442   0.279  1.00  0.00     0.031 A 
ENDBRANCH  13  21
ENDBRANCH   7  10
BRANCH   1  27
HETATM   27  C   UNL     1      42.023 -18.244   5.042  1.00  0.00     0.270 C 
HETATM   28  O   UNL     1      40.899 -18.150   4.566  1.00  0.00    -0.265 OA
BRANCH  27  29
HETATM   29  O   UNL     1      42.691 -19.412   5.187  1.00  0.00    -0.321 OA
BRANCH  29  30
HETATM   30  C   UNL     1      43.618 -19.487   6.281  1.00  0.00     0.174 C 
HETATM   31  C   UNL     1      43.925 -20.935   6.617  1.00  0.00     0.034 C 
ENDBRANCH  29  30
ENDBRANCH  27  29
ENDBRANCH   1  27
BRANCH   2  32
HETATM   32  C   UNL     1      40.959 -15.260   5.815  1.00  0.00     0.439 C 
HETATM   33  F   UNL     1      40.859 -15.224   4.471  1.00  0.00    -0.166 F 
HETATM   34  F   UNL     1      39.848 -15.887   6.283  1.00  0.00    -0.166 F 
HETATM   35  F   UNL     1      40.868 -13.980   6.245  1.00  0.00    -0.166 F 
ENDBRANCH   2  32
BRANCH   2  36
HETATM   36  O   UNL     1      42.038 -16.572   7.628  1.00  0.00    -0.363 OA
HETATM   37  H   UNL     1      42.862 -17.038   7.852  1.00  0.00     0.213 HD
ENDBRANCH   2  36
TORSDOF 8
ENDMDL
MODEL 5
REMARK VINA RESULT:      -8.3      3.032      7.245
REMARK  8 active torsions:
REMARK  status: ('A' for Active; 'I' for Inactive)
REMARK    1  A    between atoms: C_2  and  O_3 
REMARK    2  A    between atoms: O_3  and  C_4 
REMARK    3  A    between atoms: C_4  and  C_5 
REMARK    4  A    between atoms: C_6  and  C_8 
REMARK    5  A    between atoms: C_6  and  O_7 
REMARK    6  A    between atoms: C_16  and  C_17 
REMARK    7  A    between atoms: C_18  and  C_19 
REMARK    8  A    between atoms: N_26  and  C_27 
ROOT
HETATM    1  C   UNL     1      41.726 -15.248   2.217  1.00  0.00     0.177 C 
HETATM    2  C   UNL     1      41.350 -14.694   0.835  1.00  0.00     0.250 C 
HETATM    3  N   UNL     1      39.958 -15.055   0.586  1.00  0.00    -0.303 N 
HETATM    4  C   UNL     1      39.001 -14.699   1.479  1.00  0.00     0.319 C 
HETATM    5  O   UNL     1      37.827 -14.596   1.153  1.00  0.00    -0.247 OA
HETATM    6  N   UNL     1      39.429 -14.442   2.735  1.00  0.00    -0.333 N 
HETATM    7  C   UNL     1      40.712 -14.836   3.292  1.00  0.00     0.142 C 
HETATM    8  H   UNL     1      39.623 -15.009  -0.370  1.00  0.00     0.167 HD
HETATM    9  H   UNL     1      38.684 -14.179   3.371  1.00  0.00     0.165 HD
ENDROOT
BRANCH   7  10
HETATM   10  C   UNL     1      41.096 -13.788   4.301  1.00  0.00     0.015 A 
HETATM   11  C   UNL     1      41.852 -13.966   5.507  1.00  0.00     0.097 A 
HETATM   12  N   UNL     1      42.030 -12.801   6.145  1.00  0.00    -0.167 NA
HETATM   13  N   UNL     1      41.410 -11.866   5.397  1.00  0.00    -0.244 N 
HETATM   14  C   UNL     1      40.830 -12.431   4.283  1.00  0.00     0.130 A 
BRANCH  11  15
HETATM   15  C   UNL     1      42.429 -15.185   6.080  1.00  0.00    -0.005 A 
HETATM   16  C   UNL     1      43.815 -15.261   6.290  1.00  0.00     0.014 A 
HETATM   17  C   UNL     1      44.392 -16.404   6.848  1.00  0.00     0.001 A 
HETATM   18  C   UNL     1      43.589 -17.485   7.203  1.00  0.00     0.000 A 
HETATM   19  C   UNL     1      42.210 -17.419   7.012  1.00  0.00     0.001 A 
HETATM   20  C   UNL     1      41.631 -16.271   6.463  1.00  0.00     0.014 A 
ENDBRANCH  11  15
BRANCH  13  21
HETATM   21  C   UNL     1      41.414 -10.497   5.786  1.00  0.00     0.058 A 
HETATM   22  C   UNL     1      41.416 -10.169   7.151  1.00  0.00     0.031 A 
HETATM   23  C   UNL     1      41.424  -8.832   7.555  1.00  0.00     0.002 A 
HETATM   24  C   UNL     1      41.428  -7.815   6.604  1.00  0.00     0.000 A 
HETATM   25  C   UNL     1      41.424  -8.131   5.246  1.00  0.00     0.002 A 
HETATM   26  C   UNL     1      41.417  -9.467   4.834  1.00  0.00     0.031 A 
ENDBRANCH  13  21
ENDBRANCH   7  10
BRANCH   1  27
HETATM   27  C   UNL     1      43.164 -15.139   2.673  1.00  0.00     0.270 C 
HETATM   28  O   UNL     1      43.712 -14.064   2.882  1.00  0.00    -0.265 OA
BRANCH  27  29
HETATM   29  O   UNL     1      43.726 -16.341   2.935  1.00  0.00    -0.321 OA
BRANCH  29  30
HETATM   30  C   UNL     1      42.846 -17.476   2.918  1.00  0.00     0.174 C 
HETATM   31  C   UNL     1      43.471 -18.642   3.663  1.00  0.00     0.034 C 
ENDBRANCH  29  30
ENDBRANCH  27  29
ENDBRANCH   1  27
BRANCH   2  32
HETATM   32  C   UNL     1      41.584 -13.149   0.628  1.00  0.00     0.439 C 
HETATM   33  F   UNL     1      42.332 -12.575   1.593  1.00  0.00    -0.166 F 
HETATM   34  F   UNL     1      42.211 -12.919  -0.555  1.00  0.00    -0.166 F 
HETATM   35  F   UNL     1      40.424 -12.454   0.572  1.00  0.00    -0.166 F 
ENDBRANCH   2  32
BRANCH   2  36
HETATM   36  O   UNL     1      42.028 -15.459  -0.171  1.00  0.00    -0.363 OA
HETATM   37  H   UNL     1      41.532 -15.316  -0.995  1.00  0.00     0.213 HD
ENDBRANCH   2  36
TORSDOF 8
ENDMDL
MODEL 6
REMARK VINA RESULT:      -8.2      3.259      5.339
REMARK  8 active torsions:
REMARK  status: ('A' for Active; 'I' for Inactive)
REMARK    1  A    between atoms: C_2  and  O_3 
REMARK    2  A    between atoms: O_3  and  C_4 
REMARK    3  A    between atoms: C_4  and  C_5 
REMARK    4  A    between atoms: C_6  and  C_8 
REMARK    5  A    between atoms: C_6  and  O_7 
REMARK    6  A    between atoms: C_16  and  C_17 
REMARK    7  A    between atoms: C_18  and  C_19 
REMARK    8  A    between atoms: N_26  and  C_27 
ROOT
HETATM    1  C   UNL     1      40.001 -12.718   0.816  1.00  0.00     0.177 C 
HETATM    2  C   UNL     1      40.146 -12.894  -0.703  1.00  0.00     0.250 C 
HETATM    3  N   UNL     1      41.125 -11.916  -1.163  1.00  0.00    -0.303 N 
HETATM    4  C   UNL     1      42.361 -11.886  -0.603  1.00  0.00     0.319 C 
HETATM    5  O   UNL     1      43.319 -11.409  -1.192  1.00  0.00    -0.247 OA
HETATM    6  N   UNL     1      42.467 -12.437   0.627  1.00  0.00    -0.333 N 
HETATM    7  C   UNL     1      41.362 -12.732   1.524  1.00  0.00     0.142 C 
HETATM    8  H   UNL     1      41.151 -11.705  -2.154  1.00  0.00     0.167 HD
HETATM    9  H   UNL     1      43.405 -12.395   1.010  1.00  0.00     0.165 HD
ENDROOT
BRANCH   7  10
HETATM   10  C   UNL     1      41.759 -13.936   2.332  1.00  0.00     0.015 A 
HETATM   11  C   UNL     1      41.587 -14.144   3.742  1.00  0.00     0.097 A 
HETATM   12  N   UNL     1      42.030 -15.352   4.113  1.00  0.00    -0.167 NA
HETATM   13  N   UNL     1      42.491 -15.942   2.991  1.00  0.00    -0.244 N 
HETATM   14  C   UNL     1      42.348 -15.111   1.903  1.00  0.00     0.130 A 
BRANCH  11  15
HETATM   15  C   UNL     1      41.010 -13.256   4.756  1.00  0.00    -0.005 A 
HETATM   16  C   UNL     1      39.829 -13.636   5.414  1.00  0.00     0.014 A 
HETATM   17  C   UNL     1      39.264 -12.819   6.395  1.00  0.00     0.001 A 
HETATM   18  C   UNL     1      39.873 -11.611   6.729  1.00  0.00     0.000 A 
HETATM   19  C   UNL     1      41.052 -11.228   6.094  1.00  0.00     0.001 A 
HETATM   20  C   UNL     1      41.624 -12.050   5.119  1.00  0.00     0.014 A 
ENDBRANCH  11  15
BRANCH  13  21
HETATM   21  C   UNL     1      43.031 -17.259   3.025  1.00  0.00     0.058 A 
HETATM   22  C   UNL     1      43.058 -18.021   1.847  1.00  0.00     0.031 A 
HETATM   23  C   UNL     1      43.587 -19.314   1.855  1.00  0.00     0.002 A 
HETATM   24  C   UNL     1      44.089 -19.855   3.036  1.00  0.00     0.000 A 
HETATM   25  C   UNL     1      44.063 -19.107   4.212  1.00  0.00     0.002 A 
HETATM   26  C   UNL     1      43.537 -17.811   4.211  1.00  0.00     0.031 A 
ENDBRANCH  13  21
ENDBRANCH   7  10
BRANCH   1  27
HETATM   27  C   UNL     1      38.940 -13.518   1.538  1.00  0.00     0.270 C 
HETATM   28  O   UNL     1      38.759 -14.712   1.338  1.00  0.00    -0.265 OA
BRANCH  27  29
HETATM   29  O   UNL     1      38.308 -12.806   2.500  1.00  0.00    -0.321 OA
BRANCH  29  30
HETATM   30  C   UNL     1      38.088 -11.413   2.225  1.00  0.00     0.174 C 
HETATM   31  C   UNL     1      38.277 -10.589   3.485  1.00  0.00     0.034 C 
ENDBRANCH  29  30
ENDBRANCH  27  29
ENDBRANCH   1  27
BRANCH   2  32
HETATM   32  C   UNL     1      40.517 -14.346  -1.192  1.00  0.00     0.439 C 
HETATM   33  F   UNL     1      40.646 -15.244  -0.195  1.00  0.00    -0.166 F 
HETATM   34  F   UNL     1      39.563 -14.820  -2.037  1.00  0.00    -0.166 F 
HETATM   35  F   UNL     1      41.675 -14.374  -1.892  1.00  0.00    -0.166 F 
ENDBRANCH   2  32
BRANCH   2  36
HETATM   36  O   UNL     1      38.949 -12.424  -1.340  1.00  0.00    -0.363 OA
HETATM   37  H   UNL     1      38.308 -12.275  -0.625  1.00  0.00     0.213 HD
ENDBRANCH   2  36
TORSDOF 8
ENDMDL
MODEL 7
REMARK VINA RESULT:      -8.1      2.008      3.519
REMARK  8 active torsions:
REMARK  status: ('A' for Active; 'I' for Inactive)
REMARK    1  A    between atoms: C_2  and  O_3 
REMARK    2  A    between atoms: O_3  and  C_4 
REMARK    3  A    between atoms: C_4  and  C_5 
REMARK    4  A    between atoms: C_6  and  C_8 
REMARK    5  A    between atoms: C_6  and  O_7 
REMARK    6  A    between atoms: C_16  and  C_17 
REMARK    7  A    between atoms: C_18  and  C_19 
REMARK    8  A    between atoms: N_26  and  C_27 
ROOT
HETATM    1  C   UNL     1      41.115 -12.827   3.292  1.00  0.00     0.177 C 
HETATM    2  C   UNL     1      41.520 -12.425   4.718  1.00  0.00     0.250 C 
HETATM    3  N   UNL     1      40.319 -12.480   5.543  1.00  0.00    -0.303 N 
HETATM    4  C   UNL     1      39.590 -13.624   5.597  1.00  0.00     0.319 C 
HETATM    5  O   UNL     1      38.855 -13.871   6.541  1.00  0.00    -0.247 OA
HETATM    6  N   UNL     1      39.751 -14.477   4.561  1.00  0.00    -0.333 N 
HETATM    7  C   UNL     1      40.334 -14.146   3.271  1.00  0.00     0.142 C 
HETATM    8  H   UNL     1      40.337 -11.998   6.435  1.00  0.00     0.167 HD
HETATM    9  H   UNL     1      39.190 -15.319   4.638  1.00  0.00     0.165 HD
ENDROOT
BRANCH   7  10
HETATM   10  C   UNL     1      41.005 -15.391   2.758  1.00  0.00     0.015 A 
HETATM   11  C   UNL     1      41.088 -15.848   1.400  1.00  0.00     0.097 A 
HETATM   12  N   UNL     1      41.794 -16.983   1.313  1.00  0.00    -0.167 NA
HETATM   13  N   UNL     1      42.172 -17.287   2.570  1.00  0.00    -0.244 N 
HETATM   14  C   UNL     1      41.705 -16.351   3.465  1.00  0.00     0.130 A 
BRANCH  11  15
HETATM   15  C   UNL     1      40.543 -15.253   0.177  1.00  0.00    -0.005 A 
HETATM   16  C   UNL     1      41.141 -15.546  -1.059  1.00  0.00     0.014 A 
HETATM   17  C   UNL     1      40.635 -15.007  -2.244  1.00  0.00     0.001 A 
HETATM   18  C   UNL     1      39.524 -14.167  -2.206  1.00  0.00     0.000 A 
HETATM   19  C   UNL     1      38.913 -13.878  -0.988  1.00  0.00     0.001 A 
HETATM   20  C   UNL     1      39.413 -14.425   0.197  1.00  0.00     0.014 A 
ENDBRANCH  11  15
BRANCH  13  21
HETATM   21  C   UNL     1      42.957 -18.444   2.840  1.00  0.00     0.058 A 
HETATM   22  C   UNL     1      43.012 -19.474   1.888  1.00  0.00     0.031 A 
HETATM   23  C   UNL     1      43.780 -20.616   2.129  1.00  0.00     0.002 A 
HETATM   24  C   UNL     1      44.495 -20.739   3.318  1.00  0.00     0.000 A 
HETATM   25  C   UNL     1      44.444 -19.722   4.270  1.00  0.00     0.002 A 
HETATM   26  C   UNL     1      43.679 -18.574   4.035  1.00  0.00     0.031 A 
ENDBRANCH  13  21
ENDBRANCH   7  10
BRANCH   1  27
HETATM   27  C   UNL     1      42.147 -12.721   2.191  1.00  0.00     0.270 C 
HETATM   28  O   UNL     1      43.128 -13.452   2.130  1.00  0.00    -0.265 OA
BRANCH  27  29
HETATM   29  O   UNL     1      41.805 -11.828   1.234  1.00  0.00    -0.321 OA
BRANCH  29  30
HETATM   30  C   UNL     1      42.303 -12.085  -0.088  1.00  0.00     0.174 C 
HETATM   31  C   UNL     1      41.590 -11.210  -1.103  1.00  0.00     0.034 C 
ENDBRANCH  29  30
ENDBRANCH  27  29
ENDBRANCH   1  27
BRANCH   2  32
HETATM   32  C   UNL     1      42.691 -13.264   5.360  1.00  0.00     0.439 C 
HETATM   33  F   UNL     1      43.810 -13.306   4.609  1.00  0.00    -0.166 F 
HETATM   34  F   UNL     1      43.038 -12.746   6.568  1.00  0.00    -0.166 F 
HETATM   35  F   UNL     1      42.335 -14.548   5.599  1.00  0.00    -0.166 F 
ENDBRANCH   2  32
BRANCH   2  36
HETATM   36  O   UNL     1      41.818 -11.022   4.738  1.00  0.00    -0.363 OA
HETATM   37  H   UNL     1      42.326 -10.847   3.928  1.00  0.00     0.213 HD
ENDBRANCH   2  36
TORSDOF 8
ENDMDL
MODEL 8
REMARK VINA RESULT:      -8.1      2.016      4.685
REMARK  8 active torsions:
REMARK  status: ('A' for Active; 'I' for Inactive)
REMARK    1  A    between atoms: C_2  and  O_3 
REMARK    2  A    between atoms: O_3  and  C_4 
REMARK    3  A    between atoms: C_4  and  C_5 
REMARK    4  A    between atoms: C_6  and  C_8 
REMARK    5  A    between atoms: C_6  and  O_7 
REMARK    6  A    between atoms: C_16  and  C_17 
REMARK    7  A    between atoms: C_18  and  C_19 
REMARK    8  A    between atoms: N_26  and  C_27 
ROOT
HETATM    1  C   UNL     1      40.593 -12.978   4.025  1.00  0.00     0.177 C 
HETATM    2  C   UNL     1      39.898 -13.091   2.660  1.00  0.00     0.250 C 
HETATM    3  N   UNL     1      40.549 -12.144   1.761  1.00  0.00    -0.303 N 
HETATM    4  C   UNL     1      41.893 -12.205   1.578  1.00  0.00     0.319 C 
HETATM    5  O   UNL     1      42.423 -11.752   0.575  1.00  0.00    -0.247 OA
HETATM    6  N   UNL     1      42.596 -12.818   2.556  1.00  0.00    -0.333 N 
HETATM    7  C   UNL     1      42.117 -13.095   3.900  1.00  0.00     0.142 C 
HETATM    8  H   UNL     1      40.060 -11.890   0.910  1.00  0.00     0.167 HD
HETATM    9  H   UNL     1      43.595 -12.843   2.383  1.00  0.00     0.165 HD
ENDROOT
BRANCH   7  10
HETATM   10  C   UNL     1      42.798 -14.355   4.360  1.00  0.00     0.015 A 
HETATM   11  C   UNL     1      43.519 -14.568   5.582  1.00  0.00     0.097 A 
HETATM   12  N   UNL     1      43.963 -15.828   5.671  1.00  0.00    -0.167 NA
HETATM   13  N   UNL     1      43.559 -16.448   4.544  1.00  0.00    -0.244 N 
HETATM   14  C   UNL     1      42.862 -15.584   3.730  1.00  0.00     0.130 A 
BRANCH  11  15
HETATM   15  C   UNL     1      43.797 -13.637   6.680  1.00  0.00    -0.005 A 
HETATM   16  C   UNL     1      45.011 -13.737   7.379  1.00  0.00     0.014 A 
HETATM   17  C   UNL     1      45.310 -12.855   8.420  1.00  0.00     0.001 A 
HETATM   18  C   UNL     1      44.399 -11.863   8.773  1.00  0.00     0.000 A 
HETATM   19  C   UNL     1      43.197 -11.743   8.079  1.00  0.00     0.001 A 
HETATM   20  C   UNL     1      42.900 -12.620   7.031  1.00  0.00     0.014 A 
ENDBRANCH  11  15
BRANCH  13  21
HETATM   21  C   UNL     1      43.857 -17.821   4.315  1.00  0.00     0.058 A 
HETATM   22  C   UNL     1      43.654 -18.366   3.037  1.00  0.00     0.031 A 
HETATM   23  C   UNL     1      43.944 -19.709   2.789  1.00  0.00     0.002 A 
HETATM   24  C   UNL     1      44.434 -20.518   3.811  1.00  0.00     0.000 A 
HETATM   25  C   UNL     1      44.636 -19.987   5.084  1.00  0.00     0.002 A 
HETATM   26  C   UNL     1      44.350 -18.642   5.340  1.00  0.00     0.031 A 
ENDBRANCH  13  21
ENDBRANCH   7  10
BRANCH   1  27
HETATM   27  C   UNL     1      40.023 -13.753   5.192  1.00  0.00     0.270 C 
HETATM   28  O   UNL     1      40.455 -14.846   5.535  1.00  0.00    -0.265 OA
BRANCH  27  29
HETATM   29  O   UNL     1      39.083 -13.061   5.875  1.00  0.00    -0.321 OA
BRANCH  29  30
HETATM   30  C   UNL     1      39.450 -11.743   6.313  1.00  0.00     0.174 C 
HETATM   31  C   UNL     1      39.420 -11.662   7.828  1.00  0.00     0.034 C 
ENDBRANCH  29  30
ENDBRANCH  27  29
ENDBRANCH   1  27
BRANCH   2  32
HETATM   32  C   UNL     1      39.852 -14.535   2.031  1.00  0.00     0.439 C 
HETATM   33  F   UNL     1      39.860 -15.529   2.942  1.00  0.00    -0.166 F 
HETATM   34  F   UNL     1      38.731 -14.690   1.279  1.00  0.00    -0.166 F 
HETATM   35  F   UNL     1      40.891 -14.767   1.195  1.00  0.00    -0.166 F 
ENDBRANCH   2  32
BRANCH   2  36
HETATM   36  O   UNL     1      38.581 -12.530   2.762  1.00  0.00    -0.363 OA
HETATM   37  H   UNL     1      38.597 -11.956   3.547  1.00  0.00     0.213 HD
ENDBRANCH   2  36
TORSDOF 8
ENDMDL
MODEL 9
REMARK VINA RESULT:      -7.8      2.277      5.923
REMARK  8 active torsions:
REMARK  status: ('A' for Active; 'I' for Inactive)
REMARK    1  A    between atoms: C_2  and  O_3 
REMARK    2  A    between atoms: O_3  and  C_4 
REMARK    3  A    between atoms: C_4  and  C_5 
REMARK    4  A    between atoms: C_6  and  C_8 
REMARK    5  A    between atoms: C_6  and  O_7 
REMARK    6  A    between atoms: C_16  and  C_17 
REMARK    7  A    between atoms: C_18  and  C_19 
REMARK    8  A    between atoms: N_26  and  C_27 
ROOT
HETATM    1  C   UNL     1      42.408 -17.164   6.537  1.00  0.00     0.177 C 
HETATM    2  C   UNL     1      43.587 -16.323   7.050  1.00  0.00     0.250 C 
HETATM    3  N   UNL     1      44.721 -17.224   7.223  1.00  0.00    -0.303 N 
HETATM    4  C   UNL     1      45.142 -17.983   6.180  1.00  0.00     0.319 C 
HETATM    5  O   UNL     1      46.283 -18.418   6.124  1.00  0.00    -0.247 OA
HETATM    6  N   UNL     1      44.235 -18.202   5.202  1.00  0.00    -0.333 N 
HETATM    7  C   UNL     1      42.799 -18.009   5.318  1.00  0.00     0.142 C 
HETATM    8  H   UNL     1      45.493 -16.905   7.798  1.00  0.00     0.167 HD
HETATM    9  H   UNL     1      44.588 -18.772   4.442  1.00  0.00     0.165 HD
ENDROOT
BRANCH   7  10
HETATM   10  C   UNL     1      42.295 -17.613   3.957  1.00  0.00     0.015 A 
HETATM   11  C   UNL     1      42.482 -18.307   2.715  1.00  0.00     0.097 A 
HETATM   12  N   UNL     1      41.862 -17.677   1.709  1.00  0.00    -0.167 NA
HETATM   13  N   UNL     1      41.279 -16.589   2.251  1.00  0.00    -0.244 N 
HETATM   14  C   UNL     1      41.528 -16.519   3.603  1.00  0.00     0.130 A 
BRANCH  11  15
HETATM   15  C   UNL     1      43.209 -19.549   2.436  1.00  0.00    -0.005 A 
HETATM   16  C   UNL     1      44.549 -19.669   2.834  1.00  0.00     0.014 A 
HETATM   17  C   UNL     1      45.263 -20.845   2.595  1.00  0.00     0.001 A 
HETATM   18  C   UNL     1      44.644 -21.916   1.956  1.00  0.00     0.000 A 
HETATM   19  C   UNL     1      43.309 -21.817   1.568  1.00  0.00     0.001 A 
HETATM   20  C   UNL     1      42.591 -20.643   1.815  1.00  0.00     0.014 A 
ENDBRANCH  11  15
BRANCH  13  21
HETATM   21  C   UNL     1      40.517 -15.691   1.451  1.00  0.00     0.058 A 
HETATM   22  C   UNL     1      39.280 -15.227   1.926  1.00  0.00     0.031 A 
HETATM   23  C   UNL     1      38.518 -14.341   1.160  1.00  0.00     0.002 A 
HETATM   24  C   UNL     1      38.981 -13.916  -0.082  1.00  0.00     0.000 A 
HETATM   25  C   UNL     1      40.206 -14.374  -0.563  1.00  0.00     0.002 A 
HETATM   26  C   UNL     1      40.976 -15.259   0.199  1.00  0.00     0.031 A 
ENDBRANCH  13  21
ENDBRANCH   7  10
BRANCH   1  27
HETATM   27  C   UNL     1      41.054 -16.504   6.403  1.00  0.00     0.270 C 
HETATM   28  O   UNL     1      40.004 -17.132   6.445  1.00  0.00    -0.265 OA
BRANCH  27  29
HETATM   29  O   UNL     1      41.129 -15.154   6.356  1.00  0.00    -0.321 OA
BRANCH  29  30
HETATM   30  C   UNL     1      39.960 -14.464   5.886  1.00  0.00     0.174 C 
HETATM   31  C   UNL     1      40.352 -13.331   4.956  1.00  0.00     0.034 C 
ENDBRANCH  29  30
ENDBRANCH  27  29
ENDBRANCH   1  27
BRANCH   2  32
HETATM   32  C   UNL     1      43.977 -15.078   6.166  1.00  0.00     0.439 C 
HETATM   33  F   UNL     1      43.282 -13.960   6.457  1.00  0.00    -0.166 F 
HETATM   34  F   UNL     1      45.295 -14.782   6.320  1.00  0.00    -0.166 F 
HETATM   35  F   UNL     1      43.803 -15.309   4.844  1.00  0.00    -0.166 F 
ENDBRANCH   2  32
BRANCH   2  36
HETATM   36  O   UNL     1      43.323 -15.932   8.405  1.00  0.00    -0.363 OA
HETATM   37  H   UNL     1      43.320 -16.755   8.924  1.00  0.00     0.213 HD
ENDBRANCH   2  36
TORSDOF 8
ENDMDL
MODEL 10
REMARK VINA RESULT:      -7.7      2.746      6.688
REMARK  8 active torsions:
REMARK  status: ('A' for Active; 'I' for Inactive)
REMARK    1  A    between atoms: C_2  and  O_3 
REMARK    2  A    between atoms: O_3  and  C_4 
REMARK    3  A    between atoms: C_4  and  C_5 
REMARK    4  A    between atoms: C_6  and  C_8 
REMARK    5  A    between atoms: C_6  and  O_7 
REMARK    6  A    between atoms: C_16  and  C_17 
REMARK    7  A    between atoms: C_18  and  C_19 
REMARK    8  A    between atoms: N_26  and  C_27 
ROOT
HETATM    1  C   UNL     1      41.814 -15.312   3.683  1.00  0.00     0.177 C 
HETATM    2  C   UNL     1      41.110 -14.091   3.073  1.00  0.00     0.250 C 
HETATM    3  N   UNL     1      39.746 -14.072   3.590  1.00  0.00    -0.303 N 
HETATM    4  C   UNL     1      39.534 -14.080   4.930  1.00  0.00     0.319 C 
HETATM    5  O   UNL     1      38.494 -13.660   5.416  1.00  0.00    -0.247 OA
HETATM    6  N   UNL     1      40.548 -14.555   5.688  1.00  0.00    -0.333 N 
HETATM    7  C   UNL     1      41.662 -15.355   5.209  1.00  0.00     0.142 C 
HETATM    8  H   UNL     1      39.064 -13.504   3.100  1.00  0.00     0.167 HD
HETATM    9  H   UNL     1      40.350 -14.545   6.682  1.00  0.00     0.165 HD
ENDROOT
BRANCH   7  10
HETATM   10  C   UNL     1      42.847 -15.026   6.075  1.00  0.00     0.015 A 
HETATM   11  C   UNL     1      43.819 -15.932   6.617  1.00  0.00     0.097 A 
HETATM   12  N   UNL     1      44.755 -15.279   7.316  1.00  0.00    -0.167 NA
HETATM   13  N   UNL     1      44.426 -13.973   7.255  1.00  0.00    -0.244 N 
HETATM   14  C   UNL     1      43.276 -13.789   6.520  1.00  0.00     0.130 A 
BRANCH  11  15
HETATM   15  C   UNL     1      43.912 -17.390   6.492  1.00  0.00    -0.005 A 
HETATM   16  C   UNL     1      44.742 -17.946   5.507  1.00  0.00     0.014 A 
HETATM   17  C   UNL     1      44.864 -19.331   5.373  1.00  0.00     0.001 A 
HETATM   18  C   UNL     1      44.155 -20.176   6.224  1.00  0.00     0.000 A 
HETATM   19  C   UNL     1      43.337 -19.637   7.216  1.00  0.00     0.001 A 
HETATM   20  C   UNL     1      43.223 -18.251   7.356  1.00  0.00     0.014 A 
ENDBRANCH  11  15
BRANCH  13  21
HETATM   21  C   UNL     1      45.228 -12.984   7.892  1.00  0.00     0.058 A 
HETATM   22  C   UNL     1      44.718 -12.297   9.005  1.00  0.00     0.031 A 
HETATM   23  C   UNL     1      45.489 -11.326   9.648  1.00  0.00     0.002 A 
HETATM   24  C   UNL     1      46.769 -11.033   9.187  1.00  0.00     0.000 A 
HETATM   25  C   UNL     1      47.283 -11.708   8.081  1.00  0.00     0.002 A 
HETATM   26  C   UNL     1      46.518 -12.683   7.432  1.00  0.00     0.031 A 
ENDBRANCH  13  21
ENDBRANCH   7  10
BRANCH   1  27
HETATM   27  C   UNL     1      43.208 -15.655   3.207  1.00  0.00     0.270 C 
HETATM   28  O   UNL     1      44.100 -14.821   3.115  1.00  0.00    -0.265 OA
BRANCH  27  29
HETATM   29  O   UNL     1      43.387 -16.982   3.016  1.00  0.00    -0.321 OA
BRANCH  29  30
HETATM   30  C   UNL     1      42.453 -17.635   2.142  1.00  0.00     0.174 C 
HETATM   31  C   UNL     1      42.711 -17.239   0.700  1.00  0.00     0.034 C 
ENDBRANCH  29  30
ENDBRANCH  27  29
ENDBRANCH   1  27
BRANCH   2  32
HETATM   32  C   UNL     1      41.824 -12.704   3.301  1.00  0.00     0.439 C 
HETATM   33  F   UNL     1      42.910 -12.771   4.098  1.00  0.00    -0.166 F 
HETATM   34  F   UNL     1      42.230 -12.180   2.114  1.00  0.00    -0.166 F 
HETATM   35  F   UNL     1      40.998 -11.782   3.848  1.00  0.00    -0.166 F 
ENDBRANCH   2  32
BRANCH   2  36
HETATM   36  O   UNL     1      40.885 -14.334   1.678  1.00  0.00    -0.363 OA
HETATM   37  H   UNL     1      41.596 -14.933   1.394  1.00  0.00     0.213 HD
ENDBRANCH   2  36
TORSDOF 8
ENDMDL
