MODEL 1
REMARK VINA RESULT:      -8.4      0.000      0.000
REMARK  9 active torsions:
REMARK  status: ('A' for Active; 'I' for Inactive)
REMARK    1  A    between atoms: C_2  and  C_3 
REMARK    2  A    between atoms: C_3  and  O_4 
REMARK    3  A    between atoms: O_4  and  C_5 
REMARK    4  A    between atoms: C_8  and  C_9 
REMARK    5  A    between atoms: C_13  and  C_14 
REMARK       I    between atoms: C_14  and  N_15 
REMARK    6  A    between atoms: N_15  and  N_16 
REMARK    7  A    between atoms: C_17  and  C_18 
REMARK    8  A    between atoms: C_21  and  O_22 
REMARK    9  A    between atoms: O_22  and  C_23 
ROOT
HETATM    1  C   UNL     1      44.274 -10.682  10.359  1.00  0.00     0.089 A 
HETATM    2  N   UNL     1      45.501 -10.327   9.950  1.00  0.00    -0.174 NA
HETATM    3  N   UNL     1      45.835 -11.252   9.037  1.00  0.00    -0.272 N 
HETATM    4  H   UNL     1      46.736 -11.188   8.575  1.00  0.00     0.189 HD
HETATM    5  C   UNL     1      44.865 -12.187   8.806  1.00  0.00     0.121 A 
HETATM    6  C   UNL     1      43.845 -11.855   9.676  1.00  0.00     0.071 A 
ENDROOT
BRANCH   5   7
HETATM    7  C   UNL     1      45.042 -13.212   7.807  1.00  0.00     0.289 C 
HETATM    8  N   UNL     1      43.994 -14.116   7.715  1.00  0.00    -0.242 N 
HETATM    9  H   UNL     1      43.191 -14.033   8.323  1.00  0.00     0.192 HD
HETATM   10  O   UNL     1      46.047 -13.242   7.103  1.00  0.00    -0.264 OA
BRANCH   8  11
HETATM   11  N   UNL     1      43.989 -15.065   6.734  1.00  0.00    -0.184 NA
HETATM   12  C   UNL     1      44.205 -16.280   7.126  1.00  0.00     0.150 C 
BRANCH  12  13
HETATM   13  C   UNL     1      44.191 -17.415   6.184  1.00  0.00    -0.017 A 
HETATM   14  C   UNL     1      45.180 -18.398   6.233  1.00  0.00     0.016 A 
HETATM   15  C   UNL     1      45.152 -19.451   5.318  1.00  0.00     0.037 A 
HETATM   16  C   UNL     1      44.140 -19.537   4.357  1.00  0.00     0.068 A 
HETATM   17  C   UNL     1      43.153 -18.550   4.314  1.00  0.00     0.037 A 
HETATM   18  C   UNL     1      43.178 -17.488   5.226  1.00  0.00     0.016 A 
BRANCH  16  19
HETATM   19  O   UNL     1      44.233 -20.618   3.526  1.00  0.00    -0.352 OA
BRANCH  19  20
HETATM   20  C   UNL     1      43.841 -20.432   2.168  1.00  0.00     0.171 C 
HETATM   21  C   UNL     1      43.875 -21.787   1.482  1.00  0.00     0.034 C 
ENDBRANCH  19  20
ENDBRANCH  16  19
ENDBRANCH  12  13
ENDBRANCH   8  11
ENDBRANCH   5   7
BRANCH   1  22
HETATM   22  C   UNL     1      43.530  -9.893  11.344  1.00  0.00    -0.005 A 
HETATM   23  C   UNL     1      43.774 -10.059  12.715  1.00  0.00     0.016 A 
HETATM   24  C   UNL     1      43.112  -9.274  13.667  1.00  0.00     0.037 A 
HETATM   25  C   UNL     1      42.191  -8.310  13.259  1.00  0.00     0.068 A 
HETATM   26  C   UNL     1      41.917  -8.162  11.899  1.00  0.00     0.037 A 
HETATM   27  C   UNL     1      42.582  -8.942  10.946  1.00  0.00     0.016 A 
BRANCH  25  28
HETATM   28  O   UNL     1      41.494  -7.468  14.080  1.00  0.00    -0.351 OA
BRANCH  28  29
HETATM   29  C   UNL     1      40.486  -8.061  14.901  1.00  0.00     0.175 C 
BRANCH  29  30
HETATM   30  C   UNL     1      39.173  -7.338  14.620  1.00  0.00     0.022 C 
HETATM   31  C   UNL     1      38.486  -7.876  13.377  1.00  0.00     0.007 C 
ENDBRANCH  29  30
ENDBRANCH  28  29
ENDBRANCH  25  28
ENDBRANCH   1  22
TORSDOF 9
ENDMDL
MODEL 2
REMARK VINA RESULT:      -7.7      2.466     12.296
REMARK  9 active torsions:
REMARK  status: ('A' for Active; 'I' for Inactive)
REMARK    1  A    between atoms: C_2  and  C_3 
REMARK    2  A    between atoms: C_3  and  O_4 
REMARK    3  A    between atoms: O_4  and  C_5 
REMARK    4  A    between atoms: C_8  and  C_9 
REMARK    5  A    between atoms: C_13  and  C_14 
REMARK       I    between atoms: C_14  and  N_15 
REMARK    6  A    between atoms: N_15  and  N_16 
REMARK    7  A    between atoms: C_17  and  C_18 
REMARK    8  A    between atoms: C_21  and  O_22 
REMARK    9  A    between atoms: O_22  and  C_23 
ROOT
HETATM    1  C   UNL     1      42.707 -14.463   4.223  1.00  0.00     0.089 A 
HETATM    2  N   UNL     1      42.785 -13.342   3.489  1.00  0.00    -0.174 NA
HETATM    3  N   UNL     1      42.415 -12.362   4.327  1.00  0.00    -0.272 N 
HETATM    4  H   UNL     1      42.401 -11.404   3.991  1.00  0.00     0.189 HD
HETATM    5  C   UNL     1      42.124 -12.787   5.593  1.00  0.00     0.121 A 
HETATM    6  C   UNL     1      42.280 -14.157   5.547  1.00  0.00     0.071 A 
ENDROOT
BRANCH   5   7
HETATM    7  C   UNL     1      41.773 -11.848   6.631  1.00  0.00     0.289 C 
HETATM    8  N   UNL     1      42.762 -11.639   7.579  1.00  0.00    -0.242 N 
HETATM    9  H   UNL     1      43.644 -12.130   7.518  1.00  0.00     0.192 HD
HETATM   10  O   UNL     1      40.680 -11.288   6.633  1.00  0.00    -0.264 OA
BRANCH   8  11
HETATM   11  N   UNL     1      42.596 -10.692   8.549  1.00  0.00    -0.184 NA
HETATM   12  C   UNL     1      42.825 -11.083   9.761  1.00  0.00     0.150 C 
BRANCH  12  13
HETATM   13  C   UNL     1      42.723 -10.160  10.907  1.00  0.00    -0.017 A 
HETATM   14  C   UNL     1      43.632 -10.228  11.964  1.00  0.00     0.016 A 
HETATM   15  C   UNL     1      43.501  -9.354  13.044  1.00  0.00     0.037 A 
HETATM   16  C   UNL     1      42.475  -8.404  13.075  1.00  0.00     0.068 A 
HETATM   17  C   UNL     1      41.569  -8.341  12.014  1.00  0.00     0.037 A 
HETATM   18  C   UNL     1      41.691  -9.219  10.930  1.00  0.00     0.016 A 
BRANCH  16  19
HETATM   19  O   UNL     1      42.465  -7.613  14.190  1.00  0.00    -0.352 OA
BRANCH  19  20
HETATM   20  C   UNL     1      41.334  -7.715  15.052  1.00  0.00     0.171 C 
HETATM   21  C   UNL     1      41.494  -8.975  15.885  1.00  0.00     0.034 C 
ENDBRANCH  19  20
ENDBRANCH  16  19
ENDBRANCH  12  13
ENDBRANCH   8  11
ENDBRANCH   5   7
BRANCH   1  22
HETATM   22  C   UNL     1      43.071 -15.772   3.675  1.00  0.00    -0.005 A 
HETATM   23  C   UNL     1      43.583 -15.878   2.375  1.00  0.00     0.016 A 
HETATM   24  C   UNL     1      43.988 -17.114   1.855  1.00  0.00     0.037 A 
HETATM   25  C   UNL     1      43.883 -18.266   2.632  1.00  0.00     0.068 A 
HETATM   26  C   UNL     1      43.342 -18.175   3.916  1.00  0.00     0.037 A 
HETATM   27  C   UNL     1      42.943 -16.939   4.438  1.00  0.00     0.016 A 
BRANCH  25  28
HETATM   28  O   UNL     1      44.258 -19.525   2.256  1.00  0.00    -0.351 OA
BRANCH  28  29
HETATM   29  C   UNL     1      44.767 -20.376   3.284  1.00  0.00     0.175 C 
BRANCH  29  30
HETATM   30  C   UNL     1      44.364 -21.808   2.944  1.00  0.00     0.022 C 
HETATM   31  C   UNL     1      44.094 -21.982   1.460  1.00  0.00     0.007 C 
ENDBRANCH  29  30
ENDBRANCH  28  29
ENDBRANCH  25  28
ENDBRANCH   1  22
TORSDOF 9
ENDMDL
MODEL 3
REMARK VINA RESULT:      -7.5      9.415     13.160
REMARK  9 active torsions:
REMARK  status: ('A' for Active; 'I' for Inactive)
REMARK    1  A    between atoms: C_2  and  C_3 
REMARK    2  A    between atoms: C_3  and  O_4 
REMARK    3  A    between atoms: O_4  and  C_5 
REMARK    4  A    between atoms: C_8  and  C_9 
REMARK    5  A    between atoms: C_13  and  C_14 
REMARK       I    between atoms: C_14  and  N_15 
REMARK    6  A    between atoms: N_15  and  N_16 
REMARK    7  A    between atoms: C_17  and  C_18 
REMARK    8  A    between atoms: C_21  and  O_22 
REMARK    9  A    between atoms: O_22  and  C_23 
ROOT
HETATM    1  C   UNL     1      38.779 -13.592  -2.953  1.00  0.00     0.089 A 
HETATM    2  N   UNL     1      39.936 -13.217  -3.519  1.00  0.00    -0.174 NA
HETATM    3  N   UNL     1      40.881 -13.601  -2.648  1.00  0.00    -0.272 N 
HETATM    4  H   UNL     1      41.857 -13.425  -2.866  1.00  0.00     0.189 HD
HETATM    5  C   UNL     1      40.396 -14.240  -1.541  1.00  0.00     0.121 A 
HETATM    6  C   UNL     1      39.025 -14.225  -1.701  1.00  0.00     0.071 A 
ENDROOT
BRANCH   5   7
HETATM    7  C   UNL     1      41.286 -14.773  -0.539  1.00  0.00     0.289 C 
HETATM    8  N   UNL     1      41.374 -16.157  -0.521  1.00  0.00    -0.242 N 
HETATM    9  H   UNL     1      40.834 -16.713  -1.171  1.00  0.00     0.192 HD
HETATM   10  O   UNL     1      41.911 -14.029   0.212  1.00  0.00    -0.264 OA
BRANCH   8  11
HETATM   11  N   UNL     1      42.266 -16.779   0.304  1.00  0.00    -0.184 NA
HETATM   12  C   UNL     1      41.756 -17.374   1.335  1.00  0.00     0.150 C 
BRANCH  12  13
HETATM   13  C   UNL     1      42.594 -18.120   2.294  1.00  0.00    -0.017 A 
HETATM   14  C   UNL     1      42.471 -17.907   3.667  1.00  0.00     0.016 A 
HETATM   15  C   UNL     1      43.289 -18.614   4.551  1.00  0.00     0.037 A 
HETATM   16  C   UNL     1      44.223 -19.539   4.076  1.00  0.00     0.068 A 
HETATM   17  C   UNL     1      44.340 -19.747   2.700  1.00  0.00     0.037 A 
HETATM   18  C   UNL     1      43.527 -19.038   1.808  1.00  0.00     0.016 A 
BRANCH  16  19
HETATM   19  O   UNL     1      44.956 -20.159   5.049  1.00  0.00    -0.352 OA
BRANCH  19  20
HETATM   20  C   UNL     1      44.386 -21.317   5.655  1.00  0.00     0.171 C 
HETATM   21  C   UNL     1      45.028 -22.540   5.022  1.00  0.00     0.034 C 
ENDBRANCH  19  20
ENDBRANCH  16  19
ENDBRANCH  12  13
ENDBRANCH   8  11
ENDBRANCH   5   7
BRANCH   1  22
HETATM   22  C   UNL     1      37.491 -13.382  -3.616  1.00  0.00    -0.005 A 
HETATM   23  C   UNL     1      36.998 -12.084  -3.811  1.00  0.00     0.016 A 
HETATM   24  C   UNL     1      35.795 -11.862  -4.493  1.00  0.00     0.037 A 
HETATM   25  C   UNL     1      35.064 -12.940  -4.988  1.00  0.00     0.068 A 
HETATM   26  C   UNL     1      35.530 -14.237  -4.769  1.00  0.00     0.037 A 
HETATM   27  C   UNL     1      36.735 -14.460  -4.093  1.00  0.00     0.016 A 
BRANCH  25  28
HETATM   28  O   UNL     1      33.890 -12.862  -5.685  1.00  0.00    -0.351 OA
BRANCH  28  29
HETATM   29  C   UNL     1      32.925 -11.920  -5.213  1.00  0.00     0.175 C 
BRANCH  29  30
HETATM   30  C   UNL     1      32.260 -12.517  -3.976  1.00  0.00     0.022 C 
HETATM   31  C   UNL     1      32.390 -11.605  -2.769  1.00  0.00     0.007 C 
ENDBRANCH  29  30
ENDBRANCH  28  29
ENDBRANCH  25  28
ENDBRANCH   1  22
TORSDOF 9
ENDMDL
MODEL 4
REMARK VINA RESULT:      -7.3      8.914     13.616
REMARK  9 active torsions:
REMARK  status: ('A' for Active; 'I' for Inactive)
REMARK    1  A    between atoms: C_2  and  C_3 
REMARK    2  A    between atoms: C_3  and  O_4 
REMARK    3  A    between atoms: O_4  and  C_5 
REMARK    4  A    between atoms: C_8  and  C_9 
REMARK    5  A    between atoms: C_13  and  C_14 
REMARK       I    between atoms: C_14  and  N_15 
REMARK    6  A    between atoms: N_15  and  N_16 
REMARK    7  A    between atoms: C_17  and  C_18 
REMARK    8  A    between atoms: C_21  and  O_22 
REMARK    9  A    between atoms: O_22  and  C_23 
ROOT
HETATM    1  C   UNL     1      41.199 -16.492   2.522  1.00  0.00     0.089 A 
HETATM    2  N   UNL     1      40.611 -15.852   3.545  1.00  0.00    -0.174 NA
HETATM    3  N   UNL     1      39.727 -15.027   2.965  1.00  0.00    -0.272 N 
HETATM    4  H   UNL     1      39.148 -14.432   3.550  1.00  0.00     0.189 HD
HETATM    5  C   UNL     1      39.687 -15.116   1.602  1.00  0.00     0.121 A 
HETATM    6  C   UNL     1      40.657 -16.046   1.283  1.00  0.00     0.071 A 
ENDROOT
BRANCH   5   7
HETATM    7  C   UNL     1      38.744 -14.342   0.832  1.00  0.00     0.289 C 
HETATM    8  N   UNL     1      38.888 -14.458  -0.542  1.00  0.00    -0.242 N 
HETATM    9  H   UNL     1      39.614 -15.043  -0.935  1.00  0.00     0.192 HD
HETATM   10  O   UNL     1      37.887 -13.658   1.385  1.00  0.00    -0.264 OA
BRANCH   8  11
HETATM   11  N   UNL     1      37.988 -13.865  -1.380  1.00  0.00    -0.184 NA
HETATM   12  C   UNL     1      38.147 -14.112  -2.641  1.00  0.00     0.150 C 
BRANCH  12  13
HETATM   13  C   UNL     1      37.227 -13.570  -3.660  1.00  0.00    -0.017 A 
HETATM   14  C   UNL     1      36.415 -14.419  -4.413  1.00  0.00     0.016 A 
HETATM   15  C   UNL     1      35.567 -13.881  -5.383  1.00  0.00     0.037 A 
HETATM   16  C   UNL     1      35.516 -12.502  -5.602  1.00  0.00     0.068 A 
HETATM   17  C   UNL     1      36.331 -11.658  -4.844  1.00  0.00     0.037 A 
HETATM   18  C   UNL     1      37.188 -12.191  -3.874  1.00  0.00     0.016 A 
BRANCH  16  19
HETATM   19  O   UNL     1      34.643 -12.112  -6.580  1.00  0.00    -0.352 OA
BRANCH  19  20
HETATM   20  C   UNL     1      33.693 -11.105  -6.241  1.00  0.00     0.171 C 
HETATM   21  C   UNL     1      32.693 -11.713  -5.273  1.00  0.00     0.034 C 
ENDBRANCH  19  20
ENDBRANCH  16  19
ENDBRANCH  12  13
ENDBRANCH   8  11
ENDBRANCH   5   7
BRANCH   1  22
HETATM   22  C   UNL     1      42.217 -17.523   2.739  1.00  0.00    -0.005 A 
HETATM   23  C   UNL     1      42.845 -17.647   3.987  1.00  0.00     0.016 A 
HETATM   24  C   UNL     1      43.779 -18.662   4.227  1.00  0.00     0.037 A 
HETATM   25  C   UNL     1      44.102 -19.568   3.220  1.00  0.00     0.068 A 
HETATM   26  C   UNL     1      43.507 -19.431   1.965  1.00  0.00     0.037 A 
HETATM   27  C   UNL     1      42.568 -18.421   1.724  1.00  0.00     0.016 A 
BRANCH  25  28
HETATM   28  O   UNL     1      44.978 -20.612   3.329  1.00  0.00    -0.351 OA
BRANCH  28  29
HETATM   29  C   UNL     1      44.520 -21.884   2.866  1.00  0.00     0.175 C 
BRANCH  29  30
HETATM   30  C   UNL     1      44.699 -22.885   4.003  1.00  0.00     0.022 C 
HETATM   31  C   UNL     1      44.857 -22.193   5.345  1.00  0.00     0.007 C 
ENDBRANCH  29  30
ENDBRANCH  28  29
ENDBRANCH  25  28
ENDBRANCH   1  22
TORSDOF 9
ENDMDL
MODEL 5
REMARK VINA RESULT:      -7.0      2.852      3.455
REMARK  9 active torsions:
REMARK  status: ('A' for Active; 'I' for Inactive)
REMARK    1  A    between atoms: C_2  and  C_3 
REMARK    2  A    between atoms: C_3  and  O_4 
REMARK    3  A    between atoms: O_4  and  C_5 
REMARK    4  A    between atoms: C_8  and  C_9 
REMARK    5  A    between atoms: C_13  and  C_14 
REMARK       I    between atoms: C_14  and  N_15 
REMARK    6  A    between atoms: N_15  and  N_16 
REMARK    7  A    between atoms: C_17  and  C_18 
REMARK    8  A    between atoms: C_21  and  O_22 
REMARK    9  A    between atoms: O_22  and  C_23 
ROOT
HETATM    1  C   UNL     1      40.192 -10.120   8.528  1.00  0.00     0.089 A 
HETATM    2  N   UNL     1      39.147 -10.136   7.687  1.00  0.00    -0.174 NA
HETATM    3  N   UNL     1      39.587 -10.805   6.612  1.00  0.00    -0.272 N 
HETATM    4  H   UNL     1      38.958 -10.952   5.828  1.00  0.00     0.189 HD
HETATM    5  C   UNL     1      40.873 -11.256   6.719  1.00  0.00     0.121 A 
HETATM    6  C   UNL     1      41.302 -10.800   7.950  1.00  0.00     0.071 A 
ENDROOT
BRANCH   5   7
HETATM    7  C   UNL     1      41.475 -12.049   5.675  1.00  0.00     0.289 C 
HETATM    8  N   UNL     1      41.734 -13.365   6.026  1.00  0.00    -0.242 N 
HETATM    9  H   UNL     1      41.511 -13.702   6.953  1.00  0.00     0.192 HD
HETATM   10  O   UNL     1      41.710 -11.566   4.571  1.00  0.00    -0.264 OA
BRANCH   8  11
HETATM   11  N   UNL     1      42.198 -14.247   5.092  1.00  0.00    -0.184 NA
HETATM   12  C   UNL     1      42.516 -15.420   5.537  1.00  0.00     0.150 C 
BRANCH  12  13
HETATM   13  C   UNL     1      42.995 -16.488   4.638  1.00  0.00    -0.017 A 
HETATM   14  C   UNL     1      43.139 -17.798   5.097  1.00  0.00     0.016 A 
HETATM   15  C   UNL     1      43.611 -18.784   4.230  1.00  0.00     0.037 A 
HETATM   16  C   UNL     1      43.933 -18.477   2.905  1.00  0.00     0.068 A 
HETATM   17  C   UNL     1      43.786 -17.164   2.452  1.00  0.00     0.037 A 
HETATM   18  C   UNL     1      43.318 -16.168   3.318  1.00  0.00     0.016 A 
BRANCH  16  19
HETATM   19  O   UNL     1      44.382 -19.537   2.167  1.00  0.00    -0.352 OA
BRANCH  19  20
HETATM   20  C   UNL     1      43.449 -20.578   1.887  1.00  0.00     0.171 C 
HETATM   21  C   UNL     1      44.186 -21.903   1.979  1.00  0.00     0.034 C 
ENDBRANCH  19  20
ENDBRANCH  16  19
ENDBRANCH  12  13
ENDBRANCH   8  11
ENDBRANCH   5   7
BRANCH   1  22
HETATM   22  C   UNL     1      40.107  -9.505   9.855  1.00  0.00    -0.005 A 
HETATM   23  C   UNL     1      39.070  -9.854  10.732  1.00  0.00     0.016 A 
HETATM   24  C   UNL     1      39.005  -9.318  12.024  1.00  0.00     0.037 A 
HETATM   25  C   UNL     1      39.978  -8.420  12.457  1.00  0.00     0.068 A 
HETATM   26  C   UNL     1      40.994  -8.041  11.579  1.00  0.00     0.037 A 
HETATM   27  C   UNL     1      41.064  -8.580  10.290  1.00  0.00     0.016 A 
BRANCH  25  28
HETATM   28  O   UNL     1      40.042  -7.842  13.694  1.00  0.00    -0.351 OA
BRANCH  28  29
HETATM   29  C   UNL     1      41.314  -7.862  14.346  1.00  0.00     0.175 C 
BRANCH  29  30
HETATM   30  C   UNL     1      41.417  -9.170  15.124  1.00  0.00     0.022 C 
HETATM   31  C   UNL     1      42.431 -10.116  14.506  1.00  0.00     0.007 C 
ENDBRANCH  29  30
ENDBRANCH  28  29
ENDBRANCH  25  28
ENDBRANCH   1  22
TORSDOF 9
ENDMDL
MODEL 6
REMARK VINA RESULT:      -7.0      9.245     13.758
REMARK  9 active torsions:
REMARK  status: ('A' for Active; 'I' for Inactive)
REMARK    1  A    between atoms: C_2  and  C_3 
REMARK    2  A    between atoms: C_3  and  O_4 
REMARK    3  A    between atoms: O_4  and  C_5 
REMARK    4  A    between atoms: C_8  and  C_9 
REMARK    5  A    between atoms: C_13  and  C_14 
REMARK       I    between atoms: C_14  and  N_15 
REMARK    6  A    between atoms: N_15  and  N_16 
REMARK    7  A    between atoms: C_17  and  C_18 
REMARK    8  A    between atoms: C_21  and  O_22 
REMARK    9  A    between atoms: O_22  and  C_23 
ROOT
HETATM    1  C   UNL     1      41.551 -16.611   1.689  1.00  0.00     0.089 A 
HETATM    2  N   UNL     1      40.321 -16.313   2.136  1.00  0.00    -0.174 NA
HETATM    3  N   UNL     1      39.813 -15.491   1.206  1.00  0.00    -0.272 N 
HETATM    4  H   UNL     1      38.871 -15.130   1.326  1.00  0.00     0.189 HD
HETATM    5  C   UNL     1      40.646 -15.255   0.149  1.00  0.00     0.121 A 
HETATM    6  C   UNL     1      41.799 -15.953   0.450  1.00  0.00     0.071 A 
ENDROOT
BRANCH   5   7
HETATM    7  C   UNL     1      40.224 -14.444  -0.966  1.00  0.00     0.289 C 
HETATM    8  N   UNL     1      39.501 -15.124  -1.934  1.00  0.00    -0.242 N 
HETATM    9  H   UNL     1      39.311 -16.112  -1.833  1.00  0.00     0.192 HD
HETATM   10  O   UNL     1      40.491 -13.246  -1.013  1.00  0.00    -0.264 OA
BRANCH   8  11
HETATM   11  N   UNL     1      38.949 -14.445  -2.983  1.00  0.00    -0.184 NA
HETATM   12  C   UNL     1      37.673 -14.238  -2.908  1.00  0.00     0.150 C 
BRANCH  12  13
HETATM   13  C   UNL     1      36.947 -13.486  -3.949  1.00  0.00    -0.017 A 
HETATM   14  C   UNL     1      36.112 -14.142  -4.854  1.00  0.00     0.016 A 
HETATM   15  C   UNL     1      35.450 -13.407  -5.839  1.00  0.00     0.037 A 
HETATM   16  C   UNL     1      35.607 -12.020  -5.924  1.00  0.00     0.068 A 
HETATM   17  C   UNL     1      36.443 -11.370  -5.014  1.00  0.00     0.037 A 
HETATM   18  C   UNL     1      37.114 -12.102  -4.027  1.00  0.00     0.016 A 
BRANCH  16  19
HETATM   19  O   UNL     1      34.902 -11.428  -6.934  1.00  0.00    -0.352 OA
BRANCH  19  20
HETATM   20  C   UNL     1      33.682 -12.051  -7.330  1.00  0.00     0.171 C 
HETATM   21  C   UNL     1      33.792 -12.398  -8.804  1.00  0.00     0.034 C 
ENDBRANCH  19  20
ENDBRANCH  16  19
ENDBRANCH  12  13
ENDBRANCH   8  11
ENDBRANCH   5   7
BRANCH   1  22
HETATM   22  C   UNL     1      42.434 -17.529   2.412  1.00  0.00    -0.005 A 
HETATM   23  C   UNL     1      43.399 -18.275   1.721  1.00  0.00     0.016 A 
HETATM   24  C   UNL     1      44.288 -19.115   2.403  1.00  0.00     0.037 A 
HETATM   25  C   UNL     1      44.223 -19.222   3.790  1.00  0.00     0.068 A 
HETATM   26  C   UNL     1      43.243 -18.509   4.483  1.00  0.00     0.037 A 
HETATM   27  C   UNL     1      42.357 -17.665   3.803  1.00  0.00     0.016 A 
BRANCH  25  28
HETATM   28  O   UNL     1      45.040 -19.986   4.576  1.00  0.00    -0.351 OA
BRANCH  28  29
HETATM   29  C   UNL     1      44.400 -20.911   5.457  1.00  0.00     0.175 C 
BRANCH  29  30
HETATM   30  C   UNL     1      44.947 -22.302   5.149  1.00  0.00     0.022 C 
HETATM   31  C   UNL     1      44.639 -22.726   3.724  1.00  0.00     0.007 C 
ENDBRANCH  29  30
ENDBRANCH  28  29
ENDBRANCH  25  28
ENDBRANCH   1  22
TORSDOF 9
ENDMDL
MODEL 7
REMARK VINA RESULT:      -6.7      9.098     12.683
REMARK  9 active torsions:
REMARK  status: ('A' for Active; 'I' for Inactive)
REMARK    1  A    between atoms: C_2  and  C_3 
REMARK    2  A    between atoms: C_3  and  O_4 
REMARK    3  A    between atoms: O_4  and  C_5 
REMARK    4  A    between atoms: C_8  and  C_9 
REMARK    5  A    between atoms: C_13  and  C_14 
REMARK       I    between atoms: C_14  and  N_15 
REMARK    6  A    between atoms: N_15  and  N_16 
REMARK    7  A    between atoms: C_17  and  C_18 
REMARK    8  A    between atoms: C_21  and  O_22 
REMARK    9  A    between atoms: O_22  and  C_23 
ROOT
HETATM    1  C   UNL     1      41.903 -16.756   1.741  1.00  0.00     0.089 A 
HETATM    2  N   UNL     1      42.586 -16.977   0.607  1.00  0.00    -0.174 NA
HETATM    3  N   UNL     1      42.001 -16.181  -0.301  1.00  0.00    -0.272 N 
HETATM    4  H   UNL     1      42.356 -16.172  -1.253  1.00  0.00     0.189 HD
HETATM    5  C   UNL     1      40.978 -15.422   0.194  1.00  0.00     0.121 A 
HETATM    6  C   UNL     1      40.874 -15.797   1.519  1.00  0.00     0.071 A 
ENDROOT
BRANCH   5   7
HETATM    7  C   UNL     1      40.288 -14.468  -0.638  1.00  0.00     0.289 C 
HETATM    8  N   UNL     1      40.009 -14.914  -1.921  1.00  0.00    -0.242 N 
HETATM    9  H   UNL     1      40.291 -15.840  -2.214  1.00  0.00     0.192 HD
HETATM   10  O   UNL     1      39.975 -13.362  -0.206  1.00  0.00    -0.264 OA
BRANCH   8  11
HETATM   11  N   UNL     1      39.262 -14.148  -2.769  1.00  0.00    -0.184 NA
HETATM   12  C   UNL     1      38.042 -14.541  -2.952  1.00  0.00     0.150 C 
BRANCH  12  13
HETATM   13  C   UNL     1      37.106 -13.791  -3.811  1.00  0.00    -0.017 A 
HETATM   14  C   UNL     1      37.145 -12.397  -3.866  1.00  0.00     0.016 A 
HETATM   15  C   UNL     1      36.236 -11.713  -4.674  1.00  0.00     0.037 A 
HETATM   16  C   UNL     1      35.292 -12.408  -5.436  1.00  0.00     0.068 A 
HETATM   17  C   UNL     1      35.259 -13.803  -5.377  1.00  0.00     0.037 A 
HETATM   18  C   UNL     1      36.164 -14.496  -4.564  1.00  0.00     0.016 A 
BRANCH  16  19
HETATM   19  O   UNL     1      34.466 -11.614  -6.181  1.00  0.00    -0.352 OA
BRANCH  19  20
HETATM   20  C   UNL     1      34.551 -11.734  -7.599  1.00  0.00     0.171 C 
HETATM   21  C   UNL     1      33.138 -11.831  -8.146  1.00  0.00     0.034 C 
ENDBRANCH  19  20
ENDBRANCH  16  19
ENDBRANCH  12  13
ENDBRANCH   8  11
ENDBRANCH   5   7
BRANCH   1  22
HETATM   22  C   UNL     1      42.260 -17.417   2.998  1.00  0.00    -0.005 A 
HETATM   23  C   UNL     1      43.538 -17.968   3.171  1.00  0.00     0.016 A 
HETATM   24  C   UNL     1      43.914 -18.554   4.386  1.00  0.00     0.037 A 
HETATM   25  C   UNL     1      43.013 -18.601   5.447  1.00  0.00     0.068 A 
HETATM   26  C   UNL     1      41.728 -18.086   5.273  1.00  0.00     0.037 A 
HETATM   27  C   UNL     1      41.352 -17.494   4.061  1.00  0.00     0.016 A 
BRANCH  25  28
HETATM   28  O   UNL     1      43.258 -19.124   6.686  1.00  0.00    -0.351 OA
BRANCH  28  29
HETATM   29  C   UNL     1      44.196 -18.422   7.504  1.00  0.00     0.175 C 
BRANCH  29  30
HETATM   30  C   UNL     1      43.460 -17.260   8.164  1.00  0.00     0.022 C 
HETATM   31  C   UNL     1      43.840 -15.926   7.544  1.00  0.00     0.007 C 
ENDBRANCH  29  30
ENDBRANCH  28  29
ENDBRANCH  25  28
ENDBRANCH   1  22
TORSDOF 9
ENDMDL
MODEL 8
REMARK VINA RESULT:      -6.6      9.453     13.148
REMARK  9 active torsions:
REMARK  status: ('A' for Active; 'I' for Inactive)
REMARK    1  A    between atoms: C_2  and  C_3 
REMARK    2  A    between atoms: C_3  and  O_4 
REMARK    3  A    between atoms: O_4  and  C_5 
REMARK    4  A    between atoms: C_8  and  C_9 
REMARK    5  A    between atoms: C_13  and  C_14 
REMARK       I    between atoms: C_14  and  N_15 
REMARK    6  A    between atoms: N_15  and  N_16 
REMARK    7  A    between atoms: C_17  and  C_18 
REMARK    8  A    between atoms: C_21  and  O_22 
REMARK    9  A    between atoms: O_22  and  C_23 
ROOT
HETATM    1  C   UNL     1      41.201 -12.891  -3.315  1.00  0.00     0.089 A 
HETATM    2  N   UNL     1      40.991 -14.084  -3.893  1.00  0.00    -0.174 NA
HETATM    3  N   UNL     1      40.927 -14.949  -2.871  1.00  0.00    -0.272 N 
HETATM    4  H   UNL     1      40.766 -15.933  -3.065  1.00  0.00     0.189 HD
HETATM    5  C   UNL     1      41.058 -14.373  -1.638  1.00  0.00     0.121 A 
HETATM    6  C   UNL     1      41.265 -13.034  -1.899  1.00  0.00     0.071 A 
ENDROOT
BRANCH   5   7
HETATM    7  C   UNL     1      40.947 -15.158  -0.434  1.00  0.00     0.289 C 
HETATM    8  N   UNL     1      41.680 -16.335  -0.442  1.00  0.00    -0.242 N 
HETATM    9  H   UNL     1      42.230 -16.591  -1.251  1.00  0.00     0.192 HD
HETATM   10  O   UNL     1      40.261 -14.775   0.510  1.00  0.00    -0.264 OA
BRANCH   8  11
HETATM   11  N   UNL     1      41.749 -17.110   0.680  1.00  0.00    -0.184 NA
HETATM   12  C   UNL     1      42.836 -16.998   1.374  1.00  0.00     0.150 C 
BRANCH  12  13
HETATM   13  C   UNL     1      43.036 -17.745   2.631  1.00  0.00    -0.017 A 
HETATM   14  C   UNL     1      42.212 -17.519   3.735  1.00  0.00     0.016 A 
HETATM   15  C   UNL     1      42.435 -18.227   4.917  1.00  0.00     0.037 A 
HETATM   16  C   UNL     1      43.467 -19.166   5.005  1.00  0.00     0.068 A 
HETATM   17  C   UNL     1      44.287 -19.387   3.896  1.00  0.00     0.037 A 
HETATM   18  C   UNL     1      44.073 -18.676   2.709  1.00  0.00     0.016 A 
BRANCH  16  19
HETATM   19  O   UNL     1      43.572 -19.786   6.219  1.00  0.00    -0.352 OA
BRANCH  19  20
HETATM   20  C   UNL     1      43.944 -18.978   7.333  1.00  0.00     0.171 C 
HETATM   21  C   UNL     1      45.133 -18.129   6.918  1.00  0.00     0.034 C 
ENDBRANCH  19  20
ENDBRANCH  16  19
ENDBRANCH  12  13
ENDBRANCH   8  11
ENDBRANCH   5   7
BRANCH   1  22
HETATM   22  C   UNL     1      41.296 -11.658  -4.099  1.00  0.00    -0.005 A 
HETATM   23  C   UNL     1      40.143 -11.078  -4.649  1.00  0.00     0.016 A 
HETATM   24  C   UNL     1      40.208  -9.870  -5.354  1.00  0.00     0.037 A 
HETATM   25  C   UNL     1      41.431  -9.225  -5.523  1.00  0.00     0.068 A 
HETATM   26  C   UNL     1      42.588  -9.812  -5.008  1.00  0.00     0.037 A 
HETATM   27  C   UNL     1      42.524 -11.016  -4.298  1.00  0.00     0.016 A 
BRANCH  25  28
HETATM   28  O   UNL     1      41.630  -8.036  -6.169  1.00  0.00    -0.351 OA
BRANCH  28  29
HETATM   29  C   UNL     1      42.961  -7.518  -6.163  1.00  0.00     0.175 C 
BRANCH  29  30
HETATM   30  C   UNL     1      43.374  -7.276  -7.612  1.00  0.00     0.022 C 
HETATM   31  C   UNL     1      44.722  -7.899  -7.926  1.00  0.00     0.007 C 
ENDBRANCH  29  30
ENDBRANCH  28  29
ENDBRANCH  25  28
ENDBRANCH   1  22
TORSDOF 9
ENDMDL
MODEL 9
REMARK VINA RESULT:      -6.6      9.027     13.021
REMARK  9 active torsions:
REMARK  status: ('A' for Active; 'I' for Inactive)
REMARK    1  A    between atoms: C_2  and  C_3 
REMARK    2  A    between atoms: C_3  and  O_4 
REMARK    3  A    between atoms: O_4  and  C_5 
REMARK    4  A    between atoms: C_8  and  C_9 
REMARK    5  A    between atoms: C_13  and  C_14 
REMARK       I    between atoms: C_14  and  N_15 
REMARK    6  A    between atoms: N_15  and  N_16 
REMARK    7  A    between atoms: C_17  and  C_18 
REMARK    8  A    between atoms: C_21  and  O_22 
REMARK    9  A    between atoms: O_22  and  C_23 
ROOT
HETATM    1  C   UNL     1      42.228 -16.670   1.772  1.00  0.00     0.089 A 
HETATM    2  N   UNL     1      42.520 -17.038   0.515  1.00  0.00    -0.174 NA
HETATM    3  N   UNL     1      41.778 -16.229  -0.256  1.00  0.00    -0.272 N 
HETATM    4  H   UNL     1      41.836 -16.319  -1.266  1.00  0.00     0.189 HD
HETATM    5  C   UNL     1      41.029 -15.322   0.440  1.00  0.00     0.121 A 
HETATM    6  C   UNL     1      41.283 -15.604   1.767  1.00  0.00     0.071 A 
ENDROOT
BRANCH   5   7
HETATM    7  C   UNL     1      40.226 -14.338  -0.244  1.00  0.00     0.289 C 
HETATM    8  N   UNL     1      39.985 -14.617  -1.580  1.00  0.00    -0.242 N 
HETATM    9  H   UNL     1      40.366 -15.450  -2.007  1.00  0.00     0.192 HD
HETATM   10  O   UNL     1      39.795 -13.352   0.348  1.00  0.00    -0.264 OA
BRANCH   8  11
HETATM   11  N   UNL     1      39.146 -13.822  -2.308  1.00  0.00    -0.184 NA
HETATM   12  C   UNL     1      38.168 -14.431  -2.897  1.00  0.00     0.150 C 
BRANCH  12  13
HETATM   13  C   UNL     1      37.160 -13.697  -3.687  1.00  0.00    -0.017 A 
HETATM   14  C   UNL     1      37.052 -12.309  -3.596  1.00  0.00     0.016 A 
HETATM   15  C   UNL     1      36.078 -11.642  -4.341  1.00  0.00     0.037 A 
HETATM   16  C   UNL     1      35.215 -12.349  -5.184  1.00  0.00     0.068 A 
HETATM   17  C   UNL     1      35.329 -13.738  -5.271  1.00  0.00     0.037 A 
HETATM   18  C   UNL     1      36.300 -14.414  -4.522  1.00  0.00     0.016 A 
BRANCH  16  19
HETATM   19  O   UNL     1      34.311 -11.572  -5.854  1.00  0.00    -0.352 OA
BRANCH  19  20
HETATM   20  C   UNL     1      32.939 -11.709  -5.491  1.00  0.00     0.171 C 
HETATM   21  C   UNL     1      32.097 -11.332  -6.698  1.00  0.00     0.034 C 
ENDBRANCH  19  20
ENDBRANCH  16  19
ENDBRANCH  12  13
ENDBRANCH   8  11
ENDBRANCH   5   7
BRANCH   1  22
HETATM   22  C   UNL     1      42.869 -17.297   2.929  1.00  0.00    -0.005 A 
HETATM   23  C   UNL     1      42.700 -16.757   4.212  1.00  0.00     0.016 A 
HETATM   24  C   UNL     1      43.261 -17.375   5.337  1.00  0.00     0.037 A 
HETATM   25  C   UNL     1      44.002 -18.546   5.193  1.00  0.00     0.068 A 
HETATM   26  C   UNL     1      44.204 -19.072   3.916  1.00  0.00     0.037 A 
HETATM   27  C   UNL     1      43.640 -18.458   2.792  1.00  0.00     0.016 A 
BRANCH  25  28
HETATM   28  O   UNL     1      44.584 -19.258   6.205  1.00  0.00    -0.351 OA
BRANCH  28  29
HETATM   29  C   UNL     1      43.761 -19.553   7.335  1.00  0.00     0.175 C 
BRANCH  29  30
HETATM   30  C   UNL     1      43.568 -21.065   7.389  1.00  0.00     0.022 C 
HETATM   31  C   UNL     1      44.247 -21.762   6.223  1.00  0.00     0.007 C 
ENDBRANCH  29  30
ENDBRANCH  28  29
ENDBRANCH  25  28
ENDBRANCH   1  22
TORSDOF 9
ENDMDL
MODEL 10
REMARK VINA RESULT:      -6.3      4.332      4.804
REMARK  9 active torsions:
REMARK  status: ('A' for Active; 'I' for Inactive)
REMARK    1  A    between atoms: C_2  and  C_3 
REMARK    2  A    between atoms: C_3  and  O_4 
REMARK    3  A    between atoms: O_4  and  C_5 
REMARK    4  A    between atoms: C_8  and  C_9 
REMARK    5  A    between atoms: C_13  and  C_14 
REMARK       I    between atoms: C_14  and  N_15 
REMARK    6  A    between atoms: N_15  and  N_16 
REMARK    7  A    between atoms: C_17  and  C_18 
REMARK    8  A    between atoms: C_21  and  O_22 
REMARK    9  A    between atoms: O_22  and  C_23 
ROOT
HETATM    1  C   UNL     1      41.297 -10.649  10.115  1.00  0.00     0.089 A 
HETATM    2  N   UNL     1      40.061 -11.098   9.847  1.00  0.00    -0.174 NA
HETATM    3  N   UNL     1      40.065 -11.331   8.526  1.00  0.00    -0.272 N 
HETATM    4  H   UNL     1      39.224 -11.689   8.084  1.00  0.00     0.189 HD
HETATM    5  C   UNL     1      41.263 -11.081   7.916  1.00  0.00     0.121 A 
HETATM    6  C   UNL     1      42.077 -10.608   8.925  1.00  0.00     0.071 A 
ENDROOT
BRANCH   5   7
HETATM    7  C   UNL     1      41.451 -11.342   6.510  1.00  0.00     0.289 C 
HETATM    8  N   UNL     1      41.820 -12.645   6.209  1.00  0.00    -0.242 N 
HETATM    9  H   UNL     1      41.945 -13.326   6.946  1.00  0.00     0.192 HD
HETATM   10  O   UNL     1      41.275 -10.460   5.673  1.00  0.00    -0.264 OA
BRANCH   8  11
HETATM   11  N   UNL     1      41.920 -13.048   4.908  1.00  0.00    -0.184 NA
HETATM   12  C   UNL     1      40.903 -13.701   4.444  1.00  0.00     0.150 C 
BRANCH  12  13
HETATM   13  C   UNL     1      40.852 -14.166   3.044  1.00  0.00    -0.017 A 
HETATM   14  C   UNL     1      42.025 -14.414   2.330  1.00  0.00     0.016 A 
HETATM   15  C   UNL     1      41.948 -14.837   1.002  1.00  0.00     0.037 A 
HETATM   16  C   UNL     1      40.709 -15.023   0.382  1.00  0.00     0.068 A 
HETATM   17  C   UNL     1      39.539 -14.773   1.103  1.00  0.00     0.037 A 
HETATM   18  C   UNL     1      39.609 -14.344   2.434  1.00  0.00     0.016 A 
BRANCH  16  19
HETATM   19  O   UNL     1      40.779 -15.439  -0.918  1.00  0.00    -0.352 OA
BRANCH  19  20
HETATM   20  C   UNL     1      41.197 -14.481  -1.888  1.00  0.00     0.171 C 
HETATM   21  C   UNL     1      41.157 -15.148  -3.251  1.00  0.00     0.034 C 
ENDBRANCH  19  20
ENDBRANCH  16  19
ENDBRANCH  12  13
ENDBRANCH   8  11
ENDBRANCH   5   7
BRANCH   1  22
HETATM   22  C   UNL     1      41.717 -10.310  11.477  1.00  0.00    -0.005 A 
HETATM   23  C   UNL     1      43.026  -9.877  11.727  1.00  0.00     0.016 A 
HETATM   24  C   UNL     1      43.428  -9.496  13.014  1.00  0.00     0.037 A 
HETATM   25  C   UNL     1      42.523  -9.547  14.072  1.00  0.00     0.068 A 
HETATM   26  C   UNL     1      41.228 -10.009  13.838  1.00  0.00     0.037 A 
HETATM   27  C   UNL     1      40.823 -10.384  12.552  1.00  0.00     0.016 A 
BRANCH  25  28
HETATM   28  O   UNL     1      42.780  -9.186  15.366  1.00  0.00    -0.351 OA
BRANCH  28  29
HETATM   29  C   UNL     1      41.656  -9.109  16.244  1.00  0.00     0.175 C 
BRANCH  29  30
HETATM   30  C   UNL     1      41.260  -7.640  16.364  1.00  0.00     0.022 C 
HETATM   31  C   UNL     1      39.803  -7.416  15.998  1.00  0.00     0.007 C 
ENDBRANCH  29  30
ENDBRANCH  28  29
ENDBRANCH  25  28
ENDBRANCH   1  22
TORSDOF 9
ENDMDL
