MODEL 1
REMARK VINA RESULT:      -8.3      0.000      0.000
REMARK  4 active torsions:
REMARK  status: ('A' for Active; 'I' for Inactive)
REMARK    1  A    between atoms: N_1  and  C_2 
REMARK    2  A    between atoms: C_2  and  C_3 
REMARK    3  A    between atoms: C_3  and  C_4 
REMARK    4  A    between atoms: N_13  and  C_16 
ROOT
HETATM    1  C   UNL     1      43.660 -17.663   6.833  1.00  0.00     0.162 C 
HETATM    2  C   UNL     1      42.380 -18.079   6.060  1.00  0.00     0.061 C 
HETATM    3  C   UNL     1      41.275 -17.020   6.067  1.00  0.00     0.125 C 
HETATM    4  N   UNL     1      41.832 -15.747   5.597  1.00  0.00    -0.380 N 
HETATM    5  C   UNL     1      42.921 -15.234   6.448  1.00  0.00     0.125 C 
HETATM    6  C   UNL     1      44.076 -16.232   6.421  1.00  0.00     0.061 C 
ENDROOT
BRANCH   1   7
HETATM    7  N   UNL     1      43.392 -17.704   8.284  1.00  0.00     0.088 N 
HETATM    8  H   UNL     1      43.626 -18.622   8.662  1.00  0.00     0.313 HD
HETATM    9  H   UNL     1      42.414 -17.538   8.499  1.00  0.00     0.313 HD
ENDBRANCH   1   7
BRANCH   1  10
HETATM   10  C   UNL     1      44.786 -18.691   6.477  1.00  0.00     0.079 C 
BRANCH  10  11
HETATM   11  C   UNL     1      44.605 -19.494   5.205  1.00  0.00    -0.056 A 
HETATM   12  C   UNL     1      44.312 -18.858   3.991  1.00  0.00     0.009 A 
HETATM   13  C   UNL     1      44.157 -19.602   2.820  1.00  0.00     0.024 A 
HETATM   14  C   UNL     1      44.291 -20.987   2.855  1.00  0.00     0.034 A 
HETATM   15 CL   UNL     1      44.098 -21.905   1.413  1.00  0.00    -0.084 Cl
HETATM   16  C   UNL     1      44.581 -21.635   4.053  1.00  0.00     0.024 A 
HETATM   17  C   UNL     1      44.740 -20.891   5.225  1.00  0.00     0.009 A 
ENDBRANCH  10  11
ENDBRANCH   1  10
BRANCH   4  18
HETATM   18  C   UNL     1      41.017 -14.792   5.005  1.00  0.00     0.045 A 
HETATM   19  C   UNL     1      40.522 -13.673   5.704  1.00  0.00     0.047 A 
HETATM   20  C   UNL     1      39.674 -12.747   5.104  1.00  0.00     0.092 A 
HETATM   21  N   UNL     1      39.289 -12.886   3.833  1.00  0.00    -0.351 N 
HETATM   22  H   UNL     1      38.665 -12.206   3.403  1.00  0.00     0.166 HD
HETATM   23  C   UNL     1      39.736 -13.956   3.130  1.00  0.00     0.117 A 
HETATM   24  N   UNL     1      39.441 -14.278   1.831  1.00  0.00    -0.352 N 
HETATM   25  C   UNL     1      40.581 -14.921   3.660  1.00  0.00     0.036 A 
HETATM   26  H   UNL     1      38.851 -13.759   1.192  1.00  0.00     0.166 HD
HETATM   27  C   UNL     1      40.066 -15.456   1.512  1.00  0.00     0.090 A 
HETATM   28  C   UNL     1      40.766 -15.881   2.622  1.00  0.00     0.034 A 
ENDBRANCH   4  18
TORSDOF 4
ENDMDL
MODEL 2
REMARK VINA RESULT:      -8.3      2.237      4.172
REMARK  4 active torsions:
REMARK  status: ('A' for Active; 'I' for Inactive)
REMARK    1  A    between atoms: N_1  and  C_2 
REMARK    2  A    between atoms: C_2  and  C_3 
REMARK    3  A    between atoms: C_3  and  C_4 
REMARK    4  A    between atoms: N_13  and  C_16 
ROOT
HETATM    1  C   UNL     1      42.187 -17.477   1.731  1.00  0.00     0.162 C 
HETATM    2  C   UNL     1      42.827 -16.081   1.512  1.00  0.00     0.061 C 
HETATM    3  C   UNL     1      42.113 -14.945   2.248  1.00  0.00     0.125 C 
HETATM    4  N   UNL     1      41.994 -15.296   3.667  1.00  0.00    -0.380 N 
HETATM    5  C   UNL     1      41.206 -16.519   3.902  1.00  0.00     0.125 C 
HETATM    6  C   UNL     1      41.916 -17.696   3.237  1.00  0.00     0.061 C 
ENDROOT
BRANCH   1   7
HETATM    7  N   UNL     1      40.917 -17.558   0.982  1.00  0.00     0.088 N 
HETATM    8  H   UNL     1      40.171 -17.906   1.583  1.00  0.00     0.313 HD
HETATM    9  H   UNL     1      40.978 -18.193   0.191  1.00  0.00     0.313 HD
ENDBRANCH   1   7
BRANCH   1  10
HETATM   10  C   UNL     1      43.188 -18.551   1.186  1.00  0.00     0.079 C 
BRANCH  10  11
HETATM   11  C   UNL     1      43.736 -19.548   2.186  1.00  0.00    -0.056 A 
HETATM   12  C   UNL     1      44.290 -19.116   3.399  1.00  0.00     0.009 A 
HETATM   13  C   UNL     1      44.785 -20.040   4.321  1.00  0.00     0.024 A 
HETATM   14  C   UNL     1      44.731 -21.402   4.036  1.00  0.00     0.034 A 
HETATM   15 CL   UNL     1      45.342 -22.541   5.171  1.00  0.00    -0.084 Cl
HETATM   16  C   UNL     1      44.184 -21.848   2.835  1.00  0.00     0.024 A 
HETATM   17  C   UNL     1      43.686 -20.924   1.914  1.00  0.00     0.009 A 
ENDBRANCH  10  11
ENDBRANCH   1  10
BRANCH   4  18
HETATM   18  C   UNL     1      41.894 -14.308   4.636  1.00  0.00     0.045 A 
HETATM   19  C   UNL     1      40.869 -13.341   4.637  1.00  0.00     0.047 A 
HETATM   20  C   UNL     1      40.808 -12.334   5.596  1.00  0.00     0.092 A 
HETATM   21  N   UNL     1      41.729 -12.241   6.558  1.00  0.00    -0.351 N 
HETATM   22  H   UNL     1      41.679 -11.499   7.253  1.00  0.00     0.166 HD
HETATM   23  C   UNL     1      42.738 -13.147   6.584  1.00  0.00     0.117 A 
HETATM   24  N   UNL     1      43.777 -13.206   7.476  1.00  0.00    -0.352 N 
HETATM   25  C   UNL     1      42.866 -14.177   5.663  1.00  0.00     0.036 A 
HETATM   26  H   UNL     1      43.946 -12.587   8.259  1.00  0.00     0.166 HD
HETATM   27  C   UNL     1      44.598 -14.251   7.133  1.00  0.00     0.090 A 
HETATM   28  C   UNL     1      44.068 -14.858   6.014  1.00  0.00     0.034 A 
ENDBRANCH   4  18
TORSDOF 4
ENDMDL
MODEL 3
REMARK VINA RESULT:      -8.2      2.266      3.669
REMARK  4 active torsions:
REMARK  status: ('A' for Active; 'I' for Inactive)
REMARK    1  A    between atoms: N_1  and  C_2 
REMARK    2  A    between atoms: C_2  and  C_3 
REMARK    3  A    between atoms: C_3  and  C_4 
REMARK    4  A    between atoms: N_13  and  C_16 
ROOT
HETATM    1  C   UNL     1      41.782 -16.720   4.186  1.00  0.00     0.162 C 
HETATM    2  C   UNL     1      41.674 -17.269   2.739  1.00  0.00     0.061 C 
HETATM    3  C   UNL     1      40.386 -16.870   2.015  1.00  0.00     0.125 C 
HETATM    4  N   UNL     1      40.235 -15.412   2.080  1.00  0.00    -0.380 N 
HETATM    5  C   UNL     1      40.129 -14.896   3.456  1.00  0.00     0.125 C 
HETATM    6  C   UNL     1      41.422 -15.217   4.201  1.00  0.00     0.061 C 
ENDROOT
BRANCH   1   7
HETATM    7  N   UNL     1      40.855 -17.461   5.063  1.00  0.00     0.088 N 
HETATM    8  H   UNL     1      40.326 -18.147   4.523  1.00  0.00     0.313 HD
HETATM    9  H   UNL     1      40.176 -16.851   5.509  1.00  0.00     0.313 HD
ENDBRANCH   1   7
BRANCH   1  10
HETATM   10  C   UNL     1      43.254 -16.943   4.670  1.00  0.00     0.079 C 
BRANCH  10  11
HETATM   11  C   UNL     1      43.734 -18.375   4.773  1.00  0.00    -0.056 A 
HETATM   12  C   UNL     1      44.237 -19.046   3.649  1.00  0.00     0.009 A 
HETATM   13  C   UNL     1      44.687 -20.363   3.752  1.00  0.00     0.024 A 
HETATM   14  C   UNL     1      44.636 -21.021   4.978  1.00  0.00     0.034 A 
HETATM   15 CL   UNL     1      45.188 -22.645   5.105  1.00  0.00    -0.084 Cl
HETATM   16  C   UNL     1      44.138 -20.370   6.104  1.00  0.00     0.024 A 
HETATM   17  C   UNL     1      43.691 -19.050   6.003  1.00  0.00     0.009 A 
ENDBRANCH  10  11
ENDBRANCH   1  10
BRANCH   4  18
HETATM   18  C   UNL     1      39.509 -14.731   1.113  1.00  0.00     0.045 A 
HETATM   19  C   UNL     1      38.146 -14.408   1.269  1.00  0.00     0.047 A 
HETATM   20  C   UNL     1      37.425 -13.759   0.272  1.00  0.00     0.092 A 
HETATM   21  N   UNL     1      38.000 -13.416  -0.884  1.00  0.00    -0.351 N 
HETATM   22  H   UNL     1      37.463 -12.946  -1.610  1.00  0.00     0.166 HD
HETATM   23  C   UNL     1      39.308 -13.719  -1.076  1.00  0.00     0.117 A 
HETATM   24  N   UNL     1      40.063 -13.466  -2.191  1.00  0.00    -0.352 N 
HETATM   25  C   UNL     1      40.091 -14.366  -0.130  1.00  0.00     0.036 A 
HETATM   26  H   UNL     1      39.762 -13.005  -3.041  1.00  0.00     0.166 HD
HETATM   27  C   UNL     1      41.327 -13.962  -1.994  1.00  0.00     0.090 A 
HETATM   28  C   UNL     1      41.369 -14.532  -0.739  1.00  0.00     0.034 A 
ENDBRANCH   4  18
TORSDOF 4
ENDMDL
MODEL 4
REMARK VINA RESULT:      -8.1      1.506      2.186
REMARK  4 active torsions:
REMARK  status: ('A' for Active; 'I' for Inactive)
REMARK    1  A    between atoms: N_1  and  C_2 
REMARK    2  A    between atoms: C_2  and  C_3 
REMARK    3  A    between atoms: C_3  and  C_4 
REMARK    4  A    between atoms: N_13  and  C_16 
ROOT
HETATM    1  C   UNL     1      43.068 -16.376   5.569  1.00  0.00     0.162 C 
HETATM    2  C   UNL     1      41.789 -17.087   5.052  1.00  0.00     0.061 C 
HETATM    3  C   UNL     1      40.714 -16.132   4.527  1.00  0.00     0.125 C 
HETATM    4  N   UNL     1      41.313 -15.245   3.525  1.00  0.00    -0.380 N 
HETATM    5  C   UNL     1      42.402 -14.408   4.060  1.00  0.00     0.125 C 
HETATM    6  C   UNL     1      43.529 -15.319   4.540  1.00  0.00     0.061 C 
ENDROOT
BRANCH   1   7
HETATM    7  N   UNL     1      42.777 -15.719   6.858  1.00  0.00     0.088 N 
HETATM    8  H   UNL     1      42.907 -16.375   7.629  1.00  0.00     0.313 HD
HETATM    9  H   UNL     1      41.819 -15.386   6.913  1.00  0.00     0.313 HD
ENDBRANCH   1   7
BRANCH   1  10
HETATM   10  C   UNL     1      44.170 -17.469   5.773  1.00  0.00     0.079 C 
BRANCH  10  11
HETATM   11  C   UNL     1      44.234 -18.579   4.745  1.00  0.00    -0.056 A 
HETATM   12  C   UNL     1      43.986 -18.318   3.391  1.00  0.00     0.009 A 
HETATM   13  C   UNL     1      44.057 -19.343   2.446  1.00  0.00     0.024 A 
HETATM   14  C   UNL     1      44.374 -20.637   2.849  1.00  0.00     0.034 A 
HETATM   15 CL   UNL     1      44.459 -21.902   1.686  1.00  0.00    -0.084 Cl
HETATM   16  C   UNL     1      44.623 -20.914   4.191  1.00  0.00     0.024 A 
HETATM   17  C   UNL     1      44.556 -19.888   5.136  1.00  0.00     0.009 A 
ENDBRANCH  10  11
ENDBRANCH   1  10
BRANCH   4  18
HETATM   18  C   UNL     1      40.534 -14.671   2.530  1.00  0.00     0.045 A 
HETATM   19  C   UNL     1      39.499 -13.755   2.804  1.00  0.00     0.047 A 
HETATM   20  C   UNL     1      38.703 -13.220   1.796  1.00  0.00     0.092 A 
HETATM   21  N   UNL     1      38.887 -13.561   0.518  1.00  0.00    -0.351 N 
HETATM   22  H   UNL     1      38.297 -13.169  -0.213  1.00  0.00     0.166 HD
HETATM   23  C   UNL     1      39.866 -14.449   0.214  1.00  0.00     0.117 A 
HETATM   24  N   UNL     1      40.194 -14.931  -1.026  1.00  0.00    -0.352 N 
HETATM   25  C   UNL     1      40.698 -15.025   1.164  1.00  0.00     0.036 A 
HETATM   26  H   UNL     1      39.762 -14.690  -1.909  1.00  0.00     0.166 HD
HETATM   27  C   UNL     1      41.218 -15.835  -0.894  1.00  0.00     0.090 A 
HETATM   28  C   UNL     1      41.540 -15.921   0.443  1.00  0.00     0.034 A 
ENDBRANCH   4  18
TORSDOF 4
ENDMDL
MODEL 5
REMARK VINA RESULT:      -8.0      3.836      7.907
REMARK  4 active torsions:
REMARK  status: ('A' for Active; 'I' for Inactive)
REMARK    1  A    between atoms: N_1  and  C_2 
REMARK    2  A    between atoms: C_2  and  C_3 
REMARK    3  A    between atoms: C_3  and  C_4 
REMARK    4  A    between atoms: N_13  and  C_16 
ROOT
HETATM    1  C   UNL     1      41.281 -15.592   0.922  1.00  0.00     0.162 C 
HETATM    2  C   UNL     1      42.240 -15.095   2.037  1.00  0.00     0.061 C 
HETATM    3  C   UNL     1      42.400 -16.073   3.203  1.00  0.00     0.125 C 
HETATM    4  N   UNL     1      42.780 -17.388   2.674  1.00  0.00    -0.380 N 
HETATM    5  C   UNL     1      41.772 -17.966   1.767  1.00  0.00     0.125 C 
HETATM    6  C   UNL     1      41.624 -17.053   0.553  1.00  0.00     0.061 C 
ENDROOT
BRANCH   1   7
HETATM    7  N   UNL     1      39.888 -15.515   1.404  1.00  0.00     0.088 N 
HETATM    8  H   UNL     1      39.751 -16.140   2.198  1.00  0.00     0.313 HD
HETATM    9  H   UNL     1      39.219 -15.793   0.691  1.00  0.00     0.313 HD
ENDBRANCH   1   7
BRANCH   1  10
HETATM   10  C   UNL     1      41.462 -14.650  -0.315  1.00  0.00     0.079 C 
BRANCH  10  11
HETATM   11  C   UNL     1      40.358 -14.659  -1.351  1.00  0.00    -0.056 A 
HETATM   12  C   UNL     1      39.191 -13.906  -1.162  1.00  0.00     0.009 A 
HETATM   13  C   UNL     1      38.180 -13.909  -2.126  1.00  0.00     0.024 A 
HETATM   14  C   UNL     1      38.329 -14.668  -3.284  1.00  0.00     0.034 A 
HETATM   15 CL   UNL     1      37.083 -14.675  -4.471  1.00  0.00    -0.084 Cl
HETATM   16  C   UNL     1      39.481 -15.423  -3.487  1.00  0.00     0.024 A 
HETATM   17  C   UNL     1      40.494 -15.417  -2.525  1.00  0.00     0.009 A 
ENDBRANCH  10  11
ENDBRANCH   1  10
BRANCH   4  18
HETATM   18  C   UNL     1      43.488 -18.289   3.457  1.00  0.00     0.045 A 
HETATM   19  C   UNL     1      44.015 -17.954   4.720  1.00  0.00     0.047 A 
HETATM   20  C   UNL     1      44.756 -18.860   5.472  1.00  0.00     0.092 A 
HETATM   21  N   UNL     1      45.003 -20.092   5.021  1.00  0.00    -0.351 N 
HETATM   22  H   UNL     1      45.550 -20.747   5.576  1.00  0.00     0.166 HD
HETATM   23  C   UNL     1      44.521 -20.449   3.805  1.00  0.00     0.117 A 
HETATM   24  N   UNL     1      44.682 -21.653   3.170  1.00  0.00    -0.352 N 
HETATM   25  C   UNL     1      43.777 -19.602   2.997  1.00  0.00     0.036 A 
HETATM   26  H   UNL     1      45.178 -22.465   3.516  1.00  0.00     0.166 HD
HETATM   27  C   UNL     1      44.070 -21.593   1.943  1.00  0.00     0.090 A 
HETATM   28  C   UNL     1      43.515 -20.339   1.806  1.00  0.00     0.034 A 
ENDBRANCH   4  18
TORSDOF 4
ENDMDL
MODEL 6
REMARK VINA RESULT:      -7.9      3.896      7.785
REMARK  4 active torsions:
REMARK  status: ('A' for Active; 'I' for Inactive)
REMARK    1  A    between atoms: N_1  and  C_2 
REMARK    2  A    between atoms: C_2  and  C_3 
REMARK    3  A    between atoms: C_3  and  C_4 
REMARK    4  A    between atoms: N_13  and  C_16 
ROOT
HETATM    1  C   UNL     1      41.554 -15.657   1.588  1.00  0.00     0.162 C 
HETATM    2  C   UNL     1      42.799 -16.356   0.979  1.00  0.00     0.061 C 
HETATM    3  C   UNL     1      43.758 -16.940   2.019  1.00  0.00     0.125 C 
HETATM    4  N   UNL     1      43.004 -17.814   2.924  1.00  0.00    -0.380 N 
HETATM    5  C   UNL     1      41.944 -17.111   3.668  1.00  0.00     0.125 C 
HETATM    6  C   UNL     1      40.926 -16.563   2.671  1.00  0.00     0.061 C 
ENDROOT
BRANCH   1   7
HETATM    7  N   UNL     1      41.959 -14.371   2.190  1.00  0.00     0.088 N 
HETATM    8  H   UNL     1      41.619 -13.592   1.626  1.00  0.00     0.313 HD
HETATM    9  H   UNL     1      42.968 -14.275   2.248  1.00  0.00     0.313 HD
ENDBRANCH   1   7
BRANCH   1  10
HETATM   10  C   UNL     1      40.538 -15.396   0.426  1.00  0.00     0.079 C 
BRANCH  10  11
HETATM   11  C   UNL     1      41.014 -14.526  -0.719  1.00  0.00    -0.056 A 
HETATM   12  C   UNL     1      41.106 -15.041  -2.020  1.00  0.00     0.009 A 
HETATM   13  C   UNL     1      41.535 -14.232  -3.074  1.00  0.00     0.024 A 
HETATM   14  C   UNL     1      41.877 -12.903  -2.834  1.00  0.00     0.034 A 
HETATM   15 CL   UNL     1      42.408 -11.906  -4.131  1.00  0.00    -0.084 Cl
HETATM   16  C   UNL     1      41.792 -12.377  -1.547  1.00  0.00     0.024 A 
HETATM   17  C   UNL     1      41.359 -13.185  -0.493  1.00  0.00     0.009 A 
ENDBRANCH  10  11
ENDBRANCH   1  10
BRANCH   4  18
HETATM   18  C   UNL     1      43.634 -18.854   3.593  1.00  0.00     0.045 A 
HETATM   19  C   UNL     1      44.131 -18.727   4.906  1.00  0.00     0.047 A 
HETATM   20  C   UNL     1      44.795 -19.769   5.546  1.00  0.00     0.092 A 
HETATM   21  N   UNL     1      44.992 -20.940   4.934  1.00  0.00    -0.351 N 
HETATM   22  H   UNL     1      45.483 -21.695   5.408  1.00  0.00     0.166 HD
HETATM   23  C   UNL     1      44.538 -21.097   3.666  1.00  0.00     0.117 A 
HETATM   24  N   UNL     1      44.659 -22.209   2.873  1.00  0.00    -0.352 N 
HETATM   25  C   UNL     1      43.870 -20.105   2.963  1.00  0.00     0.036 A 
HETATM   26  H   UNL     1      45.098 -23.088   3.117  1.00  0.00     0.166 HD
HETATM   27  C   UNL     1      44.097 -21.945   1.650  1.00  0.00     0.090 A 
HETATM   28  C   UNL     1      43.614 -20.654   1.673  1.00  0.00     0.034 A 
ENDBRANCH   4  18
TORSDOF 4
ENDMDL
MODEL 7
REMARK VINA RESULT:      -7.7      2.051      3.579
REMARK  4 active torsions:
REMARK  status: ('A' for Active; 'I' for Inactive)
REMARK    1  A    between atoms: N_1  and  C_2 
REMARK    2  A    between atoms: C_2  and  C_3 
REMARK    3  A    between atoms: C_3  and  C_4 
REMARK    4  A    between atoms: N_13  and  C_16 
ROOT
HETATM    1  C   UNL     1      42.684 -16.065   4.385  1.00  0.00     0.162 C 
HETATM    2  C   UNL     1      41.466 -16.873   3.863  1.00  0.00     0.061 C 
HETATM    3  C   UNL     1      40.514 -16.064   2.978  1.00  0.00     0.125 C 
HETATM    4  N   UNL     1      41.284 -15.439   1.897  1.00  0.00    -0.380 N 
HETATM    5  C   UNL     1      42.317 -14.504   2.379  1.00  0.00     0.125 C 
HETATM    6  C   UNL     1      43.328 -15.281   3.219  1.00  0.00     0.061 C 
ENDROOT
BRANCH   1   7
HETATM    7  N   UNL     1      42.237 -15.123   5.429  1.00  0.00     0.088 N 
HETATM    8  H   UNL     1      42.480 -15.476   6.354  1.00  0.00     0.313 HD
HETATM    9  H   UNL     1      41.230 -14.989   5.421  1.00  0.00     0.313 HD
ENDBRANCH   1   7
BRANCH   1  10
HETATM   10  C   UNL     1      43.703 -17.083   4.997  1.00  0.00     0.079 C 
BRANCH  10  11
HETATM   11  C   UNL     1      43.951 -18.359   4.219  1.00  0.00    -0.056 A 
HETATM   12  C   UNL     1      43.748 -18.404   2.832  1.00  0.00     0.009 A 
HETATM   13  C   UNL     1      43.988 -19.579   2.118  1.00  0.00     0.024 A 
HETATM   14  C   UNL     1      44.430 -20.718   2.786  1.00  0.00     0.034 A 
HETATM   15 CL   UNL     1      44.724 -22.168   1.907  1.00  0.00    -0.084 Cl
HETATM   16  C   UNL     1      44.636 -20.691   4.163  1.00  0.00     0.024 A 
HETATM   17  C   UNL     1      44.399 -19.514   4.877  1.00  0.00     0.009 A 
ENDBRANCH  10  11
ENDBRANCH   1  10
BRANCH   4  18
HETATM   18  C   UNL     1      40.678 -15.112   0.692  1.00  0.00     0.045 A 
HETATM   19  C   UNL     1      41.189 -15.522  -0.555  1.00  0.00     0.047 A 
HETATM   20  C   UNL     1      40.589 -15.151  -1.755  1.00  0.00     0.092 A 
HETATM   21  N   UNL     1      39.497 -14.383  -1.771  1.00  0.00    -0.351 N 
HETATM   22  H   UNL     1      39.067 -14.112  -2.653  1.00  0.00     0.166 HD
HETATM   23  C   UNL     1      38.981 -13.959  -0.590  1.00  0.00     0.117 A 
HETATM   24  N   UNL     1      37.885 -13.158  -0.404  1.00  0.00    -0.352 N 
HETATM   25  C   UNL     1      39.524 -14.286   0.644  1.00  0.00     0.036 A 
HETATM   26  H   UNL     1      37.285 -12.766  -1.120  1.00  0.00     0.166 HD
HETATM   27  C   UNL     1      37.719 -12.937   0.940  1.00  0.00     0.090 A 
HETATM   28  C   UNL     1      38.720 -13.610   1.608  1.00  0.00     0.034 A 
ENDBRANCH   4  18
TORSDOF 4
ENDMDL
MODEL 8
REMARK VINA RESULT:      -7.7      3.293      5.085
REMARK  4 active torsions:
REMARK  status: ('A' for Active; 'I' for Inactive)
REMARK    1  A    between atoms: N_1  and  C_2 
REMARK    2  A    between atoms: C_2  and  C_3 
REMARK    3  A    between atoms: C_3  and  C_4 
REMARK    4  A    between atoms: N_13  and  C_16 
ROOT
HETATM    1  C   UNL     1      42.365 -16.446   2.124  1.00  0.00     0.162 C 
HETATM    2  C   UNL     1      42.368 -16.792   0.611  1.00  0.00     0.061 C 
HETATM    3  C   UNL     1      41.137 -16.287  -0.146  1.00  0.00     0.125 C 
HETATM    4  N   UNL     1      40.979 -14.851   0.106  1.00  0.00    -0.380 N 
HETATM    5  C   UNL     1      40.768 -14.526   1.528  1.00  0.00     0.125 C 
HETATM    6  C   UNL     1      42.002 -14.956   2.318  1.00  0.00     0.061 C 
ENDROOT
BRANCH   1   7
HETATM    7  N   UNL     1      41.376 -17.293   2.819  1.00  0.00     0.088 N 
HETATM    8  H   UNL     1      41.655 -18.273   2.776  1.00  0.00     0.313 HD
HETATM    9  H   UNL     1      40.454 -17.230   2.399  1.00  0.00     0.313 HD
ENDBRANCH   1   7
BRANCH   1  10
HETATM   10  C   UNL     1      43.797 -16.744   2.683  1.00  0.00     0.079 C 
BRANCH  10  11
HETATM   11  C   UNL     1      44.054 -18.144   3.200  1.00  0.00    -0.056 A 
HETATM   12  C   UNL     1      44.156 -19.228   2.316  1.00  0.00     0.009 A 
HETATM   13  C   UNL     1      44.403 -20.515   2.798  1.00  0.00     0.024 A 
HETATM   14  C   UNL     1      44.549 -20.727   4.166  1.00  0.00     0.034 A 
HETATM   15 CL   UNL     1      44.852 -22.313   4.760  1.00  0.00    -0.084 Cl
HETATM   16  C   UNL     1      44.451 -19.662   5.057  1.00  0.00     0.024 A 
HETATM   17  C   UNL     1      44.207 -18.374   4.576  1.00  0.00     0.009 A 
ENDBRANCH  10  11
ENDBRANCH   1  10
BRANCH   4  18
HETATM   18  C   UNL     1      40.326 -14.038  -0.810  1.00  0.00     0.045 A 
HETATM   19  C   UNL     1      38.921 -13.953  -0.890  1.00  0.00     0.047 A 
HETATM   20  C   UNL     1      38.285 -13.163  -1.842  1.00  0.00     0.092 A 
HETATM   21  N   UNL     1      38.986 -12.450  -2.727  1.00  0.00    -0.351 N 
HETATM   22  H   UNL     1      38.512 -11.878  -3.423  1.00  0.00     0.166 HD
HETATM   23  C   UNL     1      40.340 -12.514  -2.689  1.00  0.00     0.117 A 
HETATM   24  N   UNL     1      41.224 -11.874  -3.518  1.00  0.00    -0.352 N 
HETATM   25  C   UNL     1      41.045 -13.280  -1.772  1.00  0.00     0.036 A 
HETATM   26  H   UNL     1      41.002 -11.246  -4.281  1.00  0.00     0.166 HD
HETATM   27  C   UNL     1      42.501 -12.232  -3.167  1.00  0.00     0.090 A 
HETATM   28  C   UNL     1      42.420 -13.106  -2.103  1.00  0.00     0.034 A 
ENDBRANCH   4  18
TORSDOF 4
ENDMDL
MODEL 9
REMARK VINA RESULT:      -7.7      3.151      7.549
REMARK  4 active torsions:
REMARK  status: ('A' for Active; 'I' for Inactive)
REMARK    1  A    between atoms: N_1  and  C_2 
REMARK    2  A    between atoms: C_2  and  C_3 
REMARK    3  A    between atoms: C_3  and  C_4 
REMARK    4  A    between atoms: N_13  and  C_16 
ROOT
HETATM    1  C   UNL     1      41.521 -15.605   1.248  1.00  0.00     0.162 C 
HETATM    2  C   UNL     1      40.897 -17.004   1.493  1.00  0.00     0.061 C 
HETATM    3  C   UNL     1      41.925 -18.126   1.657  1.00  0.00     0.125 C 
HETATM    4  N   UNL     1      42.884 -17.744   2.699  1.00  0.00    -0.380 N 
HETATM    5  C   UNL     1      43.637 -16.518   2.380  1.00  0.00     0.125 C 
HETATM    6  C   UNL     1      42.655 -15.354   2.268  1.00  0.00     0.061 C 
ENDROOT
BRANCH   1   7
HETATM    7  N   UNL     1      42.065 -15.543  -0.123  1.00  0.00     0.088 N 
HETATM    8  H   UNL     1      41.913 -14.618  -0.524  1.00  0.00     0.313 HD
HETATM    9  H   UNL     1      41.617 -16.210  -0.745  1.00  0.00     0.313 HD
ENDBRANCH   1   7
BRANCH   1  10
HETATM   10  C   UNL     1      40.384 -14.542   1.411  1.00  0.00     0.079 C 
BRANCH  10  11
HETATM   11  C   UNL     1      40.193 -13.946   2.790  1.00  0.00    -0.056 A 
HETATM   12  C   UNL     1      39.945 -14.768   3.898  1.00  0.00     0.009 A 
HETATM   13  C   UNL     1      39.781 -14.214   5.169  1.00  0.00     0.024 A 
HETATM   14  C   UNL     1      39.861 -12.835   5.341  1.00  0.00     0.034 A 
HETATM   15 CL   UNL     1      39.656 -12.152   6.906  1.00  0.00    -0.084 Cl
HETATM   16  C   UNL     1      40.106 -12.004   4.250  1.00  0.00     0.024 A 
HETATM   17  C   UNL     1      40.274 -12.558   2.979  1.00  0.00     0.009 A 
ENDBRANCH  10  11
ENDBRANCH   1  10
BRANCH   4  18
HETATM   18  C   UNL     1      43.568 -18.711   3.423  1.00  0.00     0.045 A 
HETATM   19  C   UNL     1      44.248 -19.783   2.810  1.00  0.00     0.047 A 
HETATM   20  C   UNL     1      44.895 -20.765   3.554  1.00  0.00     0.092 A 
HETATM   21  N   UNL     1      44.894 -20.732   4.889  1.00  0.00    -0.351 N 
HETATM   22  H   UNL     1      45.367 -21.457   5.425  1.00  0.00     0.166 HD
HETATM   23  C   UNL     1      44.242 -19.722   5.515  1.00  0.00     0.117 A 
HETATM   24  N   UNL     1      44.115 -19.527   6.866  1.00  0.00    -0.352 N 
HETATM   25  C   UNL     1      43.573 -18.709   4.843  1.00  0.00     0.036 A 
HETATM   26  H   UNL     1      44.499 -20.103   7.605  1.00  0.00     0.166 HD
HETATM   27  C   UNL     1      43.350 -18.409   7.084  1.00  0.00     0.090 A 
HETATM   28  C   UNL     1      42.993 -17.892   5.857  1.00  0.00     0.034 A 
ENDBRANCH   4  18
TORSDOF 4
ENDMDL
MODEL 10
REMARK VINA RESULT:      -7.7      3.640      7.810
REMARK  4 active torsions:
REMARK  status: ('A' for Active; 'I' for Inactive)
REMARK    1  A    between atoms: N_1  and  C_2 
REMARK    2  A    between atoms: C_2  and  C_3 
REMARK    3  A    between atoms: C_3  and  C_4 
REMARK    4  A    between atoms: N_13  and  C_16 
ROOT
HETATM    1  C   UNL     1      40.188 -15.223   1.865  1.00  0.00     0.162 C 
HETATM    2  C   UNL     1      40.789 -15.450   3.278  1.00  0.00     0.061 C 
HETATM    3  C   UNL     1      41.126 -16.911   3.585  1.00  0.00     0.125 C 
HETATM    4  N   UNL     1      41.980 -17.438   2.516  1.00  0.00    -0.380 N 
HETATM    5  C   UNL     1      41.336 -17.418   1.190  1.00  0.00     0.125 C 
HETATM    6  C   UNL     1      41.037 -15.969   0.812  1.00  0.00     0.061 C 
ENDROOT
BRANCH   1   7
HETATM    7  N   UNL     1      38.802 -15.729   1.835  1.00  0.00     0.088 N 
HETATM    8  H   UNL     1      38.319 -15.392   1.002  1.00  0.00     0.313 HD
HETATM    9  H   UNL     1      38.261 -15.417   2.636  1.00  0.00     0.313 HD
ENDBRANCH   1   7
BRANCH   1  10
HETATM   10  C   UNL     1      40.191 -13.682   1.589  1.00  0.00     0.079 C 
BRANCH  10  11
HETATM   11  C   UNL     1      40.684 -13.229   0.231  1.00  0.00    -0.056 A 
HETATM   12  C   UNL     1      41.980 -12.717   0.073  1.00  0.00     0.009 A 
HETATM   13  C   UNL     1      42.434 -12.310  -1.183  1.00  0.00     0.024 A 
HETATM   14  C   UNL     1      41.594 -12.411  -2.289  1.00  0.00     0.034 A 
HETATM   15 CL   UNL     1      42.152 -11.908  -3.837  1.00  0.00    -0.084 Cl
HETATM   16  C   UNL     1      40.304 -12.916  -2.150  1.00  0.00     0.024 A 
HETATM   17  C   UNL     1      39.851 -13.327  -0.894  1.00  0.00     0.009 A 
ENDBRANCH  10  11
ENDBRANCH   1  10
BRANCH   4  18
HETATM   18  C   UNL     1      42.850 -18.492   2.757  1.00  0.00     0.045 A 
HETATM   19  C   UNL     1      42.966 -19.599   1.893  1.00  0.00     0.047 A 
HETATM   20  C   UNL     1      43.815 -20.665   2.172  1.00  0.00     0.092 A 
HETATM   21  N   UNL     1      44.557 -20.683   3.282  1.00  0.00    -0.351 N 
HETATM   22  H   UNL     1      45.173 -21.470   3.481  1.00  0.00     0.166 HD
HETATM   23  C   UNL     1      44.465 -19.641   4.145  1.00  0.00     0.117 A 
HETATM   24  N   UNL     1      45.128 -19.487   5.335  1.00  0.00    -0.352 N 
HETATM   25  C   UNL     1      43.640 -18.545   3.936  1.00  0.00     0.036 A 
HETATM   26  H   UNL     1      45.797 -20.125   5.748  1.00  0.00     0.166 HD
HETATM   27  C   UNL     1      44.727 -18.312   5.918  1.00  0.00     0.090 A 
HETATM   28  C   UNL     1      43.804 -17.717   5.084  1.00  0.00     0.034 A 
ENDBRANCH   4  18
TORSDOF 4
ENDMDL
