MODEL 1
REMARK VINA RESULT:      -8.6      0.000      0.000
REMARK  3 active torsions:
REMARK  status: ('A' for Active; 'I' for Inactive)
REMARK    1  A    between atoms: O_2  and  C_3 
REMARK    2  A    between atoms: C_7  and  C_8 
REMARK    3  A    between atoms: C_19  and  N_20 
ROOT
HETATM    1  C   UNL     1      44.070 -17.928   5.446  1.00  0.00     0.244 A 
HETATM    2  N   UNL     1      44.121 -19.369   5.537  1.00  0.00    -0.151 N 
HETATM    3  C   UNL     1      44.016 -19.998   6.752  1.00  0.00     0.734 A 
HETATM    4  N   UNL     1      44.129 -21.297   6.587  1.00  0.00    -0.060 NA
HETATM    5  C   UNL     1      44.348 -21.501   5.246  1.00  0.00     0.103 A 
HETATM    6  C   UNL     1      44.358 -20.293   4.555  1.00  0.00     0.083 A 
HETATM    7  C   UNL     1      44.553 -22.699   4.548  1.00  0.00     0.034 A 
HETATM    8  C   UNL     1      44.768 -22.642   3.167  1.00  0.00     0.002 A 
HETATM    9  C   UNL     1      44.776 -21.418   2.495  1.00  0.00     0.002 A 
HETATM   10  C   UNL     1      44.572 -20.212   3.175  1.00  0.00     0.033 A 
HETATM   11  N   UNL     1      43.827 -19.328   7.910  1.00  0.00    -0.033 NA
HETATM   12  C   UNL     1      43.775 -18.045   7.889  1.00  0.00     0.193 A 
HETATM   13  N   UNL     1      43.897 -17.264   6.735  1.00  0.00    -0.339 N 
HETATM   14  H   UNL     1      43.904 -16.259   6.792  1.00  0.00     0.164 HD
ENDROOT
BRANCH   1  15
HETATM   15  C   UNL     1      42.945 -17.436   4.554  1.00  0.00    -0.014 A 
HETATM   16  C   UNL     1      43.140 -17.225   3.179  1.00  0.00     0.033 A 
HETATM   17  C   UNL     1      42.078 -16.818   2.361  1.00  0.00     0.044 A 
HETATM   18  C   UNL     1      40.794 -16.621   2.892  1.00  0.00     0.085 A 
HETATM   19 BR   UNL     1      42.440 -16.564   0.514  1.00  0.00    -0.048 Br
HETATM   20  C   UNL     1      40.599 -16.830   4.260  1.00  0.00     0.039 A 
HETATM   21  C   UNL     1      41.659 -17.238   5.081  1.00  0.00     0.014 A 
BRANCH  18  22
HETATM   22  O   UNL     1      39.815 -16.236   2.018  1.00  0.00    -0.355 OA
HETATM   23  C   UNL     1      39.278 -14.926   2.151  1.00  0.00     0.210 C 
ENDBRANCH  18  22
ENDBRANCH   1  15
BRANCH  12  24
HETATM   24  N   UNL     1      43.598 -17.301   8.999  1.00  0.00    -0.272 NA
HETATM   25  H   UNL     1      44.490 -17.117   9.455  1.00  0.00     0.127 HD
HETATM   26  H   UNL     1      42.923 -17.648   9.668  1.00  0.00     0.127 HD
ENDBRANCH  12  24
TORSDOF 3
ENDMDL
MODEL 2
REMARK VINA RESULT:      -8.0      2.908      3.750
REMARK  3 active torsions:
REMARK  status: ('A' for Active; 'I' for Inactive)
REMARK    1  A    between atoms: O_2  and  C_3 
REMARK    2  A    between atoms: C_7  and  C_8 
REMARK    3  A    between atoms: C_19  and  N_20 
ROOT
HETATM    1  C   UNL     1      43.451 -15.693   6.035  1.00  0.00     0.244 A 
HETATM    2  N   UNL     1      43.420 -16.907   5.252  1.00  0.00    -0.151 N 
HETATM    3  C   UNL     1      43.432 -18.135   5.864  1.00  0.00     0.734 A 
HETATM    4  N   UNL     1      43.438 -19.081   4.952  1.00  0.00    -0.060 NA
HETATM    5  C   UNL     1      43.468 -18.447   3.734  1.00  0.00     0.103 A 
HETATM    6  C   UNL     1      43.467 -17.065   3.894  1.00  0.00     0.083 A 
HETATM    7  C   UNL     1      43.503 -18.994   2.444  1.00  0.00     0.034 A 
HETATM    8  C   UNL     1      43.540 -18.126   1.348  1.00  0.00     0.002 A 
HETATM    9  C   UNL     1      43.541 -16.742   1.532  1.00  0.00     0.002 A 
HETATM   10  C   UNL     1      43.505 -16.177   2.812  1.00  0.00     0.033 A 
HETATM   11  N   UNL     1      43.439 -18.285   7.207  1.00  0.00    -0.033 NA
HETATM   12  C   UNL     1      43.468 -17.240   7.953  1.00  0.00     0.193 A 
HETATM   13  N   UNL     1      43.490 -15.924   7.476  1.00  0.00    -0.339 N 
HETATM   14  H   UNL     1      43.570 -15.148   8.113  1.00  0.00     0.164 HD
ENDROOT
BRANCH   1  15
HETATM   15  C   UNL     1      42.254 -14.796   5.775  1.00  0.00    -0.014 A 
HETATM   16  C   UNL     1      42.377 -13.397   5.762  1.00  0.00     0.033 A 
HETATM   17  C   UNL     1      41.272 -12.586   5.471  1.00  0.00     0.044 A 
HETATM   18  C   UNL     1      40.022 -13.150   5.179  1.00  0.00     0.085 A 
HETATM   19 BR   UNL     1      41.541 -10.705   5.471  1.00  0.00    -0.048 Br
HETATM   20  C   UNL     1      39.897 -14.542   5.193  1.00  0.00     0.039 A 
HETATM   21  C   UNL     1      41.001 -15.356   5.482  1.00  0.00     0.014 A 
BRANCH  18  22
HETATM   22  O   UNL     1      39.003 -12.283   4.896  1.00  0.00    -0.355 OA
HETATM   23  C   UNL     1      38.763 -11.954   3.533  1.00  0.00     0.210 C 
ENDBRANCH  18  22
ENDBRANCH   1  15
BRANCH  12  24
HETATM   24  N   UNL     1      43.485 -17.301   9.299  1.00  0.00    -0.272 NA
HETATM   25  H   UNL     1      42.758 -17.927   9.641  1.00  0.00     0.127 HD
HETATM   26  H   UNL     1      43.450 -16.416   9.789  1.00  0.00     0.127 HD
ENDBRANCH  12  24
TORSDOF 3
ENDMDL
MODEL 3
REMARK VINA RESULT:      -7.8      3.039      4.462
REMARK  3 active torsions:
REMARK  status: ('A' for Active; 'I' for Inactive)
REMARK    1  A    between atoms: O_2  and  C_3 
REMARK    2  A    between atoms: C_7  and  C_8 
REMARK    3  A    between atoms: C_19  and  N_20 
ROOT
HETATM    1  C   UNL     1      41.822 -14.514   3.642  1.00  0.00     0.244 A 
HETATM    2  N   UNL     1      42.010 -15.937   3.811  1.00  0.00    -0.151 N 
HETATM    3  C   UNL     1      41.462 -16.593   4.884  1.00  0.00     0.734 A 
HETATM    4  N   UNL     1      41.800 -17.863   4.842  1.00  0.00    -0.060 NA
HETATM    5  C   UNL     1      42.609 -18.014   3.743  1.00  0.00     0.103 A 
HETATM    6  C   UNL     1      42.769 -16.805   3.073  1.00  0.00     0.083 A 
HETATM    7  C   UNL     1      43.251 -19.162   3.259  1.00  0.00     0.034 A 
HETATM    8  C   UNL     1      44.041 -19.056   2.110  1.00  0.00     0.002 A 
HETATM    9  C   UNL     1      44.189 -17.831   1.455  1.00  0.00     0.002 A 
HETATM   10  C   UNL     1      43.555 -16.674   1.923  1.00  0.00     0.033 A 
HETATM   11  N   UNL     1      40.701 -15.973   5.812  1.00  0.00    -0.033 NA
HETATM   12  C   UNL     1      40.501 -14.708   5.713  1.00  0.00     0.193 A 
HETATM   13  N   UNL     1      41.018 -13.900   4.695  1.00  0.00    -0.339 N 
HETATM   14  H   UNL     1      40.871 -12.903   4.705  1.00  0.00     0.164 HD
ENDROOT
BRANCH   1  15
HETATM   15  C   UNL     1      41.150 -14.162   2.327  1.00  0.00    -0.014 A 
HETATM   16  C   UNL     1      41.833 -13.457   1.323  1.00  0.00     0.033 A 
HETATM   17  C   UNL     1      41.215 -13.184   0.095  1.00  0.00     0.044 A 
HETATM   18  C   UNL     1      39.905 -13.615  -0.163  1.00  0.00     0.085 A 
HETATM   19 BR   UNL     1      42.223 -12.229  -1.202  1.00  0.00    -0.048 Br
HETATM   20  C   UNL     1      39.224 -14.316   0.836  1.00  0.00     0.039 A 
HETATM   21  C   UNL     1      39.840 -14.592   2.064  1.00  0.00     0.014 A 
BRANCH  18  22
HETATM   22  O   UNL     1      39.386 -13.315  -1.392  1.00  0.00    -0.355 OA
HETATM   23  C   UNL     1      38.138 -13.895  -1.751  1.00  0.00     0.210 C 
ENDBRANCH  18  22
ENDBRANCH   1  15
BRANCH  12  24
HETATM   24  N   UNL     1      39.762 -14.012   6.600  1.00  0.00    -0.272 NA
HETATM   25  H   UNL     1      40.292 -13.839   7.452  1.00  0.00     0.127 HD
HETATM   26  H   UNL     1      38.850 -14.392   6.819  1.00  0.00     0.127 HD
ENDBRANCH  12  24
TORSDOF 3
ENDMDL
MODEL 4
REMARK VINA RESULT:      -7.7      2.399      3.535
REMARK  3 active torsions:
REMARK  status: ('A' for Active; 'I' for Inactive)
REMARK    1  A    between atoms: O_2  and  C_3 
REMARK    2  A    between atoms: C_7  and  C_8 
REMARK    3  A    between atoms: C_19  and  N_20 
ROOT
HETATM    1  C   UNL     1      43.234 -14.746   3.565  1.00  0.00     0.244 A 
HETATM    2  N   UNL     1      43.441 -16.103   4.014  1.00  0.00    -0.151 N 
HETATM    3  C   UNL     1      43.574 -16.387   5.350  1.00  0.00     0.734 A 
HETATM    4  N   UNL     1      43.791 -17.674   5.507  1.00  0.00    -0.060 NA
HETATM    5  C   UNL     1      43.834 -18.217   4.247  1.00  0.00     0.103 A 
HETATM    6  C   UNL     1      43.625 -17.242   3.277  1.00  0.00     0.083 A 
HETATM    7  C   UNL     1      44.056 -19.545   3.856  1.00  0.00     0.034 A 
HETATM    8  C   UNL     1      44.063 -19.850   2.491  1.00  0.00     0.002 A 
HETATM    9  C   UNL     1      43.853 -18.854   1.535  1.00  0.00     0.002 A 
HETATM   10  C   UNL     1      43.629 -17.523   1.906  1.00  0.00     0.033 A 
HETATM   11  N   UNL     1      43.488 -15.441   6.311  1.00  0.00    -0.033 NA
HETATM   12  C   UNL     1      43.306 -14.217   5.970  1.00  0.00     0.193 A 
HETATM   13  N   UNL     1      43.183 -13.770   4.650  1.00  0.00    -0.339 N 
HETATM   14  H   UNL     1      43.098 -12.788   4.446  1.00  0.00     0.164 HD
ENDROOT
BRANCH   1  15
HETATM   15  C   UNL     1      41.949 -14.578   2.775  1.00  0.00    -0.014 A 
HETATM   16  C   UNL     1      41.967 -14.229   1.415  1.00  0.00     0.033 A 
HETATM   17  C   UNL     1      40.774 -14.127   0.688  1.00  0.00     0.044 A 
HETATM   18  C   UNL     1      39.536 -14.379   1.297  1.00  0.00     0.085 A 
HETATM   19 BR   UNL     1      40.903 -13.656  -1.148  1.00  0.00    -0.048 Br
HETATM   20  C   UNL     1      39.516 -14.724   2.651  1.00  0.00     0.039 A 
HETATM   21  C   UNL     1      40.708 -14.828   3.380  1.00  0.00     0.014 A 
BRANCH  18  22
HETATM   22  O   UNL     1      38.424 -14.267   0.508  1.00  0.00    -0.355 OA
HETATM   23  C   UNL     1      37.522 -13.199   0.770  1.00  0.00     0.210 C 
ENDBRANCH  18  22
ENDBRANCH   1  15
BRANCH  12  24
HETATM   24  N   UNL     1      43.218 -13.213   6.866  1.00  0.00    -0.272 NA
HETATM   25  H   UNL     1      42.399 -13.331   7.460  1.00  0.00     0.127 HD
HETATM   26  H   UNL     1      43.251 -12.273   6.490  1.00  0.00     0.127 HD
ENDBRANCH  12  24
TORSDOF 3
ENDMDL
MODEL 5
REMARK VINA RESULT:      -7.7      3.123      5.949
REMARK  3 active torsions:
REMARK  status: ('A' for Active; 'I' for Inactive)
REMARK    1  A    between atoms: O_2  and  C_3 
REMARK    2  A    between atoms: C_7  and  C_8 
REMARK    3  A    between atoms: C_19  and  N_20 
ROOT
HETATM    1  C   UNL     1      42.470 -15.995   5.139  1.00  0.00     0.244 A 
HETATM    2  N   UNL     1      42.526 -15.187   3.942  1.00  0.00    -0.151 N 
HETATM    3  C   UNL     1      43.053 -13.921   3.976  1.00  0.00     0.734 A 
HETATM    4  N   UNL     1      42.960 -13.374   2.784  1.00  0.00    -0.060 NA
HETATM    5  C   UNL     1      42.328 -14.293   1.983  1.00  0.00     0.103 A 
HETATM    6  C   UNL     1      42.030 -15.451   2.694  1.00  0.00     0.083 A 
HETATM    7  C   UNL     1      41.968 -14.199   0.631  1.00  0.00     0.034 A 
HETATM    8  C   UNL     1      41.313 -15.282   0.035  1.00  0.00     0.002 A 
HETATM    9  C   UNL     1      41.023 -16.434   0.768  1.00  0.00     0.002 A 
HETATM   10  C   UNL     1      41.375 -16.546   2.119  1.00  0.00     0.033 A 
HETATM   11  N   UNL     1      43.573 -13.373   5.096  1.00  0.00    -0.033 NA
HETATM   12  C   UNL     1      43.550 -14.046   6.190  1.00  0.00     0.193 A 
HETATM   13  N   UNL     1      43.018 -15.333   6.319  1.00  0.00    -0.339 N 
HETATM   14  H   UNL     1      42.978 -15.785   7.219  1.00  0.00     0.164 HD
ENDROOT
BRANCH   1  15
HETATM   15  C   UNL     1      43.216 -17.309   4.996  1.00  0.00    -0.014 A 
HETATM   16  C   UNL     1      43.090 -18.101   3.844  1.00  0.00     0.033 A 
HETATM   17  C   UNL     1      43.825 -19.286   3.708  1.00  0.00     0.044 A 
HETATM   18  C   UNL     1      44.709 -19.705   4.712  1.00  0.00     0.085 A 
HETATM   19 BR   UNL     1      43.589 -20.285   2.109  1.00  0.00    -0.048 Br
HETATM   20  C   UNL     1      44.835 -18.918   5.861  1.00  0.00     0.039 A 
HETATM   21  C   UNL     1      44.102 -17.732   6.000  1.00  0.00     0.014 A 
BRANCH  18  22
HETATM   22  O   UNL     1      45.394 -20.867   4.490  1.00  0.00    -0.355 OA
HETATM   23  C   UNL     1      44.962 -22.039   5.170  1.00  0.00     0.210 C 
ENDBRANCH  18  22
ENDBRANCH   1  15
BRANCH  12  24
HETATM   24  N   UNL     1      44.039 -13.570   7.353  1.00  0.00    -0.272 NA
HETATM   25  H   UNL     1      44.870 -14.088   7.632  1.00  0.00     0.127 HD
HETATM   26  H   UNL     1      43.384 -13.507   8.122  1.00  0.00     0.127 HD
ENDBRANCH  12  24
TORSDOF 3
ENDMDL
MODEL 6
REMARK VINA RESULT:      -7.5      3.762      5.329
REMARK  3 active torsions:
REMARK  status: ('A' for Active; 'I' for Inactive)
REMARK    1  A    between atoms: O_2  and  C_3 
REMARK    2  A    between atoms: C_7  and  C_8 
REMARK    3  A    between atoms: C_19  and  N_20 
ROOT
HETATM    1  C   UNL     1      40.897 -16.508   4.185  1.00  0.00     0.244 A 
HETATM    2  N   UNL     1      42.074 -17.287   4.494  1.00  0.00    -0.151 N 
HETATM    3  C   UNL     1      42.699 -18.028   3.523  1.00  0.00     0.734 A 
HETATM    4  N   UNL     1      43.715 -18.676   4.050  1.00  0.00    -0.060 NA
HETATM    5  C   UNL     1      43.716 -18.374   5.389  1.00  0.00     0.103 A 
HETATM    6  C   UNL     1      42.679 -17.502   5.703  1.00  0.00     0.083 A 
HETATM    7  C   UNL     1      44.577 -18.818   6.402  1.00  0.00     0.034 A 
HETATM    8  C   UNL     1      44.363 -18.369   7.710  1.00  0.00     0.002 A 
HETATM    9  C   UNL     1      43.314 -17.495   8.002  1.00  0.00     0.002 A 
HETATM   10  C   UNL     1      42.444 -17.040   7.003  1.00  0.00     0.033 A 
HETATM   11  N   UNL     1      42.285 -18.049   2.237  1.00  0.00    -0.033 NA
HETATM   12  C   UNL     1      41.244 -17.376   1.905  1.00  0.00     0.193 A 
HETATM   13  N   UNL     1      40.484 -16.600   2.787  1.00  0.00    -0.339 N 
HETATM   14  H   UNL     1      39.644 -16.141   2.475  1.00  0.00     0.164 HD
ENDROOT
BRANCH   1  15
HETATM   15  C   UNL     1      41.075 -15.031   4.485  1.00  0.00    -0.014 A 
HETATM   16  C   UNL     1      40.292 -14.383   5.454  1.00  0.00     0.033 A 
HETATM   17  C   UNL     1      40.503 -13.031   5.754  1.00  0.00     0.044 A 
HETATM   18  C   UNL     1      41.504 -12.296   5.102  1.00  0.00     0.085 A 
HETATM   19 BR   UNL     1      39.397 -12.244   7.084  1.00  0.00    -0.048 Br
HETATM   20  C   UNL     1      42.283 -12.940   4.137  1.00  0.00     0.039 A 
HETATM   21  C   UNL     1      42.075 -14.292   3.835  1.00  0.00     0.014 A 
BRANCH  18  22
HETATM   22  O   UNL     1      41.647 -10.985   5.467  1.00  0.00    -0.355 OA
HETATM   23  C   UNL     1      41.124  -9.988   4.598  1.00  0.00     0.210 C 
ENDBRANCH  18  22
ENDBRANCH   1  15
BRANCH  12  24
HETATM   24  N   UNL     1      40.760 -17.350   0.646  1.00  0.00    -0.272 NA
HETATM   25  H   UNL     1      41.508 -17.183  -0.024  1.00  0.00     0.127 HD
HETATM   26  H   UNL     1      39.985 -16.720   0.477  1.00  0.00     0.127 HD
ENDBRANCH  12  24
TORSDOF 3
ENDMDL
MODEL 7
REMARK VINA RESULT:      -7.5      3.732      6.744
REMARK  3 active torsions:
REMARK  status: ('A' for Active; 'I' for Inactive)
REMARK    1  A    between atoms: O_2  and  C_3 
REMARK    2  A    between atoms: C_7  and  C_8 
REMARK    3  A    between atoms: C_19  and  N_20 
ROOT
HETATM    1  C   UNL     1      40.691 -15.998   3.171  1.00  0.00     0.244 A 
HETATM    2  N   UNL     1      41.079 -14.760   2.534  1.00  0.00    -0.151 N 
HETATM    3  C   UNL     1      41.136 -13.591   3.251  1.00  0.00     0.734 A 
HETATM    4  N   UNL     1      41.473 -12.602   2.453  1.00  0.00    -0.060 NA
HETATM    5  C   UNL     1      41.597 -13.142   1.196  1.00  0.00     0.103 A 
HETATM    6  C   UNL     1      41.343 -14.509   1.215  1.00  0.00     0.083 A 
HETATM    7  C   UNL     1      41.921 -12.515  -0.015  1.00  0.00     0.034 A 
HETATM    8  C   UNL     1      41.975 -13.290  -1.178  1.00  0.00     0.002 A 
HETATM    9  C   UNL     1      41.714 -14.661  -1.136  1.00  0.00     0.002 A 
HETATM   10  C   UNL     1      41.390 -15.305   0.064  1.00  0.00     0.033 A 
HETATM   11  N   UNL     1      40.872 -13.530   4.574  1.00  0.00    -0.033 NA
HETATM   12  C   UNL     1      40.521 -14.599   5.193  1.00  0.00     0.193 A 
HETATM   13  N   UNL     1      40.389 -15.856   4.593  1.00  0.00    -0.339 N 
HETATM   14  H   UNL     1      40.054 -16.645   5.122  1.00  0.00     0.164 HD
ENDROOT
BRANCH   1  15
HETATM   15  C   UNL     1      41.756 -17.074   3.063  1.00  0.00    -0.014 A 
HETATM   16  C   UNL     1      42.647 -17.330   4.117  1.00  0.00     0.033 A 
HETATM   17  C   UNL     1      43.592 -18.360   4.019  1.00  0.00     0.044 A 
HETATM   18  C   UNL     1      43.664 -19.164   2.872  1.00  0.00     0.085 A 
HETATM   19 BR   UNL     1      44.749 -18.632   5.501  1.00  0.00    -0.048 Br
HETATM   20  C   UNL     1      42.778 -18.910   1.821  1.00  0.00     0.039 A 
HETATM   21  C   UNL     1      41.832 -17.881   1.917  1.00  0.00     0.014 A 
BRANCH  18  22
HETATM   22  O   UNL     1      44.608 -20.154   2.868  1.00  0.00    -0.355 OA
HETATM   23  C   UNL     1      44.300 -21.371   2.202  1.00  0.00     0.210 C 
ENDBRANCH  18  22
ENDBRANCH   1  15
BRANCH  12  24
HETATM   24  N   UNL     1      40.233 -14.623   6.509  1.00  0.00    -0.272 NA
HETATM   25  H   UNL     1      41.081 -14.532   7.066  1.00  0.00     0.127 HD
HETATM   26  H   UNL     1      39.678 -15.405   6.832  1.00  0.00     0.127 HD
ENDBRANCH  12  24
TORSDOF 3
ENDMDL
MODEL 8
REMARK VINA RESULT:      -7.4      3.529      5.163
REMARK  3 active torsions:
REMARK  status: ('A' for Active; 'I' for Inactive)
REMARK    1  A    between atoms: O_2  and  C_3 
REMARK    2  A    between atoms: C_7  and  C_8 
REMARK    3  A    between atoms: C_19  and  N_20 
ROOT
HETATM    1  C   UNL     1      42.710 -13.862   2.493  1.00  0.00     0.244 A 
HETATM    2  N   UNL     1      42.793 -15.079   3.268  1.00  0.00    -0.151 N 
HETATM    3  C   UNL     1      42.522 -15.073   4.613  1.00  0.00     0.734 A 
HETATM    4  N   UNL     1      42.701 -16.279   5.103  1.00  0.00    -0.060 NA
HETATM    5  C   UNL     1      43.132 -17.062   4.061  1.00  0.00     0.103 A 
HETATM    6  C   UNL     1      43.210 -16.325   2.884  1.00  0.00     0.083 A 
HETATM    7  C   UNL     1      43.482 -18.420   4.051  1.00  0.00     0.034 A 
HETATM    8  C   UNL     1      43.906 -18.995   2.848  1.00  0.00     0.002 A 
HETATM    9  C   UNL     1      43.979 -18.234   1.679  1.00  0.00     0.002 A 
HETATM   10  C   UNL     1      43.632 -16.878   1.669  1.00  0.00     0.033 A 
HETATM   11  N   UNL     1      42.134 -13.962   5.277  1.00  0.00    -0.033 NA
HETATM   12  C   UNL     1      42.043 -12.851   4.639  1.00  0.00     0.193 A 
HETATM   13  N   UNL     1      42.317 -12.694   3.276  1.00  0.00    -0.339 N 
HETATM   14  H   UNL     1      42.283 -11.784   2.847  1.00  0.00     0.164 HD
ENDROOT
BRANCH   1  15
HETATM   15  C   UNL     1      41.721 -13.963   1.346  1.00  0.00    -0.014 A 
HETATM   16  C   UNL     1      40.337 -14.014   1.575  1.00  0.00     0.033 A 
HETATM   17  C   UNL     1      39.436 -14.056   0.503  1.00  0.00     0.044 A 
HETATM   18  C   UNL     1      39.893 -14.041  -0.823  1.00  0.00     0.085 A 
HETATM   19 BR   UNL     1      37.582 -14.117   0.916  1.00  0.00    -0.048 Br
HETATM   20  C   UNL     1      41.271 -13.992  -1.053  1.00  0.00     0.039 A 
HETATM   21  C   UNL     1      42.174 -13.948   0.017  1.00  0.00     0.014 A 
BRANCH  18  22
HETATM   22  O   UNL     1      38.943 -14.074  -1.806  1.00  0.00    -0.355 OA
HETATM   23  C   UNL     1      39.302 -14.629  -3.065  1.00  0.00     0.210 C 
ENDBRANCH  18  22
ENDBRANCH   1  15
BRANCH  12  24
HETATM   24  N   UNL     1      41.673 -11.697   5.228  1.00  0.00    -0.272 NA
HETATM   25  H   UNL     1      42.472 -11.245   5.669  1.00  0.00     0.127 HD
HETATM   26  H   UNL     1      40.895 -11.752   5.873  1.00  0.00     0.127 HD
ENDBRANCH  12  24
TORSDOF 3
ENDMDL
MODEL 9
REMARK VINA RESULT:      -7.4      4.109      7.110
REMARK  3 active torsions:
REMARK  status: ('A' for Active; 'I' for Inactive)
REMARK    1  A    between atoms: O_2  and  C_3 
REMARK    2  A    between atoms: C_7  and  C_8 
REMARK    3  A    between atoms: C_19  and  N_20 
ROOT
HETATM    1  C   UNL     1      42.745 -15.913   1.665  1.00  0.00     0.244 A 
HETATM    2  N   UNL     1      41.593 -15.420   2.385  1.00  0.00    -0.151 N 
HETATM    3  C   UNL     1      40.418 -15.153   1.729  1.00  0.00     0.734 A 
HETATM    4  N   UNL     1      39.535 -14.682   2.581  1.00  0.00    -0.060 NA
HETATM    5  C   UNL     1      40.168 -14.612   3.797  1.00  0.00     0.103 A 
HETATM    6  C   UNL     1      41.480 -15.065   3.702  1.00  0.00     0.083 A 
HETATM    7  C   UNL     1      39.680 -14.162   5.032  1.00  0.00     0.034 A 
HETATM    8  C   UNL     1      40.535 -14.180   6.139  1.00  0.00     0.002 A 
HETATM    9  C   UNL     1      41.850 -14.637   6.019  1.00  0.00     0.002 A 
HETATM   10  C   UNL     1      42.355 -15.091   4.794  1.00  0.00     0.033 A 
HETATM   11  N   UNL     1      40.256 -15.361   0.404  1.00  0.00    -0.033 NA
HETATM   12  C   UNL     1      41.246 -15.797  -0.287  1.00  0.00     0.193 A 
HETATM   13  N   UNL     1      42.512 -16.085   0.234  1.00  0.00    -0.339 N 
HETATM   14  H   UNL     1      43.264 -16.371  -0.372  1.00  0.00     0.164 HD
ENDROOT
BRANCH   1  15
HETATM   15  C   UNL     1      43.234 -17.252   2.186  1.00  0.00    -0.014 A 
HETATM   16  C   UNL     1      43.742 -17.390   3.487  1.00  0.00     0.033 A 
HETATM   17  C   UNL     1      44.143 -18.643   3.969  1.00  0.00     0.044 A 
HETATM   18  C   UNL     1      44.039 -19.789   3.167  1.00  0.00     0.085 A 
HETATM   19 BR   UNL     1      44.812 -18.727   5.745  1.00  0.00    -0.048 Br
HETATM   20  C   UNL     1      43.534 -19.654   1.871  1.00  0.00     0.039 A 
HETATM   21  C   UNL     1      43.131 -18.402   1.387  1.00  0.00     0.014 A 
BRANCH  18  22
HETATM   22  O   UNL     1      44.443 -20.972   3.723  1.00  0.00    -0.355 OA
HETATM   23  C   UNL     1      44.426 -22.135   2.906  1.00  0.00     0.210 C 
ENDBRANCH  18  22
ENDBRANCH   1  15
BRANCH  12  24
HETATM   24  N   UNL     1      41.171 -16.023  -1.614  1.00  0.00    -0.272 NA
HETATM   25  H   UNL     1      40.921 -16.992  -1.801  1.00  0.00     0.127 HD
HETATM   26  H   UNL     1      41.978 -15.753  -2.161  1.00  0.00     0.127 HD
ENDBRANCH  12  24
TORSDOF 3
ENDMDL
MODEL 10
REMARK VINA RESULT:      -7.3      3.739      5.060
REMARK  3 active torsions:
REMARK  status: ('A' for Active; 'I' for Inactive)
REMARK    1  A    between atoms: O_2  and  C_3 
REMARK    2  A    between atoms: C_7  and  C_8 
REMARK    3  A    between atoms: C_19  and  N_20 
ROOT
HETATM    1  C   UNL     1      41.337 -17.100   4.237  1.00  0.00     0.244 A 
HETATM    2  N   UNL     1      42.196 -17.953   3.448  1.00  0.00    -0.151 N 
HETATM    3  C   UNL     1      42.052 -18.024   2.085  1.00  0.00     0.734 A 
HETATM    4  N   UNL     1      42.912 -18.889   1.596  1.00  0.00    -0.060 NA
HETATM    5  C   UNL     1      43.594 -19.408   2.670  1.00  0.00     0.103 A 
HETATM    6  C   UNL     1      43.153 -18.840   3.861  1.00  0.00     0.083 A 
HETATM    7  C   UNL     1      44.604 -20.380   2.699  1.00  0.00     0.034 A 
HETATM    8  C   UNL     1      45.140 -20.753   3.936  1.00  0.00     0.002 A 
HETATM    9  C   UNL     1      44.681 -20.171   5.119  1.00  0.00     0.002 A 
HETATM   10  C   UNL     1      43.673 -19.198   5.109  1.00  0.00     0.033 A 
HETATM   11  N   UNL     1      41.142 -17.292   1.406  1.00  0.00    -0.033 NA
HETATM   12  C   UNL     1      40.352 -16.517   2.055  1.00  0.00     0.193 A 
HETATM   13  N   UNL     1      40.357 -16.362   3.446  1.00  0.00    -0.339 N 
HETATM   14  H   UNL     1      39.672 -15.780   3.901  1.00  0.00     0.164 HD
ENDROOT
BRANCH   1  15
HETATM   15  C   UNL     1      42.110 -16.068   5.037  1.00  0.00    -0.014 A 
HETATM   16  C   UNL     1      41.707 -14.723   5.079  1.00  0.00     0.033 A 
HETATM   17  C   UNL     1      42.403 -13.793   5.863  1.00  0.00     0.044 A 
HETATM   18  C   UNL     1      43.511 -14.183   6.629  1.00  0.00     0.085 A 
HETATM   19 BR   UNL     1      41.777 -11.999   5.859  1.00  0.00    -0.048 Br
HETATM   20  C   UNL     1      43.915 -15.521   6.587  1.00  0.00     0.039 A 
HETATM   21  C   UNL     1      43.220 -16.453   5.805  1.00  0.00     0.014 A 
BRANCH  18  22
HETATM   22  O   UNL     1      44.123 -13.212   7.373  1.00  0.00    -0.355 OA
HETATM   23  C   UNL     1      45.540 -13.244   7.480  1.00  0.00     0.210 C 
ENDBRANCH  18  22
ENDBRANCH   1  15
BRANCH  12  24
HETATM   24  N   UNL     1      39.411 -15.760   1.455  1.00  0.00    -0.272 NA
HETATM   25  H   UNL     1      39.630 -15.628   0.469  1.00  0.00     0.127 HD
HETATM   26  H   UNL     1      39.204 -14.871   1.894  1.00  0.00     0.127 HD
ENDBRANCH  12  24
TORSDOF 3
ENDMDL
