MODEL 1
REMARK VINA RESULT:      -8.7      0.000      0.000
REMARK  4 active torsions:
REMARK  status: ('A' for Active; 'I' for Inactive)
REMARK    1  A    between atoms: N_4  and  C_5 
REMARK    2  A    between atoms: C_16  and  C_17 
REMARK    3  A    between atoms: C_24  and  C_25 
REMARK    4  A    between atoms: C_25  and  O_26 
ROOT
HETATM    1  C   UNL     1      40.593 -16.447   6.265  1.00  0.00     0.073 C 
HETATM    2  C   UNL     1      41.148 -16.943   4.980  1.00  0.00     0.065 A 
HETATM    3  N   UNL     1      41.947 -18.012   4.963  1.00  0.00    -0.170 NA
HETATM    4  N   UNL     1      42.288 -18.188   3.650  1.00  0.00    -0.215 N 
HETATM    5  C   UNL     1      41.663 -17.240   2.839  1.00  0.00     0.165 A 
HETATM    6  C   UNL     1      40.947 -16.408   3.689  1.00  0.00     0.039 A 
HETATM    7  N   UNL     1      41.739 -17.106   1.495  1.00  0.00    -0.216 NA
HETATM    8  C   UNL     1      41.066 -16.046   1.000  1.00  0.00     0.137 A 
HETATM    9 CL   UNL     1      41.248 -15.948  -0.713  1.00  0.00    -0.062 Cl
HETATM   10  C   UNL     1      40.329 -15.118   1.737  1.00  0.00     0.011 A 
HETATM   11  C   UNL     1      40.260 -15.318   3.129  1.00  0.00     0.030 A 
ENDROOT
BRANCH  10  12
HETATM   12  C   UNL     1      39.660 -13.909   1.110  1.00  0.00     0.164 C 
HETATM   13  N   UNL     1      38.829 -14.374   0.009  1.00  0.00    -0.330 N 
HETATM   14  C   UNL     1      38.667 -13.724  -1.168  1.00  0.00     0.321 C 
HETATM   15  H   UNL     1      38.140 -15.093   0.180  1.00  0.00     0.165 HD
HETATM   16  O   UNL     1      37.816 -14.072  -1.979  1.00  0.00    -0.247 OA
HETATM   17  N   UNL     1      39.516 -12.689  -1.410  1.00  0.00    -0.312 N 
HETATM   18  C   UNL     1      40.501 -12.247  -0.557  1.00  0.00     0.024 C 
HETATM   19  H   UNL     1      39.391 -12.250  -2.316  1.00  0.00     0.170 HD
HETATM   20  C   UNL     1      41.327 -11.101  -1.074  1.00  0.00     0.069 C 
HETATM   21  C   UNL     1      40.604 -12.826   0.653  1.00  0.00     0.067 C 
BRANCH  21  22
HETATM   22  C   UNL     1      41.648 -12.389   1.605  1.00  0.00     0.293 C 
HETATM   23  O   UNL     1      42.785 -12.832   1.632  1.00  0.00    -0.259 OA
BRANCH  22  24
HETATM   24  O   UNL     1      41.138 -11.439   2.425  1.00  0.00    -0.323 OA
HETATM   25  C   UNL     1      41.220 -11.766   3.813  1.00  0.00     0.213 C 
ENDBRANCH  22  24
ENDBRANCH  21  22
ENDBRANCH  10  12
BRANCH   4  26
HETATM   26  C   UNL     1      43.204 -19.227   3.292  1.00  0.00     0.060 A 
HETATM   27  C   UNL     1      42.993 -19.946   2.102  1.00  0.00     0.031 A 
HETATM   28  C   UNL     1      43.852 -20.986   1.738  1.00  0.00     0.002 A 
HETATM   29  C   UNL     1      44.932 -21.317   2.551  1.00  0.00     0.000 A 
HETATM   30  C   UNL     1      45.155 -20.607   3.728  1.00  0.00     0.002 A 
HETATM   31  C   UNL     1      44.297 -19.566   4.101  1.00  0.00     0.031 A 
ENDBRANCH   4  26
TORSDOF 4
ENDMDL
MODEL 2
REMARK VINA RESULT:      -8.4      1.662      2.250
REMARK  4 active torsions:
REMARK  status: ('A' for Active; 'I' for Inactive)
REMARK    1  A    between atoms: N_4  and  C_5 
REMARK    2  A    between atoms: C_16  and  C_17 
REMARK    3  A    between atoms: C_24  and  C_25 
REMARK    4  A    between atoms: C_25  and  O_26 
ROOT
HETATM    1  C   UNL     1      39.891 -14.394   4.832  1.00  0.00     0.073 C 
HETATM    2  C   UNL     1      40.519 -15.249   3.793  1.00  0.00     0.065 A 
HETATM    3  N   UNL     1      41.294 -16.276   4.148  1.00  0.00    -0.170 NA
HETATM    4  N   UNL     1      41.718 -16.834   2.973  1.00  0.00    -0.215 N 
HETATM    5  C   UNL     1      41.169 -16.168   1.876  1.00  0.00     0.165 A 
HETATM    6  C   UNL     1      40.417 -15.121   2.390  1.00  0.00     0.039 A 
HETATM    7  N   UNL     1      41.337 -16.438   0.562  1.00  0.00    -0.216 NA
HETATM    8  C   UNL     1      40.722 -15.571  -0.270  1.00  0.00     0.137 A 
HETATM    9 CL   UNL     1      41.019 -15.986  -1.918  1.00  0.00    -0.062 Cl
HETATM   10  C   UNL     1      39.958 -14.466   0.106  1.00  0.00     0.011 A 
HETATM   11  C   UNL     1      39.792 -14.245   1.487  1.00  0.00     0.030 A 
ENDROOT
BRANCH  10  12
HETATM   12  C   UNL     1      39.359 -13.496  -0.896  1.00  0.00     0.164 C 
HETATM   13  N   UNL     1      38.385 -14.221  -1.699  1.00  0.00    -0.330 N 
HETATM   14  C   UNL     1      38.179 -14.034  -3.024  1.00  0.00     0.321 C 
HETATM   15  H   UNL     1      37.646 -14.733  -1.235  1.00  0.00     0.165 HD
HETATM   16  O   UNL     1      37.226 -14.543  -3.602  1.00  0.00    -0.247 OA
HETATM   17  N   UNL     1      39.102 -13.279  -3.679  1.00  0.00    -0.312 N 
HETATM   18  C   UNL     1      40.203 -12.686  -3.104  1.00  0.00     0.024 C 
HETATM   19  H   UNL     1      38.938 -13.191  -4.676  1.00  0.00     0.170 HD
HETATM   20  C   UNL     1      41.089 -11.926  -4.053  1.00  0.00     0.069 C 
HETATM   21  C   UNL     1      40.361 -12.788  -1.771  1.00  0.00     0.067 C 
BRANCH  21  22
HETATM   22  C   UNL     1      41.528 -12.170  -1.106  1.00  0.00     0.293 C 
HETATM   23  O   UNL     1      42.648 -12.655  -1.090  1.00  0.00    -0.259 OA
BRANCH  22  24
HETATM   24  O   UNL     1      41.150 -11.004  -0.529  1.00  0.00    -0.323 OA
HETATM   25  C   UNL     1      41.454 -10.923   0.865  1.00  0.00     0.213 C 
ENDBRANCH  22  24
ENDBRANCH  21  22
ENDBRANCH  10  12
BRANCH   4  26
HETATM   26  C   UNL     1      42.633 -17.933   3.003  1.00  0.00     0.060 A 
HETATM   27  C   UNL     1      43.444 -18.117   4.137  1.00  0.00     0.031 A 
HETATM   28  C   UNL     1      44.370 -19.163   4.188  1.00  0.00     0.002 A 
HETATM   29  C   UNL     1      44.492 -20.039   3.112  1.00  0.00     0.000 A 
HETATM   30  C   UNL     1      43.688 -19.871   1.987  1.00  0.00     0.002 A 
HETATM   31  C   UNL     1      42.762 -18.823   1.930  1.00  0.00     0.031 A 
ENDBRANCH   4  26
TORSDOF 4
ENDMDL
MODEL 3
REMARK VINA RESULT:      -8.1      2.003      2.924
REMARK  4 active torsions:
REMARK  status: ('A' for Active; 'I' for Inactive)
REMARK    1  A    between atoms: N_4  and  C_5 
REMARK    2  A    between atoms: C_16  and  C_17 
REMARK    3  A    between atoms: C_24  and  C_25 
REMARK    4  A    between atoms: C_25  and  O_26 
ROOT
HETATM    1  C   UNL     1      43.438 -14.757   5.624  1.00  0.00     0.073 C 
HETATM    2  C   UNL     1      43.232 -15.689   4.487  1.00  0.00     0.065 A 
HETATM    3  N   UNL     1      43.599 -16.969   4.594  1.00  0.00    -0.170 NA
HETATM    4  N   UNL     1      43.290 -17.536   3.387  1.00  0.00    -0.215 N 
HETATM    5  C   UNL     1      42.691 -16.606   2.536  1.00  0.00     0.165 A 
HETATM    6  C   UNL     1      42.675 -15.400   3.222  1.00  0.00     0.039 A 
HETATM    7  N   UNL     1      42.233 -16.796   1.278  1.00  0.00    -0.216 NA
HETATM    8  C   UNL     1      41.758 -15.682   0.682  1.00  0.00     0.137 A 
HETATM    9 CL   UNL     1      41.225 -16.023  -0.923  1.00  0.00    -0.062 Cl
HETATM   10  C   UNL     1      41.704 -14.405   1.241  1.00  0.00     0.011 A 
HETATM   11  C   UNL     1      42.169 -14.266   2.563  1.00  0.00     0.030 A 
ENDROOT
BRANCH  10  12
HETATM   12  C   UNL     1      41.221 -13.187   0.475  1.00  0.00     0.164 C 
HETATM   13  N   UNL     1      42.389 -12.440   0.032  1.00  0.00    -0.330 N 
HETATM   14  C   UNL     1      42.476 -11.089  -0.007  1.00  0.00     0.321 C 
HETATM   15  H   UNL     1      43.105 -12.915  -0.500  1.00  0.00     0.165 HD
HETATM   16  O   UNL     1      43.414 -10.524  -0.559  1.00  0.00    -0.247 OA
HETATM   17  N   UNL     1      41.487 -10.401   0.623  1.00  0.00    -0.312 N 
HETATM   18  C   UNL     1      40.411 -10.961   1.272  1.00  0.00     0.024 C 
HETATM   19  H   UNL     1      41.604  -9.393   0.607  1.00  0.00     0.170 HD
HETATM   20  C   UNL     1      39.470  -9.980   1.916  1.00  0.00     0.069 C 
HETATM   21  C   UNL     1      40.267 -12.299   1.232  1.00  0.00     0.067 C 
BRANCH  21  22
HETATM   22  C   UNL     1      39.129 -12.950   1.916  1.00  0.00     0.293 C 
HETATM   23  O   UNL     1      38.981 -12.984   3.127  1.00  0.00    -0.259 OA
BRANCH  22  24
HETATM   24  O   UNL     1      38.301 -13.493   0.991  1.00  0.00    -0.323 OA
HETATM   25  C   UNL     1      37.169 -12.679   0.679  1.00  0.00     0.213 C 
ENDBRANCH  22  24
ENDBRANCH  21  22
ENDBRANCH  10  12
BRANCH   4  26
HETATM   26  C   UNL     1      43.624 -18.905   3.146  1.00  0.00     0.060 A 
HETATM   27  C   UNL     1      44.426 -19.589   4.077  1.00  0.00     0.031 A 
HETATM   28  C   UNL     1      44.795 -20.919   3.857  1.00  0.00     0.002 A 
HETATM   29  C   UNL     1      44.364 -21.582   2.712  1.00  0.00     0.000 A 
HETATM   30  C   UNL     1      43.563 -20.918   1.787  1.00  0.00     0.002 A 
HETATM   31  C   UNL     1      43.193 -19.585   1.999  1.00  0.00     0.031 A 
ENDBRANCH   4  26
TORSDOF 4
ENDMDL
MODEL 4
REMARK VINA RESULT:      -8.1      2.920      7.687
REMARK  4 active torsions:
REMARK  status: ('A' for Active; 'I' for Inactive)
REMARK    1  A    between atoms: N_4  and  C_5 
REMARK    2  A    between atoms: C_16  and  C_17 
REMARK    3  A    between atoms: C_24  and  C_25 
REMARK    4  A    between atoms: C_25  and  O_26 
ROOT
HETATM    1  C   UNL     1      40.342 -16.261  -2.817  1.00  0.00     0.073 C 
HETATM    2  C   UNL     1      40.900 -15.225  -1.911  1.00  0.00     0.065 A 
HETATM    3  N   UNL     1      41.241 -14.027  -2.392  1.00  0.00    -0.170 NA
HETATM    4  N   UNL     1      41.725 -13.330  -1.319  1.00  0.00    -0.215 N 
HETATM    5  C   UNL     1      41.648 -14.092  -0.152  1.00  0.00     0.165 A 
HETATM    6  C   UNL     1      41.146 -15.331  -0.525  1.00  0.00     0.039 A 
HETATM    7  N   UNL     1      42.009 -13.741   1.103  1.00  0.00    -0.216 NA
HETATM    8  C   UNL     1      41.872 -14.722   2.020  1.00  0.00     0.137 A 
HETATM    9 CL   UNL     1      42.384 -14.184   3.577  1.00  0.00    -0.062 Cl
HETATM   10  C   UNL     1      41.406 -16.015   1.782  1.00  0.00     0.011 A 
HETATM   11  C   UNL     1      41.018 -16.322   0.463  1.00  0.00     0.030 A 
ENDROOT
BRANCH  10  12
HETATM   12  C   UNL     1      41.351 -17.085   2.857  1.00  0.00     0.164 C 
HETATM   13  N   UNL     1      40.724 -16.507   4.037  1.00  0.00    -0.330 N 
HETATM   14  C   UNL     1      41.088 -16.767   5.315  1.00  0.00     0.321 C 
HETATM   15  H   UNL     1      39.819 -16.066   3.948  1.00  0.00     0.165 HD
HETATM   16  O   UNL     1      40.408 -16.393   6.263  1.00  0.00    -0.247 OA
HETATM   17  N   UNL     1      42.260 -17.436   5.485  1.00  0.00    -0.312 N 
HETATM   18  C   UNL     1      43.083 -17.877   4.475  1.00  0.00     0.024 C 
HETATM   19  H   UNL     1      42.521 -17.580   6.455  1.00  0.00     0.170 HD
HETATM   20  C   UNL     1      44.341 -18.567   4.929  1.00  0.00     0.069 C 
HETATM   21  C   UNL     1      42.680 -17.707   3.202  1.00  0.00     0.067 C 
BRANCH  21  22
HETATM   22  C   UNL     1      43.530 -18.162   2.080  1.00  0.00     0.293 C 
HETATM   23  O   UNL     1      44.478 -17.535   1.637  1.00  0.00    -0.259 OA
BRANCH  22  24
HETATM   24  O   UNL     1      43.084 -19.362   1.638  1.00  0.00    -0.323 OA
HETATM   25  C   UNL     1      43.944 -20.455   1.964  1.00  0.00     0.213 C 
ENDBRANCH  22  24
ENDBRANCH  21  22
ENDBRANCH  10  12
BRANCH   4  26
HETATM   26  C   UNL     1      42.246 -12.012  -1.510  1.00  0.00     0.060 A 
HETATM   27  C   UNL     1      42.268 -11.466  -2.806  1.00  0.00     0.031 A 
HETATM   28  C   UNL     1      42.797 -10.193  -3.033  1.00  0.00     0.002 A 
HETATM   29  C   UNL     1      43.304  -9.448  -1.971  1.00  0.00     0.000 A 
HETATM   30  C   UNL     1      43.280  -9.976  -0.682  1.00  0.00     0.002 A 
HETATM   31  C   UNL     1      42.754 -11.252  -0.449  1.00  0.00     0.031 A 
ENDBRANCH   4  26
TORSDOF 4
ENDMDL
MODEL 5
REMARK VINA RESULT:      -8.0      2.510      3.530
REMARK  4 active torsions:
REMARK  status: ('A' for Active; 'I' for Inactive)
REMARK    1  A    between atoms: N_4  and  C_5 
REMARK    2  A    between atoms: C_16  and  C_17 
REMARK    3  A    between atoms: C_24  and  C_25 
REMARK    4  A    between atoms: C_25  and  O_26 
ROOT
HETATM    1  C   UNL     1      43.910 -17.629   0.572  1.00  0.00     0.073 C 
HETATM    2  C   UNL     1      43.570 -17.955   1.980  1.00  0.00     0.065 A 
HETATM    3  N   UNL     1      44.142 -18.999   2.584  1.00  0.00    -0.170 NA
HETATM    4  N   UNL     1      43.608 -19.027   3.843  1.00  0.00    -0.215 N 
HETATM    5  C   UNL     1      42.723 -17.965   4.035  1.00  0.00     0.165 A 
HETATM    6  C   UNL     1      42.664 -17.282   2.829  1.00  0.00     0.039 A 
HETATM    7  N   UNL     1      42.020 -17.651   5.147  1.00  0.00    -0.216 NA
HETATM    8  C   UNL     1      41.193 -16.594   5.005  1.00  0.00     0.137 A 
HETATM    9 CL   UNL     1      40.326 -16.292   6.466  1.00  0.00    -0.062 Cl
HETATM   10  C   UNL     1      41.015 -15.833   3.849  1.00  0.00     0.011 A 
HETATM   11  C   UNL     1      41.791 -16.186   2.727  1.00  0.00     0.030 A 
ENDROOT
BRANCH  10  12
HETATM   12  C   UNL     1      40.008 -14.702   3.751  1.00  0.00     0.164 C 
HETATM   13  N   UNL     1      39.162 -14.952   2.593  1.00  0.00    -0.330 N 
HETATM   14  C   UNL     1      38.695 -13.998   1.754  1.00  0.00     0.321 C 
HETATM   15  H   UNL     1      38.685 -15.840   2.512  1.00  0.00     0.165 HD
HETATM   16  O   UNL     1      37.843 -14.249   0.909  1.00  0.00    -0.247 OA
HETATM   17  N   UNL     1      39.244 -12.759   1.880  1.00  0.00    -0.312 N 
HETATM   18  C   UNL     1      40.210 -12.403   2.793  1.00  0.00     0.024 C 
HETATM   19  H   UNL     1      38.899 -12.079   1.212  1.00  0.00     0.170 HD
HETATM   20  C   UNL     1      40.674 -10.974   2.709  1.00  0.00     0.069 C 
HETATM   21  C   UNL     1      40.608 -13.321   3.693  1.00  0.00     0.067 C 
BRANCH  21  22
HETATM   22  C   UNL     1      41.646 -12.988   4.693  1.00  0.00     0.293 C 
HETATM   23  O   UNL     1      41.413 -12.667   5.847  1.00  0.00    -0.259 OA
BRANCH  22  24
HETATM   24  O   UNL     1      42.869 -13.095   4.122  1.00  0.00    -0.323 OA
HETATM   25  C   UNL     1      43.804 -13.854   4.891  1.00  0.00     0.213 C 
ENDBRANCH  22  24
ENDBRANCH  21  22
ENDBRANCH  10  12
BRANCH   4  26
HETATM   26  C   UNL     1      43.968 -20.083   4.739  1.00  0.00     0.060 A 
HETATM   27  C   UNL     1      44.704 -21.176   4.248  1.00  0.00     0.031 A 
HETATM   28  C   UNL     1      45.047 -22.238   5.089  1.00  0.00     0.002 A 
HETATM   29  C   UNL     1      44.665 -22.219   6.428  1.00  0.00     0.000 A 
HETATM   30  C   UNL     1      43.944 -21.138   6.927  1.00  0.00     0.002 A 
HETATM   31  C   UNL     1      43.594 -20.073   6.088  1.00  0.00     0.031 A 
ENDBRANCH   4  26
TORSDOF 4
ENDMDL
MODEL 6
REMARK VINA RESULT:      -7.7      2.619      7.040
REMARK  4 active torsions:
REMARK  status: ('A' for Active; 'I' for Inactive)
REMARK    1  A    between atoms: N_4  and  C_5 
REMARK    2  A    between atoms: C_16  and  C_17 
REMARK    3  A    between atoms: C_24  and  C_25 
REMARK    4  A    between atoms: C_25  and  O_26 
ROOT
HETATM    1  C   UNL     1      42.447 -11.044  -0.151  1.00  0.00     0.073 C 
HETATM    2  C   UNL     1      41.807 -12.366  -0.363  1.00  0.00     0.065 A 
HETATM    3  N   UNL     1      41.078 -12.591  -1.459  1.00  0.00    -0.170 NA
HETATM    4  N   UNL     1      40.628 -13.877  -1.337  1.00  0.00    -0.215 N 
HETATM    5  C   UNL     1      41.114 -14.469  -0.170  1.00  0.00     0.165 A 
HETATM    6  C   UNL     1      41.852 -13.494   0.486  1.00  0.00     0.039 A 
HETATM    7  N   UNL     1      40.905 -15.727   0.281  1.00  0.00    -0.216 NA
HETATM    8  C   UNL     1      41.460 -15.989   1.483  1.00  0.00     0.137 A 
HETATM    9 CL   UNL     1      41.114 -17.604   1.981  1.00  0.00    -0.062 Cl
HETATM   10  C   UNL     1      42.202 -15.101   2.262  1.00  0.00     0.011 A 
HETATM   11  C   UNL     1      42.414 -13.812   1.734  1.00  0.00     0.030 A 
ENDROOT
BRANCH  10  12
HETATM   12  C   UNL     1      42.732 -15.453   3.639  1.00  0.00     0.164 C 
HETATM   13  N   UNL     1      43.538 -16.659   3.518  1.00  0.00    -0.330 N 
HETATM   14  C   UNL     1      43.582 -17.658   4.430  1.00  0.00     0.321 C 
HETATM   15  H   UNL     1      44.294 -16.682   2.846  1.00  0.00     0.165 HD
HETATM   16  O   UNL     1      44.413 -18.556   4.358  1.00  0.00    -0.247 OA
HETATM   17  N   UNL     1      42.636 -17.626   5.408  1.00  0.00    -0.312 N 
HETATM   18  C   UNL     1      41.666 -16.661   5.550  1.00  0.00     0.024 C 
HETATM   19  H   UNL     1      42.674 -18.408   6.052  1.00  0.00     0.170 HD
HETATM   20  C   UNL     1      40.719 -16.869   6.700  1.00  0.00     0.069 C 
HETATM   21  C   UNL     1      41.677 -15.614   4.704  1.00  0.00     0.067 C 
BRANCH  21  22
HETATM   22  C   UNL     1      40.654 -14.552   4.812  1.00  0.00     0.293 C 
HETATM   23  O   UNL     1      39.617 -14.527   4.170  1.00  0.00    -0.259 OA
BRANCH  22  24
HETATM   24  O   UNL     1      41.057 -13.633   5.722  1.00  0.00    -0.323 OA
HETATM   25  C   UNL     1      41.613 -12.451   5.143  1.00  0.00     0.213 C 
ENDBRANCH  22  24
ENDBRANCH  21  22
ENDBRANCH  10  12
BRANCH   4  26
HETATM   26  C   UNL     1      39.751 -14.414  -2.330  1.00  0.00     0.060 A 
HETATM   27  C   UNL     1      38.441 -13.912  -2.430  1.00  0.00     0.031 A 
HETATM   28  C   UNL     1      37.548 -14.435  -3.369  1.00  0.00     0.002 A 
HETATM   29  C   UNL     1      37.952 -15.458  -4.222  1.00  0.00     0.000 A 
HETATM   30  C   UNL     1      39.249 -15.958  -4.138  1.00  0.00     0.002 A 
HETATM   31  C   UNL     1      40.147 -15.441  -3.197  1.00  0.00     0.031 A 
ENDBRANCH   4  26
TORSDOF 4
ENDMDL
MODEL 7
REMARK VINA RESULT:      -7.6      2.360      3.593
REMARK  4 active torsions:
REMARK  status: ('A' for Active; 'I' for Inactive)
REMARK    1  A    between atoms: N_4  and  C_5 
REMARK    2  A    between atoms: C_16  and  C_17 
REMARK    3  A    between atoms: C_24  and  C_25 
REMARK    4  A    between atoms: C_25  and  O_26 
ROOT
HETATM    1  C   UNL     1      43.615 -17.754   0.685  1.00  0.00     0.073 C 
HETATM    2  C   UNL     1      43.143 -16.972   1.856  1.00  0.00     0.065 A 
HETATM    3  N   UNL     1      43.520 -17.318   3.089  1.00  0.00    -0.170 NA
HETATM    4  N   UNL     1      42.908 -16.419   3.920  1.00  0.00    -0.215 N 
HETATM    5  C   UNL     1      42.174 -15.483   3.191  1.00  0.00     0.165 A 
HETATM    6  C   UNL     1      42.291 -15.846   1.857  1.00  0.00     0.039 A 
HETATM    7  N   UNL     1      41.455 -14.436   3.656  1.00  0.00    -0.216 NA
HETATM    8  C   UNL     1      40.798 -13.742   2.703  1.00  0.00     0.137 A 
HETATM    9 CL   UNL     1      39.892 -12.449   3.399  1.00  0.00    -0.062 Cl
HETATM   10  C   UNL     1      40.805 -14.008   1.334  1.00  0.00     0.011 A 
HETATM   11  C   UNL     1      41.592 -15.093   0.898  1.00  0.00     0.030 A 
ENDROOT
BRANCH  10  12
HETATM   12  C   UNL     1      39.979 -13.220   0.334  1.00  0.00     0.164 C 
HETATM   13  N   UNL     1      39.237 -14.168  -0.485  1.00  0.00    -0.330 N 
HETATM   14  C   UNL     1      39.000 -14.028  -1.810  1.00  0.00     0.321 C 
HETATM   15  H   UNL     1      38.656 -14.861  -0.033  1.00  0.00     0.165 HD
HETATM   16  O   UNL     1      38.218 -14.764  -2.402  1.00  0.00    -0.247 OA
HETATM   17  N   UNL     1      39.696 -13.050  -2.450  1.00  0.00    -0.312 N 
HETATM   18  C   UNL     1      40.596 -12.194  -1.859  1.00  0.00     0.024 C 
HETATM   19  H   UNL     1      39.522 -12.998  -3.448  1.00  0.00     0.170 HD
HETATM   20  C   UNL     1      41.258 -11.217  -2.794  1.00  0.00     0.069 C 
HETATM   21  C   UNL     1      40.766 -12.264  -0.526  1.00  0.00     0.067 C 
BRANCH  21  22
HETATM   22  C   UNL     1      41.724 -11.368   0.156  1.00  0.00     0.293 C 
HETATM   23  O   UNL     1      42.932 -11.538   0.176  1.00  0.00    -0.259 OA
BRANCH  22  24
HETATM   24  O   UNL     1      41.047 -10.352   0.742  1.00  0.00    -0.323 OA
HETATM   25  C   UNL     1      41.523  -9.054   0.381  1.00  0.00     0.213 C 
ENDBRANCH  22  24
ENDBRANCH  21  22
ENDBRANCH  10  12
BRANCH   4  26
HETATM   26  C   UNL     1      43.055 -16.555   5.336  1.00  0.00     0.060 A 
HETATM   27  C   UNL     1      43.764 -15.571   6.048  1.00  0.00     0.031 A 
HETATM   28  C   UNL     1      43.952 -15.688   7.428  1.00  0.00     0.002 A 
HETATM   29  C   UNL     1      43.430 -16.782   8.113  1.00  0.00     0.000 A 
HETATM   30  C   UNL     1      42.720 -17.758   7.420  1.00  0.00     0.002 A 
HETATM   31  C   UNL     1      42.531 -17.649   6.037  1.00  0.00     0.031 A 
ENDBRANCH   4  26
TORSDOF 4
ENDMDL
MODEL 8
REMARK VINA RESULT:      -7.6      2.974      6.962
REMARK  4 active torsions:
REMARK  status: ('A' for Active; 'I' for Inactive)
REMARK    1  A    between atoms: N_4  and  C_5 
REMARK    2  A    between atoms: C_16  and  C_17 
REMARK    3  A    between atoms: C_24  and  C_25 
REMARK    4  A    between atoms: C_25  and  O_26 
ROOT
HETATM    1  C   UNL     1      40.822 -10.332   0.203  1.00  0.00     0.073 C 
HETATM    2  C   UNL     1      40.504 -11.767  -0.006  1.00  0.00     0.065 A 
HETATM    3  N   UNL     1      40.105 -12.198  -1.205  1.00  0.00    -0.170 NA
HETATM    4  N   UNL     1      39.883 -13.539  -1.053  1.00  0.00    -0.215 N 
HETATM    5  C   UNL     1      40.184 -13.952   0.246  1.00  0.00     0.165 A 
HETATM    6  C   UNL     1      40.556 -12.811   0.943  1.00  0.00     0.039 A 
HETATM    7  N   UNL     1      40.110 -15.197   0.768  1.00  0.00    -0.216 NA
HETATM    8  C   UNL     1      40.409 -15.272   2.082  1.00  0.00     0.137 A 
HETATM    9 CL   UNL     1      40.259 -16.892   2.655  1.00  0.00    -0.062 Cl
HETATM   10  C   UNL     1      40.773 -14.208   2.908  1.00  0.00     0.011 A 
HETATM   11  C   UNL     1      40.861 -12.936   2.309  1.00  0.00     0.030 A 
ENDROOT
BRANCH  10  12
HETATM   12  C   UNL     1      41.022 -14.365   4.396  1.00  0.00     0.164 C 
HETATM   13  N   UNL     1      40.429 -13.223   5.076  1.00  0.00    -0.330 N 
HETATM   14  C   UNL     1      40.965 -12.595   6.149  1.00  0.00     0.321 C 
HETATM   15  H   UNL     1      39.455 -13.004   4.915  1.00  0.00     0.165 HD
HETATM   16  O   UNL     1      40.332 -11.760   6.785  1.00  0.00    -0.247 OA
HETATM   17  N   UNL     1      42.249 -12.919   6.460  1.00  0.00    -0.312 N 
HETATM   18  C   UNL     1      43.027 -13.835   5.790  1.00  0.00     0.024 C 
HETATM   19  H   UNL     1      42.632 -12.403   7.245  1.00  0.00     0.170 HD
HETATM   20  C   UNL     1      44.429 -13.990   6.316  1.00  0.00     0.069 C 
HETATM   21  C   UNL     1      42.469 -14.532   4.783  1.00  0.00     0.067 C 
BRANCH  21  22
HETATM   22  C   UNL     1      43.264 -15.526   4.030  1.00  0.00     0.293 C 
HETATM   23  O   UNL     1      43.896 -15.277   3.016  1.00  0.00    -0.259 OA
BRANCH  22  24
HETATM   24  O   UNL     1      43.170 -16.731   4.641  1.00  0.00    -0.323 OA
HETATM   25  C   UNL     1      43.691 -17.815   3.868  1.00  0.00     0.213 C 
ENDBRANCH  22  24
ENDBRANCH  21  22
ENDBRANCH  10  12
BRANCH   4  26
HETATM   26  C   UNL     1      39.375 -14.299  -2.152  1.00  0.00     0.060 A 
HETATM   27  C   UNL     1      38.022 -14.163  -2.512  1.00  0.00     0.031 A 
HETATM   28  C   UNL     1      37.486 -14.913  -3.562  1.00  0.00     0.002 A 
HETATM   29  C   UNL     1      38.292 -15.801  -4.269  1.00  0.00     0.000 A 
HETATM   30  C   UNL     1      39.636 -15.938  -3.927  1.00  0.00     0.002 A 
HETATM   31  C   UNL     1      40.178 -15.193  -2.873  1.00  0.00     0.031 A 
ENDBRANCH   4  26
TORSDOF 4
ENDMDL
MODEL 9
REMARK VINA RESULT:      -7.5      7.548     10.412
REMARK  4 active torsions:
REMARK  status: ('A' for Active; 'I' for Inactive)
REMARK    1  A    between atoms: N_4  and  C_5 
REMARK    2  A    between atoms: C_16  and  C_17 
REMARK    3  A    between atoms: C_24  and  C_25 
REMARK    4  A    between atoms: C_25  and  O_26 
ROOT
HETATM    1  C   UNL     1      45.477 -11.022   9.588  1.00  0.00     0.073 C 
HETATM    2  C   UNL     1      44.205 -10.584  10.215  1.00  0.00     0.065 A 
HETATM    3  N   UNL     1      44.201 -10.106  11.462  1.00  0.00    -0.170 NA
HETATM    4  N   UNL     1      42.893  -9.815  11.734  1.00  0.00    -0.215 N 
HETATM    5  C   UNL     1      42.080 -10.080  10.630  1.00  0.00     0.165 A 
HETATM    6  C   UNL     1      42.910 -10.608   9.651  1.00  0.00     0.039 A 
HETATM    7  N   UNL     1      40.746  -9.902  10.511  1.00  0.00    -0.216 NA
HETATM    8  C   UNL     1      40.230 -10.312   9.333  1.00  0.00     0.137 A 
HETATM    9 CL   UNL     1      38.523 -10.068   9.291  1.00  0.00    -0.062 Cl
HETATM   10  C   UNL     1      40.939 -10.880   8.274  1.00  0.00     0.011 A 
HETATM   11  C   UNL     1      42.331 -11.019   8.439  1.00  0.00     0.030 A 
ENDROOT
BRANCH  10  12
HETATM   12  C   UNL     1      40.271 -11.383   7.007  1.00  0.00     0.164 C 
HETATM   13  N   UNL     1      40.904 -12.639   6.631  1.00  0.00    -0.330 N 
HETATM   14  C   UNL     1      41.163 -13.026   5.360  1.00  0.00     0.321 C 
HETATM   15  H   UNL     1      40.957 -13.387   7.309  1.00  0.00     0.165 HD
HETATM   16  O   UNL     1      41.529 -14.167   5.101  1.00  0.00    -0.247 OA
HETATM   17  N   UNL     1      41.023 -12.075   4.397  1.00  0.00    -0.312 N 
HETATM   18  C   UNL     1      40.628 -10.775   4.610  1.00  0.00     0.024 C 
HETATM   19  H   UNL     1      41.261 -12.389   3.463  1.00  0.00     0.170 HD
HETATM   20  C   UNL     1      40.581  -9.911   3.379  1.00  0.00     0.069 C 
HETATM   21  C   UNL     1      40.277 -10.409   5.857  1.00  0.00     0.067 C 
BRANCH  21  22
HETATM   22  C   UNL     1      39.849  -9.022   6.138  1.00  0.00     0.293 C 
HETATM   23  O   UNL     1      40.613  -8.086   6.308  1.00  0.00    -0.259 OA
BRANCH  22  24
HETATM   24  O   UNL     1      38.496  -8.971   6.177  1.00  0.00    -0.323 OA
HETATM   25  C   UNL     1      37.961  -7.655   6.017  1.00  0.00     0.213 C 
ENDBRANCH  22  24
ENDBRANCH  21  22
ENDBRANCH  10  12
BRANCH   4  26
HETATM   26  C   UNL     1      42.532  -9.340  13.034  1.00  0.00     0.060 A 
HETATM   27  C   UNL     1      42.486 -10.248  14.107  1.00  0.00     0.031 A 
HETATM   28  C   UNL     1      42.108  -9.823  15.383  1.00  0.00     0.002 A 
HETATM   29  C   UNL     1      41.780  -8.488  15.605  1.00  0.00     0.000 A 
HETATM   30  C   UNL     1      41.830  -7.578  14.552  1.00  0.00     0.002 A 
HETATM   31  C   UNL     1      42.204  -7.999  13.271  1.00  0.00     0.031 A 
ENDBRANCH   4  26
TORSDOF 4
ENDMDL
MODEL 10
REMARK VINA RESULT:      -7.5      3.569      4.822
REMARK  4 active torsions:
REMARK  status: ('A' for Active; 'I' for Inactive)
REMARK    1  A    between atoms: N_4  and  C_5 
REMARK    2  A    between atoms: C_16  and  C_17 
REMARK    3  A    between atoms: C_24  and  C_25 
REMARK    4  A    between atoms: C_25  and  O_26 
ROOT
HETATM    1  C   UNL     1      41.274 -16.260   0.573  1.00  0.00     0.073 C 
HETATM    2  C   UNL     1      41.897 -17.020   1.686  1.00  0.00     0.065 A 
HETATM    3  N   UNL     1      42.468 -18.204   1.453  1.00  0.00    -0.170 NA
HETATM    4  N   UNL     1      42.921 -18.633   2.670  1.00  0.00    -0.215 N 
HETATM    5  C   UNL     1      42.662 -17.688   3.663  1.00  0.00     0.165 A 
HETATM    6  C   UNL     1      41.972 -16.653   3.047  1.00  0.00     0.039 A 
HETATM    7  N   UNL     1      42.976 -17.745   4.977  1.00  0.00    -0.216 NA
HETATM    8  C   UNL     1      42.534 -16.697   5.703  1.00  0.00     0.137 A 
HETATM    9 CL   UNL     1      42.961 -16.878   7.366  1.00  0.00    -0.062 Cl
HETATM   10  C   UNL     1      41.811 -15.605   5.223  1.00  0.00     0.011 A 
HETATM   11  C   UNL     1      41.533 -15.580   3.842  1.00  0.00     0.030 A 
ENDROOT
BRANCH  10  12
HETATM   12  C   UNL     1      41.288 -14.500   6.122  1.00  0.00     0.164 C 
HETATM   13  N   UNL     1      39.879 -14.298   5.816  1.00  0.00    -0.330 N 
HETATM   14  C   UNL     1      39.255 -13.097   5.791  1.00  0.00     0.321 C 
HETATM   15  H   UNL     1      39.249 -15.089   5.846  1.00  0.00     0.165 HD
HETATM   16  O   UNL     1      38.035 -13.010   5.706  1.00  0.00    -0.247 OA
HETATM   17  N   UNL     1      40.056 -11.998   5.836  1.00  0.00    -0.312 N 
HETATM   18  C   UNL     1      41.429 -12.013   5.921  1.00  0.00     0.024 C 
HETATM   19  H   UNL     1      39.559 -11.116   5.778  1.00  0.00     0.170 HD
HETATM   20  C   UNL     1      42.085 -10.659   5.925  1.00  0.00     0.069 C 
HETATM   21  C   UNL     1      42.049 -13.202   6.042  1.00  0.00     0.067 C 
BRANCH  21  22
HETATM   22  C   UNL     1      43.524 -13.272   6.133  1.00  0.00     0.293 C 
HETATM   23  O   UNL     1      44.265 -13.446   5.180  1.00  0.00    -0.259 OA
BRANCH  22  24
HETATM   24  O   UNL     1      43.900 -13.117   7.425  1.00  0.00    -0.323 OA
HETATM   25  C   UNL     1      45.283 -13.387   7.662  1.00  0.00     0.213 C 
ENDBRANCH  22  24
ENDBRANCH  21  22
ENDBRANCH  10  12
BRANCH   4  26
HETATM   26  C   UNL     1      43.533 -19.921   2.780  1.00  0.00     0.060 A 
HETATM   27  C   UNL     1      44.238 -20.246   3.953  1.00  0.00     0.031 A 
HETATM   28  C   UNL     1      44.873 -21.485   4.082  1.00  0.00     0.002 A 
HETATM   29  C   UNL     1      44.808 -22.413   3.046  1.00  0.00     0.000 A 
HETATM   30  C   UNL     1      44.106 -22.105   1.883  1.00  0.00     0.002 A 
HETATM   31  C   UNL     1      43.471 -20.865   1.747  1.00  0.00     0.031 A 
ENDBRANCH   4  26
TORSDOF 4
ENDMDL
