MODEL 1
REMARK VINA RESULT:      -8.4      0.000      0.000
REMARK  8 active torsions:
REMARK  status: ('A' for Active; 'I' for Inactive)
REMARK    1  A    between atoms: N_3  and  C_4 
REMARK    2  A    between atoms: C_4  and  C_5 
REMARK    3  A    between atoms: C_5  and  O_6 
REMARK    4  A    between atoms: C_11  and  C_12 
REMARK    5  A    between atoms: C_13  and  C_14 
REMARK    6  A    between atoms: C_22  and  C_23 
REMARK       I    between atoms: C_23  and  N_24 
REMARK    7  A    between atoms: N_24  and  C_25 
REMARK    8  A    between atoms: C_26  and  O_27 
ROOT
HETATM    1  C   UNL     1      41.549 -15.221   0.029  1.00  0.00     0.069 C 
HETATM    2  C   UNL     1      41.046 -14.831   1.400  1.00  0.00     0.026 C 
HETATM    3  N   UNL     1      40.541 -13.540   1.621  1.00  0.00    -0.301 N 
HETATM    4  C   UNL     1      39.973 -13.159   2.842  1.00  0.00     0.323 C 
HETATM    5  O   UNL     1      39.490 -12.055   3.084  1.00  0.00    -0.247 OA
HETATM    6  N   UNL     1      39.956 -14.100   3.827  1.00  0.00    -0.330 N 
HETATM    7  C   UNL     1      40.773 -15.287   3.844  1.00  0.00     0.161 C 
HETATM    8  C   UNL     1      41.099 -15.686   2.444  1.00  0.00     0.059 C 
HETATM    9  H   UNL     1      39.590 -13.753   4.702  1.00  0.00     0.165 HD
ENDROOT
BRANCH   8  10
HETATM   10  C   UNL     1      41.438 -17.121   2.256  1.00  0.00     0.256 C 
HETATM   11  N   UNL     1      42.725 -17.388   2.683  1.00  0.00    -0.321 N 
HETATM   12  H   UNL     1      43.333 -16.587   2.804  1.00  0.00     0.169 HD
HETATM   13  O   UNL     1      40.666 -17.866   1.670  1.00  0.00    -0.267 OA
BRANCH  11  14
HETATM   14  C   UNL     1      43.335 -18.653   2.823  1.00  0.00     0.068 A 
HETATM   15  C   UNL     1      44.114 -19.050   3.921  1.00  0.00     0.095 A 
HETATM   16  C   UNL     1      44.705 -20.321   3.935  1.00  0.00     0.039 A 
HETATM   17  C   UNL     1      44.517 -21.202   2.871  1.00  0.00     0.003 A 
HETATM   18  C   UNL     1      43.765 -20.806   1.770  1.00  0.00     0.002 A 
HETATM   19  C   UNL     1      43.190 -19.533   1.740  1.00  0.00     0.032 A 
BRANCH  15  20
HETATM   20  O   UNL     1      44.460 -18.133   4.880  1.00  0.00    -0.354 OA
HETATM   21  C   UNL     1      44.896 -18.750   6.091  1.00  0.00     0.210 C 
ENDBRANCH  15  20
ENDBRANCH  11  14
ENDBRANCH   8  10
BRANCH   7  22
HETATM   22  C   UNL     1      41.992 -15.069   4.743  1.00  0.00    -0.016 A 
HETATM   23  C   UNL     1      42.230 -15.859   5.896  1.00  0.00     0.056 A 
HETATM   24  C   UNL     1      43.369 -15.602   6.685  1.00  0.00     0.017 A 
HETATM   25  C   UNL     1      44.259 -14.581   6.357  1.00  0.00     0.001 A 
HETATM   26  C   UNL     1      44.024 -13.795   5.236  1.00  0.00     0.001 A 
HETATM   27  C   UNL     1      42.905 -14.035   4.440  1.00  0.00     0.010 A 
BRANCH  23  28
HETATM   28  C   UNL     1      41.282 -16.959   6.324  1.00  0.00     0.418 C 
HETATM   29  F   UNL     1      41.676 -17.540   7.493  1.00  0.00    -0.166 F 
HETATM   30  F   UNL     1      40.013 -16.521   6.539  1.00  0.00    -0.166 F 
HETATM   31  F   UNL     1      41.177 -17.978   5.426  1.00  0.00    -0.166 F 
ENDBRANCH  23  28
ENDBRANCH   7  22
BRANCH   3  32
HETATM   32  C   UNL     1      40.463 -12.540   0.543  1.00  0.00     0.160 C 
BRANCH  32  33
HETATM   33  C   UNL     1      41.519 -11.427   0.628  1.00  0.00     0.187 C 
BRANCH  33  34
HETATM   34  O   UNL     1      42.755 -11.845   0.051  1.00  0.00    -0.394 OA
HETATM   35  C   UNL     1      42.776 -11.645  -1.356  1.00  0.00     0.201 C 
ENDBRANCH  33  34
ENDBRANCH  32  33
ENDBRANCH   3  32
TORSDOF 8
ENDMDL
MODEL 2
REMARK VINA RESULT:      -8.2      1.286      1.538
REMARK  8 active torsions:
REMARK  status: ('A' for Active; 'I' for Inactive)
REMARK    1  A    between atoms: N_3  and  C_4 
REMARK    2  A    between atoms: C_4  and  C_5 
REMARK    3  A    between atoms: C_5  and  O_6 
REMARK    4  A    between atoms: C_11  and  C_12 
REMARK    5  A    between atoms: C_13  and  C_14 
REMARK    6  A    between atoms: C_22  and  C_23 
REMARK       I    between atoms: C_23  and  N_24 
REMARK    7  A    between atoms: N_24  and  C_25 
REMARK    8  A    between atoms: C_26  and  O_27 
ROOT
HETATM    1  C   UNL     1      41.327 -15.773  -0.467  1.00  0.00     0.069 C 
HETATM    2  C   UNL     1      40.808 -15.287   0.867  1.00  0.00     0.026 C 
HETATM    3  N   UNL     1      40.225 -14.015   0.972  1.00  0.00    -0.301 N 
HETATM    4  C   UNL     1      39.642 -13.556   2.159  1.00  0.00     0.323 C 
HETATM    5  O   UNL     1      39.093 -12.466   2.303  1.00  0.00    -0.247 OA
HETATM    6  N   UNL     1      39.688 -14.400   3.227  1.00  0.00    -0.330 N 
HETATM    7  C   UNL     1      40.577 -15.529   3.345  1.00  0.00     0.161 C 
HETATM    8  C   UNL     1      40.919 -16.036   1.985  1.00  0.00     0.059 C 
HETATM    9  H   UNL     1      39.305 -13.996   4.070  1.00  0.00     0.165 HD
ENDROOT
BRANCH   8  10
HETATM   10  C   UNL     1      41.345 -17.459   1.928  1.00  0.00     0.256 C 
HETATM   11  N   UNL     1      42.616 -17.618   2.447  1.00  0.00    -0.321 N 
HETATM   12  H   UNL     1      43.172 -16.777   2.540  1.00  0.00     0.169 HD
HETATM   13  O   UNL     1      40.651 -18.288   1.358  1.00  0.00    -0.267 OA
BRANCH  11  14
HETATM   14  C   UNL     1      43.284 -18.832   2.718  1.00  0.00     0.068 A 
HETATM   15  C   UNL     1      44.078 -19.075   3.850  1.00  0.00     0.095 A 
HETATM   16  C   UNL     1      44.726 -20.309   3.998  1.00  0.00     0.039 A 
HETATM   17  C   UNL     1      44.581 -21.305   3.033  1.00  0.00     0.003 A 
HETATM   18  C   UNL     1      43.813 -21.063   1.899  1.00  0.00     0.002 A 
HETATM   19  C   UNL     1      43.180 -19.829   1.736  1.00  0.00     0.032 A 
BRANCH  15  20
HETATM   20  O   UNL     1      44.380 -18.046   4.705  1.00  0.00    -0.354 OA
HETATM   21  C   UNL     1      44.941 -18.507   5.935  1.00  0.00     0.210 C 
ENDBRANCH  15  20
ENDBRANCH  11  14
ENDBRANCH   8  10
BRANCH   7  22
HETATM   22  C   UNL     1      41.785 -15.152   4.207  1.00  0.00    -0.016 A 
HETATM   23  C   UNL     1      42.036 -15.764   5.461  1.00  0.00     0.056 A 
HETATM   24  C   UNL     1      43.164 -15.368   6.208  1.00  0.00     0.017 A 
HETATM   25  C   UNL     1      44.029 -14.381   5.739  1.00  0.00     0.001 A 
HETATM   26  C   UNL     1      43.781 -13.770   4.517  1.00  0.00     0.001 A 
HETATM   27  C   UNL     1      42.673 -14.149   3.761  1.00  0.00     0.010 A 
BRANCH  23  28
HETATM   28  C   UNL     1      41.113 -16.815   6.040  1.00  0.00     0.418 C 
HETATM   29  F   UNL     1      40.951 -17.869   5.190  1.00  0.00    -0.166 F 
HETATM   30  F   UNL     1      41.569 -17.347   7.205  1.00  0.00    -0.166 F 
HETATM   31  F   UNL     1      39.856 -16.362   6.305  1.00  0.00    -0.166 F 
ENDBRANCH  23  28
ENDBRANCH   7  22
BRANCH   3  32
HETATM   32  C   UNL     1      40.080 -13.126  -0.193  1.00  0.00     0.160 C 
BRANCH  32  33
HETATM   33  C   UNL     1      38.715 -13.211  -0.893  1.00  0.00     0.187 C 
BRANCH  33  34
HETATM   34  O   UNL     1      38.789 -14.009  -2.072  1.00  0.00    -0.394 OA
HETATM   35  C   UNL     1      39.679 -13.454  -3.031  1.00  0.00     0.201 C 
ENDBRANCH  33  34
ENDBRANCH  32  33
ENDBRANCH   3  32
TORSDOF 8
ENDMDL
MODEL 3
REMARK VINA RESULT:      -7.9      3.013      5.206
REMARK  8 active torsions:
REMARK  status: ('A' for Active; 'I' for Inactive)
REMARK    1  A    between atoms: N_3  and  C_4 
REMARK    2  A    between atoms: C_4  and  C_5 
REMARK    3  A    between atoms: C_5  and  O_6 
REMARK    4  A    between atoms: C_11  and  C_12 
REMARK    5  A    between atoms: C_13  and  C_14 
REMARK    6  A    between atoms: C_22  and  C_23 
REMARK       I    between atoms: C_23  and  N_24 
REMARK    7  A    between atoms: N_24  and  C_25 
REMARK    8  A    between atoms: C_26  and  O_27 
ROOT
HETATM    1  C   UNL     1      40.636 -15.380   5.745  1.00  0.00     0.069 C 
HETATM    2  C   UNL     1      40.932 -14.414   4.621  1.00  0.00     0.026 C 
HETATM    3  N   UNL     1      40.939 -13.032   4.867  1.00  0.00    -0.301 N 
HETATM    4  C   UNL     1      41.303 -12.101   3.888  1.00  0.00     0.323 C 
HETATM    5  O   UNL     1      41.355 -10.884   4.053  1.00  0.00    -0.247 OA
HETATM    6  N   UNL     1      41.630 -12.600   2.663  1.00  0.00    -0.330 N 
HETATM    7  C   UNL     1      41.289 -13.920   2.195  1.00  0.00     0.161 C 
HETATM    8  C   UNL     1      41.161 -14.842   3.361  1.00  0.00     0.059 C 
HETATM    9  H   UNL     1      41.826 -11.881   1.981  1.00  0.00     0.165 HD
ENDROOT
BRANCH   8  10
HETATM   10  C   UNL     1      41.361 -16.282   3.054  1.00  0.00     0.256 C 
HETATM   11  N   UNL     1      42.685 -16.645   3.207  1.00  0.00    -0.321 N 
HETATM   12  H   UNL     1      43.357 -15.888   3.235  1.00  0.00     0.169 HD
HETATM   13  O   UNL     1      40.441 -16.951   2.604  1.00  0.00    -0.267 OA
BRANCH  11  14
HETATM   14  C   UNL     1      43.226 -17.948   3.173  1.00  0.00     0.068 A 
HETATM   15  C   UNL     1      43.845 -18.588   4.258  1.00  0.00     0.095 A 
HETATM   16  C   UNL     1      44.381 -19.873   4.099  1.00  0.00     0.039 A 
HETATM   17  C   UNL     1      44.295 -20.530   2.872  1.00  0.00     0.003 A 
HETATM   18  C   UNL     1      43.702 -19.893   1.787  1.00  0.00     0.002 A 
HETATM   19  C   UNL     1      43.184 -18.604   1.933  1.00  0.00     0.032 A 
BRANCH  15  20
HETATM   20  O   UNL     1      44.102 -17.886   5.408  1.00  0.00    -0.354 OA
HETATM   21  C   UNL     1      45.239 -18.389   6.110  1.00  0.00     0.210 C 
ENDBRANCH  15  20
ENDBRANCH  11  14
ENDBRANCH   8  10
BRANCH   7  22
HETATM   22  C   UNL     1      40.050 -13.852   1.300  1.00  0.00    -0.016 A 
HETATM   23  C   UNL     1      40.079 -14.255  -0.059  1.00  0.00     0.056 A 
HETATM   24  C   UNL     1      38.903 -14.162  -0.832  1.00  0.00     0.017 A 
HETATM   25  C   UNL     1      37.718 -13.673  -0.286  1.00  0.00     0.001 A 
HETATM   26  C   UNL     1      37.687 -13.265   1.041  1.00  0.00     0.001 A 
HETATM   27  C   UNL     1      38.837 -13.352   1.824  1.00  0.00     0.010 A 
BRANCH  23  28
HETATM   28  C   UNL     1      41.344 -14.760  -0.719  1.00  0.00     0.418 C 
HETATM   29  F   UNL     1      41.118 -15.168  -2.001  1.00  0.00    -0.166 F 
HETATM   30  F   UNL     1      42.322 -13.819  -0.798  1.00  0.00    -0.166 F 
HETATM   31  F   UNL     1      41.907 -15.829  -0.090  1.00  0.00    -0.166 F 
ENDBRANCH  23  28
ENDBRANCH   7  22
BRANCH   3  32
HETATM   32  C   UNL     1      40.683 -12.479   6.207  1.00  0.00     0.160 C 
BRANCH  32  33
HETATM   33  C   UNL     1      39.207 -12.164   6.496  1.00  0.00     0.187 C 
BRANCH  33  34
HETATM   34  O   UNL     1      39.074 -10.947   7.228  1.00  0.00    -0.394 OA
HETATM   35  C   UNL     1      39.486 -11.095   8.579  1.00  0.00     0.201 C 
ENDBRANCH  33  34
ENDBRANCH  32  33
ENDBRANCH   3  32
TORSDOF 8
ENDMDL
MODEL 4
REMARK VINA RESULT:      -7.8      1.817      2.076
REMARK  8 active torsions:
REMARK  status: ('A' for Active; 'I' for Inactive)
REMARK    1  A    between atoms: N_3  and  C_4 
REMARK    2  A    between atoms: C_4  and  C_5 
REMARK    3  A    between atoms: C_5  and  O_6 
REMARK    4  A    between atoms: C_11  and  C_12 
REMARK    5  A    between atoms: C_13  and  C_14 
REMARK    6  A    between atoms: C_22  and  C_23 
REMARK       I    between atoms: C_23  and  N_24 
REMARK    7  A    between atoms: N_24  and  C_25 
REMARK    8  A    between atoms: C_26  and  O_27 
ROOT
HETATM    1  C   UNL     1      42.217 -15.490   0.641  1.00  0.00     0.069 C 
HETATM    2  C   UNL     1      41.706 -15.509   2.064  1.00  0.00     0.026 C 
HETATM    3  N   UNL     1      40.667 -14.646   2.448  1.00  0.00    -0.301 N 
HETATM    4  C   UNL     1      40.091 -14.692   3.722  1.00  0.00     0.323 C 
HETATM    5  O   UNL     1      39.163 -13.983   4.105  1.00  0.00    -0.247 OA
HETATM    6  N   UNL     1      40.607 -15.604   4.593  1.00  0.00    -0.330 N 
HETATM    7  C   UNL     1      41.889 -16.246   4.447  1.00  0.00     0.161 C 
HETATM    8  C   UNL     1      42.247 -16.318   3.000  1.00  0.00     0.059 C 
HETATM    9  H   UNL     1      40.195 -15.553   5.513  1.00  0.00     0.165 HD
ENDROOT
BRANCH   8  10
HETATM   10  C   UNL     1      43.212 -17.389   2.638  1.00  0.00     0.256 C 
HETATM   11  N   UNL     1      42.897 -18.576   3.272  1.00  0.00    -0.321 N 
HETATM   12  H   UNL     1      42.265 -18.510   4.060  1.00  0.00     0.169 HD
HETATM   13  O   UNL     1      44.200 -17.129   1.967  1.00  0.00    -0.267 OA
BRANCH  11  14
HETATM   14  C   UNL     1      43.471 -19.845   3.046  1.00  0.00     0.068 A 
HETATM   15  C   UNL     1      44.225 -20.563   3.987  1.00  0.00     0.095 A 
HETATM   16  C   UNL     1      44.781 -21.802   3.640  1.00  0.00     0.039 A 
HETATM   17  C   UNL     1      44.583 -22.336   2.367  1.00  0.00     0.003 A 
HETATM   18  C   UNL     1      43.856 -21.619   1.422  1.00  0.00     0.002 A 
HETATM   19  C   UNL     1      43.316 -20.375   1.756  1.00  0.00     0.032 A 
BRANCH  15  20
HETATM   20  O   UNL     1      44.584 -19.970   5.170  1.00  0.00    -0.354 OA
HETATM   21  C   UNL     1      44.285 -20.787   6.302  1.00  0.00     0.210 C 
ENDBRANCH  15  20
ENDBRANCH  11  14
ENDBRANCH   8  10
BRANCH   7  22
HETATM   22  C   UNL     1      42.927 -15.543   5.324  1.00  0.00    -0.016 A 
HETATM   23  C   UNL     1      43.229 -15.987   6.637  1.00  0.00     0.056 A 
HETATM   24  C   UNL     1      44.192 -15.291   7.396  1.00  0.00     0.017 A 
HETATM   25  C   UNL     1      44.844 -14.172   6.882  1.00  0.00     0.001 A 
HETATM   26  C   UNL     1      44.543 -13.725   5.602  1.00  0.00     0.001 A 
HETATM   27  C   UNL     1      43.596 -14.401   4.834  1.00  0.00     0.010 A 
BRANCH  23  28
HETATM   28  C   UNL     1      42.529 -17.174   7.263  1.00  0.00     0.418 C 
HETATM   29  F   UNL     1      42.707 -18.311   6.531  1.00  0.00    -0.166 F 
HETATM   30  F   UNL     1      42.979 -17.466   8.513  1.00  0.00    -0.166 F 
HETATM   31  F   UNL     1      41.181 -17.022   7.380  1.00  0.00    -0.166 F 
ENDBRANCH  23  28
ENDBRANCH   7  22
BRANCH   3  32
HETATM   32  C   UNL     1      40.032 -13.721   1.495  1.00  0.00     0.160 C 
BRANCH  32  33
HETATM   33  C   UNL     1      38.785 -14.282   0.795  1.00  0.00     0.187 C 
BRANCH  33  34
HETATM   34  O   UNL     1      38.462 -13.524  -0.369  1.00  0.00    -0.394 OA
HETATM   35  C   UNL     1      39.248 -13.913  -1.487  1.00  0.00     0.201 C 
ENDBRANCH  33  34
ENDBRANCH  32  33
ENDBRANCH   3  32
TORSDOF 8
ENDMDL
MODEL 5
REMARK VINA RESULT:      -7.8      2.645      5.838
REMARK  8 active torsions:
REMARK  status: ('A' for Active; 'I' for Inactive)
REMARK    1  A    between atoms: N_3  and  C_4 
REMARK    2  A    between atoms: C_4  and  C_5 
REMARK    3  A    between atoms: C_5  and  O_6 
REMARK    4  A    between atoms: C_11  and  C_12 
REMARK    5  A    between atoms: C_13  and  C_14 
REMARK    6  A    between atoms: C_22  and  C_23 
REMARK       I    between atoms: C_23  and  N_24 
REMARK    7  A    between atoms: N_24  and  C_25 
REMARK    8  A    between atoms: C_26  and  O_27 
ROOT
HETATM    1  C   UNL     1      42.276 -13.212   3.570  1.00  0.00     0.069 C 
HETATM    2  C   UNL     1      41.789 -14.582   3.981  1.00  0.00     0.026 C 
HETATM    3  N   UNL     1      41.148 -14.757   5.218  1.00  0.00    -0.301 N 
HETATM    4  C   UNL     1      40.591 -15.982   5.603  1.00  0.00     0.323 C 
HETATM    5  O   UNL     1      39.995 -16.187   6.659  1.00  0.00    -0.247 OA
HETATM    6  N   UNL     1      40.721 -17.015   4.726  1.00  0.00    -0.330 N 
HETATM    7  C   UNL     1      41.669 -17.057   3.640  1.00  0.00     0.161 C 
HETATM    8  C   UNL     1      41.982 -15.667   3.200  1.00  0.00     0.059 C 
HETATM    9  H   UNL     1      40.354 -17.887   5.080  1.00  0.00     0.165 HD
ENDROOT
BRANCH   8  10
HETATM   10  C   UNL     1      42.475 -15.540   1.803  1.00  0.00     0.256 C 
HETATM   11  N   UNL     1      41.449 -15.200   0.943  1.00  0.00    -0.321 N 
HETATM   12  H   UNL     1      40.508 -15.340   1.289  1.00  0.00     0.169 HD
HETATM   13  O   UNL     1      43.625 -15.845   1.525  1.00  0.00    -0.267 OA
BRANCH  11  14
HETATM   14  C   UNL     1      41.558 -14.827  -0.414  1.00  0.00     0.068 A 
HETATM   15  C   UNL     1      42.063 -13.599  -0.870  1.00  0.00     0.095 A 
HETATM   16  C   UNL     1      42.090 -13.321  -2.243  1.00  0.00     0.039 A 
HETATM   17  C   UNL     1      41.627 -14.259  -3.166  1.00  0.00     0.003 A 
HETATM   18  C   UNL     1      41.105 -15.468  -2.719  1.00  0.00     0.002 A 
HETATM   19  C   UNL     1      41.057 -15.744  -1.351  1.00  0.00     0.032 A 
BRANCH  15  20
HETATM   20  O   UNL     1      42.344 -12.601   0.028  1.00  0.00    -0.354 OA
HETATM   21  C   UNL     1      42.231 -11.301  -0.551  1.00  0.00     0.210 C 
ENDBRANCH  15  20
ENDBRANCH  11  14
ENDBRANCH   8  10
BRANCH   7  22
HETATM   22  C   UNL     1      42.891 -17.885   4.047  1.00  0.00    -0.016 A 
HETATM   23  C   UNL     1      43.429 -18.895   3.210  1.00  0.00     0.056 A 
HETATM   24  C   UNL     1      44.553 -19.625   3.646  1.00  0.00     0.017 A 
HETATM   25  C   UNL     1      45.137 -19.378   4.887  1.00  0.00     0.001 A 
HETATM   26  C   UNL     1      44.606 -18.398   5.716  1.00  0.00     0.001 A 
HETATM   27  C   UNL     1      43.497 -17.662   5.303  1.00  0.00     0.010 A 
BRANCH  23  28
HETATM   28  C   UNL     1      42.818 -19.235   1.868  1.00  0.00     0.418 C 
HETATM   29  F   UNL     1      43.617 -18.845   0.834  1.00  0.00    -0.166 F 
HETATM   30  F   UNL     1      42.611 -20.567   1.693  1.00  0.00    -0.166 F 
HETATM   31  F   UNL     1      41.613 -18.640   1.643  1.00  0.00    -0.166 F 
ENDBRANCH  23  28
ENDBRANCH   7  22
BRANCH   3  32
HETATM   32  C   UNL     1      40.912 -13.632   6.138  1.00  0.00     0.160 C 
BRANCH  32  33
HETATM   33  C   UNL     1      39.563 -12.923   5.946  1.00  0.00     0.187 C 
BRANCH  33  34
HETATM   34  O   UNL     1      39.055 -12.438   7.187  1.00  0.00    -0.394 OA
HETATM   35  C   UNL     1      39.713 -11.248   7.599  1.00  0.00     0.201 C 
ENDBRANCH  33  34
ENDBRANCH  32  33
ENDBRANCH   3  32
TORSDOF 8
ENDMDL
MODEL 6
REMARK VINA RESULT:      -7.6      2.686      4.650
REMARK  8 active torsions:
REMARK  status: ('A' for Active; 'I' for Inactive)
REMARK    1  A    between atoms: N_3  and  C_4 
REMARK    2  A    between atoms: C_4  and  C_5 
REMARK    3  A    between atoms: C_5  and  O_6 
REMARK    4  A    between atoms: C_11  and  C_12 
REMARK    5  A    between atoms: C_13  and  C_14 
REMARK    6  A    between atoms: C_22  and  C_23 
REMARK       I    between atoms: C_23  and  N_24 
REMARK    7  A    between atoms: N_24  and  C_25 
REMARK    8  A    between atoms: C_26  and  O_27 
ROOT
HETATM    1  C   UNL     1      40.375 -15.779   6.288  1.00  0.00     0.069 C 
HETATM    2  C   UNL     1      41.267 -15.117   5.262  1.00  0.00     0.026 C 
HETATM    3  N   UNL     1      41.384 -13.719   5.231  1.00  0.00    -0.301 N 
HETATM    4  C   UNL     1      42.269 -13.062   4.369  1.00  0.00     0.323 C 
HETATM    5  O   UNL     1      42.436 -11.845   4.318  1.00  0.00    -0.247 OA
HETATM    6  N   UNL     1      43.002 -13.848   3.532  1.00  0.00    -0.330 N 
HETATM    7  C   UNL     1      42.690 -15.218   3.207  1.00  0.00     0.161 C 
HETATM    8  C   UNL     1      41.938 -15.837   4.337  1.00  0.00     0.059 C 
HETATM    9  H   UNL     1      43.578 -13.320   2.893  1.00  0.00     0.165 HD
ENDROOT
BRANCH   8  10
HETATM   10  C   UNL     1      42.021 -17.319   4.417  1.00  0.00     0.256 C 
HETATM   11  N   UNL     1      43.296 -17.728   4.756  1.00  0.00    -0.321 N 
HETATM   12  H   UNL     1      44.032 -17.041   4.646  1.00  0.00     0.169 HD
HETATM   13  O   UNL     1      41.070 -18.009   4.079  1.00  0.00    -0.267 OA
BRANCH  11  14
HETATM   14  C   UNL     1      43.716 -19.033   5.091  1.00  0.00     0.068 A 
HETATM   15  C   UNL     1      43.596 -19.612   6.364  1.00  0.00     0.095 A 
HETATM   16  C   UNL     1      44.083 -20.906   6.593  1.00  0.00     0.039 A 
HETATM   17  C   UNL     1      44.677 -21.632   5.561  1.00  0.00     0.003 A 
HETATM   18  C   UNL     1      44.818 -21.057   4.303  1.00  0.00     0.002 A 
HETATM   19  C   UNL     1      44.353 -19.760   4.074  1.00  0.00     0.032 A 
BRANCH  15  20
HETATM   20  O   UNL     1      43.189 -18.846   7.427  1.00  0.00    -0.354 OA
HETATM   21  C   UNL     1      44.246 -18.594   8.353  1.00  0.00     0.210 C 
ENDBRANCH  15  20
ENDBRANCH  11  14
ENDBRANCH   8  10
BRANCH   7  22
HETATM   22  C   UNL     1      41.974 -15.283   1.856  1.00  0.00    -0.016 A 
HETATM   23  C   UNL     1      42.269 -16.282   0.895  1.00  0.00     0.056 A 
HETATM   24  C   UNL     1      41.577 -16.283  -0.334  1.00  0.00     0.017 A 
HETATM   25  C   UNL     1      40.617 -15.316  -0.621  1.00  0.00     0.001 A 
HETATM   26  C   UNL     1      40.333 -14.327   0.312  1.00  0.00     0.001 A 
HETATM   27  C   UNL     1      41.003 -14.309   1.534  1.00  0.00     0.010 A 
BRANCH  23  28
HETATM   28  C   UNL     1      43.326 -17.339   1.134  1.00  0.00     0.418 C 
HETATM   29  F   UNL     1      42.804 -18.453   1.722  1.00  0.00    -0.166 F 
HETATM   30  F   UNL     1      43.923 -17.770  -0.009  1.00  0.00    -0.166 F 
HETATM   31  F   UNL     1      44.337 -16.934   1.952  1.00  0.00    -0.166 F 
ENDBRANCH  23  28
ENDBRANCH   7  22
BRANCH   3  32
HETATM   32  C   UNL     1      40.674 -12.858   6.192  1.00  0.00     0.160 C 
BRANCH  32  33
HETATM   33  C   UNL     1      39.304 -12.356   5.708  1.00  0.00     0.187 C 
BRANCH  33  34
HETATM   34  O   UNL     1      38.950 -11.130   6.345  1.00  0.00    -0.394 OA
HETATM   35  C   UNL     1      40.046 -10.228   6.400  1.00  0.00     0.201 C 
ENDBRANCH  33  34
ENDBRANCH  32  33
ENDBRANCH   3  32
TORSDOF 8
ENDMDL
MODEL 7
REMARK VINA RESULT:      -7.4      2.621      5.124
REMARK  8 active torsions:
REMARK  status: ('A' for Active; 'I' for Inactive)
REMARK    1  A    between atoms: N_3  and  C_4 
REMARK    2  A    between atoms: C_4  and  C_5 
REMARK    3  A    between atoms: C_5  and  O_6 
REMARK    4  A    between atoms: C_11  and  C_12 
REMARK    5  A    between atoms: C_13  and  C_14 
REMARK    6  A    between atoms: C_22  and  C_23 
REMARK       I    between atoms: C_23  and  N_24 
REMARK    7  A    between atoms: N_24  and  C_25 
REMARK    8  A    between atoms: C_26  and  O_27 
ROOT
HETATM    1  C   UNL     1      40.984 -10.460   3.624  1.00  0.00     0.069 C 
HETATM    2  C   UNL     1      40.663 -11.628   4.527  1.00  0.00     0.026 C 
HETATM    3  N   UNL     1      40.042 -11.407   5.766  1.00  0.00    -0.301 N 
HETATM    4  C   UNL     1      39.634 -12.457   6.596  1.00  0.00     0.323 C 
HETATM    5  O   UNL     1      39.061 -12.326   7.676  1.00  0.00    -0.247 OA
HETATM    6  N   UNL     1      39.892 -13.719   6.153  1.00  0.00    -0.330 N 
HETATM    7  C   UNL     1      40.843 -14.051   5.122  1.00  0.00     0.161 C 
HETATM    8  C   UNL     1      40.988 -12.895   4.191  1.00  0.00     0.059 C 
HETATM    9  H   UNL     1      39.630 -14.435   6.816  1.00  0.00     0.165 HD
ENDROOT
BRANCH   8  10
HETATM   10  C   UNL     1      41.470 -13.236   2.826  1.00  0.00     0.256 C 
HETATM   11  N   UNL     1      40.474 -13.845   2.086  1.00  0.00    -0.321 N 
HETATM   12  H   UNL     1      39.687 -14.210   2.608  1.00  0.00     0.169 HD
HETATM   13  O   UNL     1      42.646 -13.083   2.531  1.00  0.00    -0.267 OA
BRANCH  11  14
HETATM   14  C   UNL     1      40.499 -14.154   0.709  1.00  0.00     0.068 A 
HETATM   15  C   UNL     1      41.085 -15.303   0.155  1.00  0.00     0.095 A 
HETATM   16  C   UNL     1      41.084 -15.488  -1.234  1.00  0.00     0.039 A 
HETATM   17  C   UNL     1      40.493 -14.544  -2.074  1.00  0.00     0.003 A 
HETATM   18  C   UNL     1      39.930 -13.393  -1.533  1.00  0.00     0.002 A 
HETATM   19  C   UNL     1      39.946 -13.193  -0.151  1.00  0.00     0.032 A 
BRANCH  15  20
HETATM   20  O   UNL     1      41.830 -16.138   0.948  1.00  0.00    -0.354 OA
HETATM   21  C   UNL     1      41.203 -17.406   1.141  1.00  0.00     0.210 C 
ENDBRANCH  15  20
ENDBRANCH  11  14
ENDBRANCH   8  10
BRANCH   7  22
HETATM   22  C   UNL     1      42.153 -14.526   5.755  1.00  0.00    -0.016 A 
HETATM   23  C   UNL     1      42.413 -15.896   6.011  1.00  0.00     0.056 A 
HETATM   24  C   UNL     1      43.639 -16.267   6.601  1.00  0.00     0.017 A 
HETATM   25  C   UNL     1      44.592 -15.311   6.945  1.00  0.00     0.001 A 
HETATM   26  C   UNL     1      44.337 -13.966   6.708  1.00  0.00     0.001 A 
HETATM   27  C   UNL     1      43.134 -13.578   6.122  1.00  0.00     0.010 A 
BRANCH  23  28
HETATM   28  C   UNL     1      41.403 -16.977   5.693  1.00  0.00     0.418 C 
HETATM   29  F   UNL     1      41.938 -18.225   5.823  1.00  0.00    -0.166 F 
HETATM   30  F   UNL     1      40.316 -16.955   6.510  1.00  0.00    -0.166 F 
HETATM   31  F   UNL     1      40.913 -16.920   4.423  1.00  0.00    -0.166 F 
ENDBRANCH  23  28
ENDBRANCH   7  22
BRANCH   3  32
HETATM   32  C   UNL     1      39.668 -10.056   6.219  1.00  0.00     0.160 C 
BRANCH  32  33
HETATM   33  C   UNL     1      40.751  -9.334   7.035  1.00  0.00     0.187 C 
BRANCH  33  34
HETATM   34  O   UNL     1      41.927 -10.133   7.151  1.00  0.00    -0.394 OA
HETATM   35  C   UNL     1      42.184 -10.504   8.498  1.00  0.00     0.201 C 
ENDBRANCH  33  34
ENDBRANCH  32  33
ENDBRANCH   3  32
TORSDOF 8
ENDMDL
MODEL 8
REMARK VINA RESULT:      -7.1      3.306      5.485
REMARK  8 active torsions:
REMARK  status: ('A' for Active; 'I' for Inactive)
REMARK    1  A    between atoms: N_3  and  C_4 
REMARK    2  A    between atoms: C_4  and  C_5 
REMARK    3  A    between atoms: C_5  and  O_6 
REMARK    4  A    between atoms: C_11  and  C_12 
REMARK    5  A    between atoms: C_13  and  C_14 
REMARK    6  A    between atoms: C_22  and  C_23 
REMARK       I    between atoms: C_23  and  N_24 
REMARK    7  A    between atoms: N_24  and  C_25 
REMARK    8  A    between atoms: C_26  and  O_27 
ROOT
HETATM    1  C   UNL     1      40.391 -14.256   5.947  1.00  0.00     0.069 C 
HETATM    2  C   UNL     1      40.712 -13.417   4.731  1.00  0.00     0.026 C 
HETATM    3  N   UNL     1      40.650 -12.017   4.808  1.00  0.00    -0.301 N 
HETATM    4  C   UNL     1      41.033 -11.192   3.744  1.00  0.00     0.323 C 
HETATM    5  O   UNL     1      41.027  -9.963   3.763  1.00  0.00    -0.247 OA
HETATM    6  N   UNL     1      41.449 -11.817   2.608  1.00  0.00    -0.330 N 
HETATM    7  C   UNL     1      41.188 -13.198   2.286  1.00  0.00     0.161 C 
HETATM    8  C   UNL     1      41.030 -13.980   3.546  1.00  0.00     0.059 C 
HETATM    9  H   UNL     1      41.656 -11.176   1.855  1.00  0.00     0.165 HD
ENDROOT
BRANCH   8  10
HETATM   10  C   UNL     1      41.304 -15.436   3.426  1.00  0.00     0.256 C 
HETATM   11  N   UNL     1      42.557 -15.749   3.917  1.00  0.00    -0.321 N 
HETATM   12  H   UNL     1      43.199 -14.974   4.033  1.00  0.00     0.169 HD
HETATM   13  O   UNL     1      40.519 -16.165   2.836  1.00  0.00    -0.267 OA
BRANCH  11  14
HETATM   14  C   UNL     1      43.097 -17.035   4.129  1.00  0.00     0.068 A 
HETATM   15  C   UNL     1      43.917 -17.721   3.219  1.00  0.00     0.095 A 
HETATM   16  C   UNL     1      44.366 -19.014   3.519  1.00  0.00     0.039 A 
HETATM   17  C   UNL     1      44.015 -19.625   4.723  1.00  0.00     0.003 A 
HETATM   18  C   UNL     1      43.185 -18.959   5.620  1.00  0.00     0.002 A 
HETATM   19  C   UNL     1      42.718 -17.678   5.317  1.00  0.00     0.032 A 
BRANCH  15  20
HETATM   20  O   UNL     1      44.112 -17.213   1.960  1.00  0.00    -0.354 OA
HETATM   21  C   UNL     1      43.484 -18.003   0.950  1.00  0.00     0.210 C 
ENDBRANCH  15  20
ENDBRANCH  11  14
ENDBRANCH   8  10
BRANCH   7  22
HETATM   22  C   UNL     1      40.001 -13.294   1.325  1.00  0.00    -0.016 A 
HETATM   23  C   UNL     1      40.145 -13.755  -0.008  1.00  0.00     0.056 A 
HETATM   24  C   UNL     1      39.012 -13.814  -0.844  1.00  0.00     0.017 A 
HETATM   25  C   UNL     1      37.756 -13.419  -0.387  1.00  0.00     0.001 A 
HETATM   26  C   UNL     1      37.611 -12.954   0.914  1.00  0.00     0.001 A 
HETATM   27  C   UNL     1      38.719 -12.891   1.759  1.00  0.00     0.010 A 
BRANCH  23  28
HETATM   28  C   UNL     1      41.488 -14.164  -0.575  1.00  0.00     0.418 C 
HETATM   29  F   UNL     1      42.346 -13.106  -0.659  1.00  0.00    -0.166 F 
HETATM   30  F   UNL     1      42.127 -15.098   0.178  1.00  0.00    -0.166 F 
HETATM   31  F   UNL     1      41.423 -14.682  -1.833  1.00  0.00    -0.166 F 
ENDBRANCH  23  28
ENDBRANCH   7  22
BRANCH   3  32
HETATM   32  C   UNL     1      40.295 -11.321   6.057  1.00  0.00     0.160 C 
BRANCH  32  33
HETATM   33  C   UNL     1      41.482 -11.047   6.994  1.00  0.00     0.187 C 
BRANCH  33  34
HETATM   34  O   UNL     1      41.822  -9.662   7.002  1.00  0.00    -0.394 OA
HETATM   35  C   UNL     1      41.336  -9.006   8.165  1.00  0.00     0.201 C 
ENDBRANCH  33  34
ENDBRANCH  32  33
ENDBRANCH   3  32
TORSDOF 8
ENDMDL
MODEL 9
REMARK VINA RESULT:      -7.1      3.584      5.709
REMARK  8 active torsions:
REMARK  status: ('A' for Active; 'I' for Inactive)
REMARK    1  A    between atoms: N_3  and  C_4 
REMARK    2  A    between atoms: C_4  and  C_5 
REMARK    3  A    between atoms: C_5  and  O_6 
REMARK    4  A    between atoms: C_11  and  C_12 
REMARK    5  A    between atoms: C_13  and  C_14 
REMARK    6  A    between atoms: C_22  and  C_23 
REMARK       I    between atoms: C_23  and  N_24 
REMARK    7  A    between atoms: N_24  and  C_25 
REMARK    8  A    between atoms: C_26  and  O_27 
ROOT
HETATM    1  C   UNL     1      42.045 -12.838   5.639  1.00  0.00     0.069 C 
HETATM    2  C   UNL     1      41.724 -12.122   4.347  1.00  0.00     0.026 C 
HETATM    3  N   UNL     1      41.098 -10.866   4.377  1.00  0.00    -0.301 N 
HETATM    4  C   UNL     1      40.869 -10.118   3.217  1.00  0.00     0.323 C 
HETATM    5  O   UNL     1      40.352  -9.003   3.184  1.00  0.00    -0.247 OA
HETATM    6  N   UNL     1      41.263 -10.680   2.041  1.00  0.00    -0.330 N 
HETATM    7  C   UNL     1      41.545 -12.081   1.853  1.00  0.00     0.161 C 
HETATM    8  C   UNL     1      41.995 -12.674   3.145  1.00  0.00     0.059 C 
HETATM    9  H   UNL     1      41.020 -10.124   1.233  1.00  0.00     0.165 HD
ENDROOT
BRANCH   8  10
HETATM   10  C   UNL     1      42.823 -13.903   3.024  1.00  0.00     0.256 C 
HETATM   11  N   UNL     1      42.029 -15.027   2.902  1.00  0.00    -0.321 N 
HETATM   12  H   UNL     1      41.058 -14.922   3.169  1.00  0.00     0.169 HD
HETATM   13  O   UNL     1      44.037 -13.845   3.159  1.00  0.00    -0.267 OA
BRANCH  11  14
HETATM   14  C   UNL     1      42.446 -16.341   2.596  1.00  0.00     0.068 A 
HETATM   15  C   UNL     1      42.423 -17.419   3.495  1.00  0.00     0.095 A 
HETATM   16  C   UNL     1      42.898 -18.674   3.093  1.00  0.00     0.039 A 
HETATM   17  C   UNL     1      43.385 -18.867   1.801  1.00  0.00     0.003 A 
HETATM   18  C   UNL     1      43.431 -17.798   0.912  1.00  0.00     0.002 A 
HETATM   19  C   UNL     1      42.977 -16.539   1.313  1.00  0.00     0.032 A 
BRANCH  15  20
HETATM   20  O   UNL     1      42.126 -17.200   4.816  1.00  0.00    -0.354 OA
HETATM   21  C   UNL     1      43.296 -17.085   5.626  1.00  0.00     0.210 C 
ENDBRANCH  15  20
ENDBRANCH  11  14
ENDBRANCH   8  10
BRANCH   7  22
HETATM   22  C   UNL     1      40.336 -12.776   1.222  1.00  0.00    -0.016 A 
HETATM   23  C   UNL     1      40.362 -13.275  -0.106  1.00  0.00     0.056 A 
HETATM   24  C   UNL     1      39.212 -13.900  -0.630  1.00  0.00     0.017 A 
HETATM   25  C   UNL     1      38.051 -14.028   0.130  1.00  0.00     0.001 A 
HETATM   26  C   UNL     1      38.016 -13.530   1.426  1.00  0.00     0.001 A 
HETATM   27  C   UNL     1      39.143 -12.911   1.964  1.00  0.00     0.010 A 
BRANCH  23  28
HETATM   28  C   UNL     1      41.580 -13.134  -0.992  1.00  0.00     0.418 C 
HETATM   29  F   UNL     1      41.919 -11.827  -1.185  1.00  0.00    -0.166 F 
HETATM   30  F   UNL     1      42.690 -13.730  -0.479  1.00  0.00    -0.166 F 
HETATM   31  F   UNL     1      41.420 -13.658  -2.239  1.00  0.00    -0.166 F 
ENDBRANCH  23  28
ENDBRANCH   7  22
BRANCH   3  32
HETATM   32  C   UNL     1      40.752 -10.199   5.644  1.00  0.00     0.160 C 
BRANCH  32  33
HETATM   33  C   UNL     1      39.278 -10.336   6.055  1.00  0.00     0.187 C 
BRANCH  33  34
HETATM   34  O   UNL     1      39.078 -11.485   6.878  1.00  0.00    -0.394 OA
HETATM   35  C   UNL     1      39.459 -11.243   8.225  1.00  0.00     0.201 C 
ENDBRANCH  33  34
ENDBRANCH  32  33
ENDBRANCH   3  32
TORSDOF 8
ENDMDL
MODEL 10
REMARK VINA RESULT:      -7.0      3.198      7.572
REMARK  8 active torsions:
REMARK  status: ('A' for Active; 'I' for Inactive)
REMARK    1  A    between atoms: N_3  and  C_4 
REMARK    2  A    between atoms: C_4  and  C_5 
REMARK    3  A    between atoms: C_5  and  O_6 
REMARK    4  A    between atoms: C_11  and  C_12 
REMARK    5  A    between atoms: C_13  and  C_14 
REMARK    6  A    between atoms: C_22  and  C_23 
REMARK       I    between atoms: C_23  and  N_24 
REMARK    7  A    between atoms: N_24  and  C_25 
REMARK    8  A    between atoms: C_26  and  O_27 
ROOT
HETATM    1  C   UNL     1      43.566 -14.581   3.226  1.00  0.00     0.069 C 
HETATM    2  C   UNL     1      42.315 -15.109   2.561  1.00  0.00     0.026 C 
HETATM    3  N   UNL     1      42.297 -16.410   2.035  1.00  0.00    -0.301 N 
HETATM    4  C   UNL     1      41.138 -16.983   1.499  1.00  0.00     0.323 C 
HETATM    5  O   UNL     1      41.054 -18.124   1.051  1.00  0.00    -0.247 OA
HETATM    6  N   UNL     1      40.021 -16.203   1.488  1.00  0.00    -0.330 N 
HETATM    7  C   UNL     1      40.019 -14.769   1.631  1.00  0.00     0.161 C 
HETATM    8  C   UNL     1      41.209 -14.347   2.425  1.00  0.00     0.059 C 
HETATM    9  H   UNL     1      39.232 -16.644   1.037  1.00  0.00     0.165 HD
ENDROOT
BRANCH   8  10
HETATM   10  C   UNL     1      41.078 -13.038   3.116  1.00  0.00     0.256 C 
HETATM   11  N   UNL     1      40.644 -13.204   4.418  1.00  0.00    -0.321 N 
HETATM   12  H   UNL     1      40.231 -14.100   4.642  1.00  0.00     0.169 HD
HETATM   13  O   UNL     1      41.228 -11.995   2.496  1.00  0.00    -0.267 OA
BRANCH  11  14
HETATM   14  C   UNL     1      40.567 -12.219   5.427  1.00  0.00     0.068 A 
HETATM   15  C   UNL     1      39.451 -11.403   5.668  1.00  0.00     0.095 A 
HETATM   16  C   UNL     1      39.500 -10.430   6.675  1.00  0.00     0.039 A 
HETATM   17  C   UNL     1      40.648 -10.272   7.451  1.00  0.00     0.003 A 
HETATM   18  C   UNL     1      41.765 -11.062   7.203  1.00  0.00     0.002 A 
HETATM   19  C   UNL     1      41.729 -12.020   6.187  1.00  0.00     0.032 A 
BRANCH  15  20
HETATM   20  O   UNL     1      38.392 -11.419   4.795  1.00  0.00    -0.354 OA
HETATM   21  C   UNL     1      38.279 -10.205   4.054  1.00  0.00     0.210 C 
ENDBRANCH  15  20
ENDBRANCH  11  14
ENDBRANCH   8  10
BRANCH   7  22
HETATM   22  C   UNL     1      39.906 -14.107   0.255  1.00  0.00    -0.016 A 
HETATM   23  C   UNL     1      38.744 -13.403  -0.150  1.00  0.00     0.056 A 
HETATM   24  C   UNL     1      38.702 -12.821  -1.433  1.00  0.00     0.017 A 
HETATM   25  C   UNL     1      39.778 -12.934  -2.312  1.00  0.00     0.001 A 
HETATM   26  C   UNL     1      40.914 -13.634  -1.925  1.00  0.00     0.001 A 
HETATM   27  C   UNL     1      40.977 -14.214  -0.659  1.00  0.00     0.010 A 
BRANCH  23  28
HETATM   28  C   UNL     1      37.530 -13.276   0.745  1.00  0.00     0.418 C 
HETATM   29  F   UNL     1      36.571 -12.483   0.189  1.00  0.00    -0.166 F 
HETATM   30  F   UNL     1      36.923 -14.466   1.000  1.00  0.00    -0.166 F 
HETATM   31  F   UNL     1      37.797 -12.727   1.964  1.00  0.00    -0.166 F 
ENDBRANCH  23  28
ENDBRANCH   7  22
BRANCH   3  32
HETATM   32  C   UNL     1      43.464 -17.303   2.125  1.00  0.00     0.160 C 
BRANCH  32  33
HETATM   33  C   UNL     1      43.468 -18.227   3.353  1.00  0.00     0.187 C 
BRANCH  33  34
HETATM   34  O   UNL     1      44.218 -19.414   3.101  1.00  0.00    -0.394 OA
HETATM   35  C   UNL     1      43.622 -20.210   2.086  1.00  0.00     0.201 C 
ENDBRANCH  33  34
ENDBRANCH  32  33
ENDBRANCH   3  32
TORSDOF 8
ENDMDL
