MODEL 1
REMARK VINA RESULT:      -6.7      0.000      0.000
REMARK  10 active torsions:
REMARK  status: ('A' for Active; 'I' for Inactive)
REMARK    1  A    between atoms: C_3  and  C_4 
REMARK    2  A    between atoms: C_4  and  C_5 
REMARK       I    between atoms: C_5  and  N_6 
REMARK    3  A    between atoms: N_6  and  C_7 
REMARK    4  A    between atoms: C_7  and  C_8 
REMARK    5  A    between atoms: C_8  and  O_9 
REMARK    6  A    between atoms: C_15  and  N_16 
REMARK       I    between atoms: N_16  and  C_17 
REMARK    7  A    between atoms: C_17  and  C_18 
REMARK    8  A    between atoms: C_26  and  C_27 
REMARK    9  A    between atoms: C_27  and  O_28 
REMARK   10  A    between atoms: C_30  and  O_31 
ROOT
HETATM    1  C   UNL     1      42.482 -12.807  -2.540  1.00  0.00     0.016 C 
HETATM    2  C   UNL     1      41.037 -12.829  -1.945  1.00  0.00    -0.030 C 
HETATM    3  C   UNL     1      40.607 -14.335  -1.680  1.00  0.00     0.056 C 
HETATM    4  C   UNL     1      41.264 -14.870  -0.430  1.00  0.00     0.056 A 
HETATM    5  C   UNL     1      41.799 -14.061   0.553  1.00  0.00     0.012 A 
HETATM    6  S   UNL     1      42.305 -14.994   1.881  1.00  0.00    -0.055 SA
HETATM    7  C   UNL     1      41.896 -16.402   1.004  1.00  0.00     0.173 A 
HETATM    8  N   UNL     1      41.365 -16.231  -0.181  1.00  0.00    -0.227 NA
HETATM    9  C   UNL     1      41.952 -12.587   0.494  1.00  0.00     0.055 C 
HETATM   10  C   UNL     1      41.058 -11.962  -0.609  1.00  0.00     0.012 C 
HETATM   11  C   UNL     1      39.677 -11.387  -0.068  1.00  0.00     0.008 C 
HETATM   12  C   UNL     1      39.994  -9.986   0.546  1.00  0.00     0.020 C 
HETATM   13  C   UNL     1      38.666 -11.156  -1.232  1.00  0.00     0.128 C 
HETATM   14  C   UNL     1      39.371 -10.932  -2.565  1.00  0.00     0.033 C 
HETATM   15  C   UNL     1      40.100 -12.193  -3.019  1.00  0.00     0.013 C 
ENDROOT
BRANCH   3  16
HETATM   16  C   UNL     1      40.835 -15.260  -2.889  1.00  0.00     0.114 C 
BRANCH  16  17
HETATM   17  C   UNL     1      39.528 -15.589  -3.577  1.00  0.00     0.218 C 
HETATM   18  N   UNL     1      38.408 -15.104  -2.951  1.00  0.00    -0.359 N 
HETATM   19  H   UNL     1      38.540 -14.298  -2.333  1.00  0.00     0.162 HD
HETATM   20  O   UNL     1      39.506 -16.251  -4.614  1.00  0.00    -0.274 OA
BRANCH  18  21
HETATM   21  C   UNL     1      37.091 -15.326  -3.520  1.00  0.00     0.148 C 
BRANCH  21  22
HETATM   22  C   UNL     1      36.620 -14.214  -4.461  1.00  0.00     0.186 C 
BRANCH  22  23
HETATM   23  O   UNL     1      36.724 -12.916  -3.866  1.00  0.00    -0.394 OA
HETATM   24  C   UNL     1      36.161 -11.894  -4.678  1.00  0.00     0.201 C 
ENDBRANCH  22  23
ENDBRANCH  21  22
ENDBRANCH  18  21
ENDBRANCH  16  17
ENDBRANCH   3  16
BRANCH  11  25
HETATM   25  C   UNL     1      39.013 -12.188   1.085  1.00  0.00     0.176 C 
BRANCH  25  26
HETATM   26  O   UNL     1      37.719 -11.726   1.422  1.00  0.00    -0.400 OA
HETATM   27  H   UNL     1      37.864 -11.042   2.113  1.00  0.00     0.209 HD
ENDBRANCH  25  26
ENDBRANCH  11  25
BRANCH   7  28
HETATM   28  N   UNL     1      42.222 -17.548   1.670  1.00  0.00    -0.305 N 
HETATM   29  C   UNL     1      43.518 -17.993   1.791  1.00  0.00     0.231 C 
HETATM   30  O   UNL     1      44.494 -17.461   1.268  1.00  0.00    -0.272 OA
HETATM   31  H   UNL     1      41.475 -17.963   2.203  1.00  0.00     0.171 HD
BRANCH  29  32
HETATM   32  C   UNL     1      43.655 -19.270   2.655  1.00  0.00     0.030 C 
HETATM   33  C   UNL     1      43.004 -19.026   4.024  1.00  0.00     0.025 C 
HETATM   34  C   UNL     1      42.936 -20.440   1.960  1.00  0.00     0.025 C 
HETATM   35  C   UNL     1      45.133 -19.657   2.841  1.00  0.00     0.025 C 
ENDBRANCH  29  32
ENDBRANCH   7  28
BRANCH  13  36
HETATM   36  O   UNL     1      37.770 -12.264  -1.361  1.00  0.00    -0.395 OA
HETATM   37  H   UNL     1      38.157 -13.018  -0.879  1.00  0.00     0.210 HD
ENDBRANCH  13  36
TORSDOF 10
ENDMDL
MODEL 2
REMARK VINA RESULT:      -6.5      3.847      8.415
REMARK  10 active torsions:
REMARK  status: ('A' for Active; 'I' for Inactive)
REMARK    1  A    between atoms: C_3  and  C_4 
REMARK    2  A    between atoms: C_4  and  C_5 
REMARK       I    between atoms: C_5  and  N_6 
REMARK    3  A    between atoms: N_6  and  C_7 
REMARK    4  A    between atoms: C_7  and  C_8 
REMARK    5  A    between atoms: C_8  and  O_9 
REMARK    6  A    between atoms: C_15  and  N_16 
REMARK       I    between atoms: N_16  and  C_17 
REMARK    7  A    between atoms: C_17  and  C_18 
REMARK    8  A    between atoms: C_26  and  C_27 
REMARK    9  A    between atoms: C_27  and  O_28 
REMARK   10  A    between atoms: C_30  and  O_31 
ROOT
HETATM    1  C   UNL     1      44.373 -13.992   4.026  1.00  0.00     0.016 C 
HETATM    2  C   UNL     1      43.254 -14.889   4.648  1.00  0.00    -0.030 C 
HETATM    3  C   UNL     1      41.843 -14.427   4.085  1.00  0.00     0.056 C 
HETATM    4  C   UNL     1      41.635 -14.928   2.676  1.00  0.00     0.056 A 
HETATM    5  C   UNL     1      42.352 -15.973   2.128  1.00  0.00     0.012 A 
HETATM    6  S   UNL     1      41.744 -16.370   0.591  1.00  0.00    -0.055 SA
HETATM    7  C   UNL     1      40.666 -15.051   0.714  1.00  0.00     0.173 A 
HETATM    8  N   UNL     1      40.687 -14.368   1.832  1.00  0.00    -0.227 NA
HETATM    9  C   UNL     1      43.510 -16.666   2.744  1.00  0.00     0.055 C 
HETATM   10  C   UNL     1      43.590 -16.400   4.271  1.00  0.00     0.012 C 
HETATM   11  C   UNL     1      42.948 -17.553   5.159  1.00  0.00     0.008 C 
HETATM   12  C   UNL     1      44.017 -18.689   5.244  1.00  0.00     0.020 C 
HETATM   13  C   UNL     1      42.684 -17.065   6.615  1.00  0.00     0.128 C 
HETATM   14  C   UNL     1      43.608 -15.918   7.009  1.00  0.00     0.033 C 
HETATM   15  C   UNL     1      43.307 -14.665   6.192  1.00  0.00     0.013 C 
ENDROOT
BRANCH   3  16
HETATM   16  C   UNL     1      41.607 -12.908   4.194  1.00  0.00     0.114 C 
BRANCH  16  17
HETATM   17  C   UNL     1      40.362 -12.608   5.000  1.00  0.00     0.218 C 
HETATM   18  N   UNL     1      40.533 -12.641   6.361  1.00  0.00    -0.359 N 
HETATM   19  H   UNL     1      41.485 -12.495   6.709  1.00  0.00     0.162 HD
HETATM   20  O   UNL     1      39.290 -12.364   4.447  1.00  0.00    -0.274 OA
BRANCH  18  21
HETATM   21  C   UNL     1      39.424 -12.347   7.251  1.00  0.00     0.148 C 
BRANCH  21  22
HETATM   22  C   UNL     1      39.504 -10.970   7.916  1.00  0.00     0.186 C 
BRANCH  22  23
HETATM   23  O   UNL     1      38.796  -9.967   7.181  1.00  0.00    -0.394 OA
HETATM   24  C   UNL     1      39.664  -9.088   6.477  1.00  0.00     0.201 C 
ENDBRANCH  22  23
ENDBRANCH  21  22
ENDBRANCH  18  21
ENDBRANCH  16  17
ENDBRANCH   3  16
BRANCH  11  25
HETATM   25  C   UNL     1      41.683 -18.238   4.572  1.00  0.00     0.176 C 
BRANCH  25  26
HETATM   26  O   UNL     1      40.526 -17.427   4.625  1.00  0.00    -0.400 OA
HETATM   27  H   UNL     1      40.590 -16.837   3.842  1.00  0.00     0.209 HD
ENDBRANCH  25  26
ENDBRANCH  11  25
BRANCH   7  28
HETATM   28  N   UNL     1      39.930 -14.867  -0.420  1.00  0.00    -0.305 N 
HETATM   29  C   UNL     1      40.401 -14.162  -1.503  1.00  0.00     0.231 C 
HETATM   30  O   UNL     1      41.481 -13.576  -1.544  1.00  0.00    -0.272 OA
HETATM   31  H   UNL     1      39.085 -15.411  -0.479  1.00  0.00     0.171 HD
BRANCH  29  32
HETATM   32  C   UNL     1      39.427 -14.151  -2.706  1.00  0.00     0.030 C 
HETATM   33  C   UNL     1      39.672 -12.887  -3.544  1.00  0.00     0.025 C 
HETATM   34  C   UNL     1      39.681 -15.390  -3.584  1.00  0.00     0.025 C 
HETATM   35  C   UNL     1      37.963 -14.190  -2.235  1.00  0.00     0.025 C 
ENDBRANCH  29  32
ENDBRANCH   7  28
BRANCH  13  36
HETATM   36  O   UNL     1      41.327 -16.644   6.778  1.00  0.00    -0.395 OA
HETATM   37  H   UNL     1      40.866 -17.320   7.309  1.00  0.00     0.210 HD
ENDBRANCH  13  36
TORSDOF 10
ENDMDL
MODEL 3
REMARK VINA RESULT:      -6.4      2.964      5.325
REMARK  10 active torsions:
REMARK  status: ('A' for Active; 'I' for Inactive)
REMARK    1  A    between atoms: C_3  and  C_4 
REMARK    2  A    between atoms: C_4  and  C_5 
REMARK       I    between atoms: C_5  and  N_6 
REMARK    3  A    between atoms: N_6  and  C_7 
REMARK    4  A    between atoms: C_7  and  C_8 
REMARK    5  A    between atoms: C_8  and  O_9 
REMARK    6  A    between atoms: C_15  and  N_16 
REMARK       I    between atoms: N_16  and  C_17 
REMARK    7  A    between atoms: C_17  and  C_18 
REMARK    8  A    between atoms: C_26  and  C_27 
REMARK    9  A    between atoms: C_27  and  O_28 
REMARK   10  A    between atoms: C_30  and  O_31 
ROOT
HETATM    1  C   UNL     1      38.038 -13.991  -1.925  1.00  0.00     0.016 C 
HETATM    2  C   UNL     1      39.032 -12.897  -1.419  1.00  0.00    -0.030 C 
HETATM    3  C   UNL     1      39.038 -12.892   0.169  1.00  0.00     0.056 C 
HETATM    4  C   UNL     1      39.844 -14.051   0.707  1.00  0.00     0.056 A 
HETATM    5  C   UNL     1      40.777 -14.739  -0.043  1.00  0.00     0.012 A 
HETATM    6  S   UNL     1      41.604 -15.865   0.927  1.00  0.00    -0.055 SA
HETATM    7  C   UNL     1      40.581 -15.446   2.228  1.00  0.00     0.173 A 
HETATM    8  N   UNL     1      39.704 -14.497   2.013  1.00  0.00    -0.227 NA
HETATM    9  C   UNL     1      41.040 -14.573  -1.493  1.00  0.00     0.055 C 
HETATM   10  C   UNL     1      40.464 -13.235  -2.028  1.00  0.00     0.012 C 
HETATM   11  C   UNL     1      41.536 -12.063  -2.115  1.00  0.00     0.008 C 
HETATM   12  C   UNL     1      42.346 -12.305  -3.429  1.00  0.00     0.020 C 
HETATM   13  C   UNL     1      40.845 -10.674  -2.256  1.00  0.00     0.128 C 
HETATM   14  C   UNL     1      39.457 -10.786  -2.876  1.00  0.00     0.033 C 
HETATM   15  C   UNL     1      38.500 -11.528  -1.949  1.00  0.00     0.013 C 
ENDROOT
BRANCH   3  16
HETATM   16  C   UNL     1      37.628 -12.838   0.788  1.00  0.00     0.114 C 
BRANCH  16  17
HETATM   17  C   UNL     1      37.485 -11.649   1.711  1.00  0.00     0.218 C 
HETATM   18  N   UNL     1      38.252 -11.704   2.848  1.00  0.00    -0.359 N 
HETATM   19  H   UNL     1      39.083 -12.302   2.813  1.00  0.00     0.162 HD
HETATM   20  O   UNL     1      36.724 -10.721   1.439  1.00  0.00    -0.274 OA
BRANCH  18  21
HETATM   21  C   UNL     1      38.228 -10.615   3.808  1.00  0.00     0.148 C 
BRANCH  21  22
HETATM   22  C   UNL     1      39.114 -10.843   5.035  1.00  0.00     0.186 C 
BRANCH  22  23
HETATM   23  O   UNL     1      38.685 -11.963   5.816  1.00  0.00    -0.394 OA
HETATM   24  C   UNL     1      39.682 -12.971   5.922  1.00  0.00     0.201 C 
ENDBRANCH  22  23
ENDBRANCH  21  22
ENDBRANCH  18  21
ENDBRANCH  16  17
ENDBRANCH   3  16
BRANCH  11  25
HETATM   25  C   UNL     1      42.604 -12.034  -0.987  1.00  0.00     0.176 C 
BRANCH  25  26
HETATM   26  O   UNL     1      43.527 -10.969  -1.111  1.00  0.00    -0.400 OA
HETATM   27  H   UNL     1      44.413 -11.387  -1.026  1.00  0.00     0.209 HD
ENDBRANCH  25  26
ENDBRANCH  11  25
BRANCH   7  28
HETATM   28  N   UNL     1      40.805 -16.207   3.339  1.00  0.00    -0.305 N 
HETATM   29  C   UNL     1      41.672 -15.825   4.336  1.00  0.00     0.231 C 
HETATM   30  O   UNL     1      42.376 -14.818   4.308  1.00  0.00    -0.272 OA
HETATM   31  H   UNL     1      40.179 -16.986   3.460  1.00  0.00     0.171 HD
BRANCH  29  32
HETATM   32  C   UNL     1      41.706 -16.804   5.535  1.00  0.00     0.030 C 
HETATM   33  C   UNL     1      41.969 -18.227   5.018  1.00  0.00     0.025 C 
HETATM   34  C   UNL     1      42.841 -16.402   6.494  1.00  0.00     0.025 C 
HETATM   35  C   UNL     1      40.382 -16.768   6.318  1.00  0.00     0.025 C 
ENDBRANCH  29  32
ENDBRANCH   7  28
BRANCH  13  36
HETATM   36  O   UNL     1      40.734 -10.024  -0.986  1.00  0.00    -0.395 OA
HETATM   37  H   UNL     1      41.131 -10.611  -0.315  1.00  0.00     0.210 HD
ENDBRANCH  13  36
TORSDOF 10
ENDMDL
MODEL 4
REMARK VINA RESULT:      -6.4      5.139      9.376
REMARK  10 active torsions:
REMARK  status: ('A' for Active; 'I' for Inactive)
REMARK    1  A    between atoms: C_3  and  C_4 
REMARK    2  A    between atoms: C_4  and  C_5 
REMARK       I    between atoms: C_5  and  N_6 
REMARK    3  A    between atoms: N_6  and  C_7 
REMARK    4  A    between atoms: C_7  and  C_8 
REMARK    5  A    between atoms: C_8  and  O_9 
REMARK    6  A    between atoms: C_15  and  N_16 
REMARK       I    between atoms: N_16  and  C_17 
REMARK    7  A    between atoms: C_17  and  C_18 
REMARK    8  A    between atoms: C_26  and  C_27 
REMARK    9  A    between atoms: C_27  and  O_28 
REMARK   10  A    between atoms: C_30  and  O_31 
ROOT
HETATM    1  C   UNL     1      44.202 -14.020   3.603  1.00  0.00     0.016 C 
HETATM    2  C   UNL     1      42.838 -14.782   3.570  1.00  0.00    -0.030 C 
HETATM    3  C   UNL     1      42.100 -14.589   4.962  1.00  0.00     0.056 C 
HETATM    4  C   UNL     1      41.473 -13.219   5.054  1.00  0.00     0.056 A 
HETATM    5  C   UNL     1      41.210 -12.429   3.952  1.00  0.00     0.012 A 
HETATM    6  S   UNL     1      40.358 -11.032   4.412  1.00  0.00    -0.055 SA
HETATM    7  C   UNL     1      40.515 -11.514   6.043  1.00  0.00     0.173 A 
HETATM    8  N   UNL     1      41.107 -12.660   6.269  1.00  0.00    -0.227 NA
HETATM    9  C   UNL     1      41.612 -12.708   2.551  1.00  0.00     0.055 C 
HETATM   10  C   UNL     1      41.994 -14.198   2.352  1.00  0.00     0.012 C 
HETATM   11  C   UNL     1      40.818 -15.090   1.760  1.00  0.00     0.008 C 
HETATM   12  C   UNL     1      40.801 -14.830   0.220  1.00  0.00     0.020 C 
HETATM   13  C   UNL     1      41.103 -16.609   1.963  1.00  0.00     0.128 C 
HETATM   14  C   UNL     1      42.594 -16.900   2.080  1.00  0.00     0.033 C 
HETATM   15  C   UNL     1      43.174 -16.292   3.354  1.00  0.00     0.013 C 
ENDROOT
BRANCH   3  16
HETATM   16  C   UNL     1      42.995 -14.893   6.179  1.00  0.00     0.114 C 
BRANCH  16  17
HETATM   17  C   UNL     1      42.701 -16.267   6.741  1.00  0.00     0.218 C 
HETATM   18  N   UNL     1      43.790 -16.929   7.249  1.00  0.00    -0.359 N 
HETATM   19  H   UNL     1      44.584 -16.351   7.542  1.00  0.00     0.162 HD
HETATM   20  O   UNL     1      41.561 -16.730   6.723  1.00  0.00    -0.274 OA
BRANCH  18  21
HETATM   21  C   UNL     1      43.643 -18.245   7.842  1.00  0.00     0.148 C 
BRANCH  21  22
HETATM   22  C   UNL     1      43.795 -19.400   6.848  1.00  0.00     0.186 C 
BRANCH  22  23
HETATM   23  O   UNL     1      44.855 -19.178   5.913  1.00  0.00    -0.394 OA
HETATM   24  C   UNL     1      44.509 -19.565   4.590  1.00  0.00     0.201 C 
ENDBRANCH  22  23
ENDBRANCH  21  22
ENDBRANCH  18  21
ENDBRANCH  16  17
ENDBRANCH   3  16
BRANCH  11  25
HETATM   25  C   UNL     1      39.386 -14.731   2.242  1.00  0.00     0.176 C 
BRANCH  25  26
HETATM   26  O   UNL     1      38.392 -15.624   1.776  1.00  0.00    -0.400 OA
HETATM   27  H   UNL     1      37.710 -15.640   2.483  1.00  0.00     0.209 HD
ENDBRANCH  25  26
ENDBRANCH  11  25
BRANCH   7  28
HETATM   28  N   UNL     1      40.013 -10.591   6.914  1.00  0.00    -0.305 N 
HETATM   29  C   UNL     1      40.810  -9.688   7.578  1.00  0.00     0.231 C 
HETATM   30  O   UNL     1      42.037  -9.656   7.517  1.00  0.00    -0.272 OA
HETATM   31  H   UNL     1      39.010 -10.506   6.921  1.00  0.00     0.171 HD
BRANCH  29  32
HETATM   32  C   UNL     1      40.016  -8.686   8.451  1.00  0.00     0.030 C 
HETATM   33  C   UNL     1      40.940  -8.121   9.540  1.00  0.00     0.025 C 
HETATM   34  C   UNL     1      39.511  -7.527   7.572  1.00  0.00     0.025 C 
HETATM   35  C   UNL     1      38.795  -9.362   9.100  1.00  0.00     0.025 C 
ENDBRANCH  29  32
ENDBRANCH   7  28
BRANCH  13  36
HETATM   36  O   UNL     1      40.441 -17.104   3.130  1.00  0.00    -0.395 OA
HETATM   37  H   UNL     1      40.967 -16.840   3.907  1.00  0.00     0.210 HD
ENDBRANCH  13  36
TORSDOF 10
ENDMDL
MODEL 5
REMARK VINA RESULT:      -6.4      3.075      8.220
REMARK  10 active torsions:
REMARK  status: ('A' for Active; 'I' for Inactive)
REMARK    1  A    between atoms: C_3  and  C_4 
REMARK    2  A    between atoms: C_4  and  C_5 
REMARK       I    between atoms: C_5  and  N_6 
REMARK    3  A    between atoms: N_6  and  C_7 
REMARK    4  A    between atoms: C_7  and  C_8 
REMARK    5  A    between atoms: C_8  and  O_9 
REMARK    6  A    between atoms: C_15  and  N_16 
REMARK       I    between atoms: N_16  and  C_17 
REMARK    7  A    between atoms: C_17  and  C_18 
REMARK    8  A    between atoms: C_26  and  C_27 
REMARK    9  A    between atoms: C_27  and  O_28 
REMARK   10  A    between atoms: C_30  and  O_31 
ROOT
HETATM    1  C   UNL     1      39.624 -16.709   2.127  1.00  0.00     0.016 C 
HETATM    2  C   UNL     1      40.853 -16.179   2.934  1.00  0.00    -0.030 C 
HETATM    3  C   UNL     1      41.988 -15.728   1.920  1.00  0.00     0.056 C 
HETATM    4  C   UNL     1      41.658 -14.389   1.304  1.00  0.00     0.056 A 
HETATM    5  C   UNL     1      40.750 -13.505   1.852  1.00  0.00     0.012 A 
HETATM    6  S   UNL     1      40.752 -12.040   0.989  1.00  0.00    -0.055 SA
HETATM    7  C   UNL     1      41.857 -12.731  -0.115  1.00  0.00     0.173 A 
HETATM    8  N   UNL     1      42.264 -13.950   0.136  1.00  0.00    -0.227 NA
HETATM    9  C   UNL     1      39.861 -13.759   3.012  1.00  0.00     0.055 C 
HETATM   10  C   UNL     1      40.342 -14.976   3.845  1.00  0.00     0.012 C 
HETATM   11  C   UNL     1      41.211 -14.581   5.118  1.00  0.00     0.008 C 
HETATM   12  C   UNL     1      40.196 -14.152   6.226  1.00  0.00     0.020 C 
HETATM   13  C   UNL     1      41.997 -15.808   5.670  1.00  0.00     0.128 C 
HETATM   14  C   UNL     1      41.324 -17.127   5.310  1.00  0.00     0.033 C 
HETATM   15  C   UNL     1      41.364 -17.371   3.804  1.00  0.00     0.013 C 
ENDROOT
BRANCH   3  16
HETATM   16  C   UNL     1      42.310 -16.787   0.849  1.00  0.00     0.114 C 
BRANCH  16  17
HETATM   17  C   UNL     1      43.422 -17.705   1.309  1.00  0.00     0.218 C 
HETATM   18  N   UNL     1      43.022 -18.974   1.644  1.00  0.00    -0.359 N 
HETATM   19  H   UNL     1      42.145 -19.304   1.230  1.00  0.00     0.162 HD
HETATM   20  O   UNL     1      44.585 -17.310   1.375  1.00  0.00    -0.274 OA
BRANCH  18  21
HETATM   21  C   UNL     1      43.992 -19.963   2.078  1.00  0.00     0.148 C 
BRANCH  21  22
HETATM   22  C   UNL     1      43.600 -21.407   1.756  1.00  0.00     0.186 C 
BRANCH  22  23
HETATM   23  O   UNL     1      44.604 -22.346   2.151  1.00  0.00    -0.394 OA
HETATM   24  C   UNL     1      44.603 -22.593   3.551  1.00  0.00     0.201 C 
ENDBRANCH  22  23
ENDBRANCH  21  22
ENDBRANCH  18  21
ENDBRANCH  16  17
ENDBRANCH   3  16
BRANCH  11  25
HETATM   25  C   UNL     1      42.153 -13.358   4.944  1.00  0.00     0.176 C 
BRANCH  25  26
HETATM   26  O   UNL     1      42.922 -13.069   6.095  1.00  0.00    -0.400 OA
HETATM   27  H   UNL     1      42.998 -12.089   6.113  1.00  0.00     0.209 HD
ENDBRANCH  25  26
ENDBRANCH  11  25
BRANCH   7  28
HETATM   28  N   UNL     1      42.146 -11.900  -1.159  1.00  0.00    -0.305 N 
HETATM   29  C   UNL     1      41.348 -11.808  -2.276  1.00  0.00     0.231 C 
HETATM   30  O   UNL     1      40.351 -12.494  -2.485  1.00  0.00    -0.272 OA
HETATM   31  H   UNL     1      42.891 -11.243  -0.992  1.00  0.00     0.171 HD
BRANCH  29  32
HETATM   32  C   UNL     1      41.828 -10.743  -3.292  1.00  0.00     0.030 C 
HETATM   33  C   UNL     1      42.888  -9.852  -2.628  1.00  0.00     0.025 C 
HETATM   34  C   UNL     1      42.457 -11.444  -4.511  1.00  0.00     0.025 C 
HETATM   35  C   UNL     1      40.655  -9.880  -3.788  1.00  0.00     0.025 C 
ENDBRANCH  29  32
ENDBRANCH   7  28
BRANCH  13  36
HETATM   36  O   UNL     1      43.339 -15.822   5.176  1.00  0.00    -0.395 OA
HETATM   37  H   UNL     1      43.604 -14.899   5.004  1.00  0.00     0.210 HD
ENDBRANCH  13  36
TORSDOF 10
ENDMDL
MODEL 6
REMARK VINA RESULT:      -6.4      4.458      7.791
REMARK  10 active torsions:
REMARK  status: ('A' for Active; 'I' for Inactive)
REMARK    1  A    between atoms: C_3  and  C_4 
REMARK    2  A    between atoms: C_4  and  C_5 
REMARK       I    between atoms: C_5  and  N_6 
REMARK    3  A    between atoms: N_6  and  C_7 
REMARK    4  A    between atoms: C_7  and  C_8 
REMARK    5  A    between atoms: C_8  and  O_9 
REMARK    6  A    between atoms: C_15  and  N_16 
REMARK       I    between atoms: N_16  and  C_17 
REMARK    7  A    between atoms: C_17  and  C_18 
REMARK    8  A    between atoms: C_26  and  C_27 
REMARK    9  A    between atoms: C_27  and  O_28 
REMARK   10  A    between atoms: C_30  and  O_31 
ROOT
HETATM    1  C   UNL     1      39.638 -14.916   5.490  1.00  0.00     0.016 C 
HETATM    2  C   UNL     1      40.523 -14.104   4.490  1.00  0.00    -0.030 C 
HETATM    3  C   UNL     1      41.949 -14.794   4.378  1.00  0.00     0.056 C 
HETATM    4  C   UNL     1      41.882 -16.029   3.511  1.00  0.00     0.056 A 
HETATM    5  C   UNL     1      40.861 -16.272   2.614  1.00  0.00     0.012 A 
HETATM    6  S   UNL     1      41.194 -17.664   1.697  1.00  0.00    -0.055 SA
HETATM    7  C   UNL     1      42.597 -17.909   2.641  1.00  0.00     0.173 A 
HETATM    8  N   UNL     1      42.864 -17.007   3.552  1.00  0.00    -0.227 NA
HETATM    9  C   UNL     1      39.620 -15.475   2.453  1.00  0.00     0.055 C 
HETATM   10  C   UNL     1      39.757 -14.069   3.094  1.00  0.00     0.012 C 
HETATM   11  C   UNL     1      40.140 -12.924   2.059  1.00  0.00     0.008 C 
HETATM   12  C   UNL     1      38.816 -12.526   1.333  1.00  0.00     0.020 C 
HETATM   13  C   UNL     1      40.659 -11.650   2.791  1.00  0.00     0.128 C 
HETATM   14  C   UNL     1      40.123 -11.550   4.214  1.00  0.00     0.033 C 
HETATM   15  C   UNL     1      40.676 -12.671   5.090  1.00  0.00     0.013 C 
ENDROOT
BRANCH   3  16
HETATM   16  C   UNL     1      42.597 -15.088   5.744  1.00  0.00     0.114 C 
BRANCH  16  17
HETATM   17  C   UNL     1      43.792 -14.191   5.983  1.00  0.00     0.218 C 
HETATM   18  N   UNL     1      44.129 -14.017   7.302  1.00  0.00    -0.359 N 
HETATM   19  H   UNL     1      43.824 -14.745   7.954  1.00  0.00     0.162 HD
HETATM   20  O   UNL     1      44.390 -13.666   5.044  1.00  0.00    -0.274 OA
BRANCH  18  21
HETATM   21  C   UNL     1      45.272 -13.200   7.669  1.00  0.00     0.148 C 
BRANCH  21  22
HETATM   22  C   UNL     1      45.015 -12.260   8.850  1.00  0.00     0.186 C 
BRANCH  22  23
HETATM   23  O   UNL     1      45.026 -12.947  10.105  1.00  0.00    -0.394 OA
HETATM   24  C   UNL     1      44.239 -12.295  11.094  1.00  0.00     0.201 C 
ENDBRANCH  22  23
ENDBRANCH  21  22
ENDBRANCH  18  21
ENDBRANCH  16  17
ENDBRANCH   3  16
BRANCH  11  25
HETATM   25  C   UNL     1      41.112 -13.337   0.920  1.00  0.00     0.176 C 
BRANCH  25  26
HETATM   26  O   UNL     1      41.476 -12.264   0.072  1.00  0.00    -0.400 OA
HETATM   27  H   UNL     1      41.113 -11.460   0.505  1.00  0.00     0.209 HD
ENDBRANCH  25  26
ENDBRANCH  11  25
BRANCH   7  28
HETATM   28  N   UNL     1      43.247 -19.066   2.325  1.00  0.00    -0.305 N 
HETATM   29  C   UNL     1      43.797 -19.892   3.278  1.00  0.00     0.231 C 
HETATM   30  O   UNL     1      43.824 -19.653   4.483  1.00  0.00    -0.272 OA
HETATM   31  H   UNL     1      43.162 -19.360   1.365  1.00  0.00     0.171 HD
BRANCH  29  32
HETATM   32  C   UNL     1      44.413 -21.187   2.694  1.00  0.00     0.030 C 
HETATM   33  C   UNL     1      45.785 -20.864   2.085  1.00  0.00     0.025 C 
HETATM   34  C   UNL     1      44.595 -22.221   3.820  1.00  0.00     0.025 C 
HETATM   35  C   UNL     1      43.497 -21.803   1.622  1.00  0.00     0.025 C 
ENDBRANCH  29  32
ENDBRANCH   7  28
BRANCH  13  36
HETATM   36  O   UNL     1      42.089 -11.628   2.832  1.00  0.00    -0.395 OA
HETATM   37  H   UNL     1      42.393 -10.899   2.260  1.00  0.00     0.210 HD
ENDBRANCH  13  36
TORSDOF 10
ENDMDL
MODEL 7
REMARK VINA RESULT:      -6.3      3.091      8.187
REMARK  10 active torsions:
REMARK  status: ('A' for Active; 'I' for Inactive)
REMARK    1  A    between atoms: C_3  and  C_4 
REMARK    2  A    between atoms: C_4  and  C_5 
REMARK       I    between atoms: C_5  and  N_6 
REMARK    3  A    between atoms: N_6  and  C_7 
REMARK    4  A    between atoms: C_7  and  C_8 
REMARK    5  A    between atoms: C_8  and  O_9 
REMARK    6  A    between atoms: C_15  and  N_16 
REMARK       I    between atoms: N_16  and  C_17 
REMARK    7  A    between atoms: C_17  and  C_18 
REMARK    8  A    between atoms: C_26  and  C_27 
REMARK    9  A    between atoms: C_27  and  O_28 
REMARK   10  A    between atoms: C_30  and  O_31 
ROOT
HETATM    1  C   UNL     1      39.556 -16.587   2.115  1.00  0.00     0.016 C 
HETATM    2  C   UNL     1      40.749 -16.061   2.976  1.00  0.00    -0.030 C 
HETATM    3  C   UNL     1      41.924 -15.600   2.012  1.00  0.00     0.056 C 
HETATM    4  C   UNL     1      41.617 -14.257   1.394  1.00  0.00     0.056 A 
HETATM    5  C   UNL     1      40.685 -13.379   1.910  1.00  0.00     0.012 A 
HETATM    6  S   UNL     1      40.719 -11.908   1.060  1.00  0.00    -0.055 SA
HETATM    7  C   UNL     1      41.870 -12.588  -0.003  1.00  0.00     0.173 A 
HETATM    8  N   UNL     1      42.269 -13.808   0.255  1.00  0.00    -0.227 NA
HETATM    9  C   UNL     1      39.749 -13.644   3.031  1.00  0.00     0.055 C 
HETATM   10  C   UNL     1      40.199 -14.866   3.874  1.00  0.00     0.012 C 
HETATM   11  C   UNL     1      41.013 -14.479   5.185  1.00  0.00     0.008 C 
HETATM   12  C   UNL     1      39.953 -14.061   6.253  1.00  0.00     0.020 C 
HETATM   13  C   UNL     1      41.779 -15.709   5.759  1.00  0.00     0.128 C 
HETATM   14  C   UNL     1      41.124 -17.026   5.361  1.00  0.00     0.033 C 
HETATM   15  C   UNL     1      41.227 -17.259   3.857  1.00  0.00     0.013 C 
ENDROOT
BRANCH   3  16
HETATM   16  C   UNL     1      42.293 -16.651   0.948  1.00  0.00     0.114 C 
BRANCH  16  17
HETATM   17  C   UNL     1      43.495 -17.462   1.378  1.00  0.00     0.218 C 
HETATM   18  N   UNL     1      43.202 -18.696   1.901  1.00  0.00    -0.359 N 
HETATM   19  H   UNL     1      42.304 -19.108   1.633  1.00  0.00     0.162 HD
HETATM   20  O   UNL     1      44.636 -17.017   1.261  1.00  0.00    -0.274 OA
BRANCH  18  21
HETATM   21  C   UNL     1      44.266 -19.587   2.330  1.00  0.00     0.148 C 
BRANCH  21  22
HETATM   22  C   UNL     1      44.362 -19.761   3.848  1.00  0.00     0.186 C 
BRANCH  22  23
HETATM   23  O   UNL     1      44.391 -18.509   4.540  1.00  0.00    -0.394 OA
HETATM   24  C   UNL     1      45.015 -18.601   5.813  1.00  0.00     0.201 C 
ENDBRANCH  22  23
ENDBRANCH  21  22
ENDBRANCH  18  21
ENDBRANCH  16  17
ENDBRANCH   3  16
BRANCH  11  25
HETATM   25  C   UNL     1      41.959 -13.253   5.059  1.00  0.00     0.176 C 
BRANCH  25  26
HETATM   26  O   UNL     1      42.596 -12.905   6.272  1.00  0.00    -0.400 OA
HETATM   27  H   UNL     1      42.648 -11.923   6.262  1.00  0.00     0.209 HD
ENDBRANCH  25  26
ENDBRANCH  11  25
BRANCH   7  28
HETATM   28  N   UNL     1      42.200 -11.749  -1.028  1.00  0.00    -0.305 N 
HETATM   29  C   UNL     1      41.441 -11.639  -2.170  1.00  0.00     0.231 C 
HETATM   30  O   UNL     1      40.447 -12.315  -2.420  1.00  0.00    -0.272 OA
HETATM   31  H   UNL     1      42.943 -11.099  -0.830  1.00  0.00     0.171 HD
BRANCH  29  32
HETATM   32  C   UNL     1      41.963 -10.567  -3.158  1.00  0.00     0.030 C 
HETATM   33  C   UNL     1      42.430 -11.256  -4.449  1.00  0.00     0.025 C 
HETATM   34  C   UNL     1      40.826  -9.586  -3.498  1.00  0.00     0.025 C 
HETATM   35  C   UNL     1      43.122  -9.763  -2.544  1.00  0.00     0.025 C 
ENDBRANCH  29  32
ENDBRANCH   7  28
BRANCH  13  36
HETATM   36  O   UNL     1      43.140 -15.717   5.320  1.00  0.00    -0.395 OA
HETATM   37  H   UNL     1      43.520 -14.839   5.510  1.00  0.00     0.210 HD
ENDBRANCH  13  36
TORSDOF 10
ENDMDL
MODEL 8
REMARK VINA RESULT:      -6.3      3.550      8.801
REMARK  10 active torsions:
REMARK  status: ('A' for Active; 'I' for Inactive)
REMARK    1  A    between atoms: C_3  and  C_4 
REMARK    2  A    between atoms: C_4  and  C_5 
REMARK       I    between atoms: C_5  and  N_6 
REMARK    3  A    between atoms: N_6  and  C_7 
REMARK    4  A    between atoms: C_7  and  C_8 
REMARK    5  A    between atoms: C_8  and  O_9 
REMARK    6  A    between atoms: C_15  and  N_16 
REMARK       I    between atoms: N_16  and  C_17 
REMARK    7  A    between atoms: C_17  and  C_18 
REMARK    8  A    between atoms: C_26  and  C_27 
REMARK    9  A    between atoms: C_27  and  O_28 
REMARK   10  A    between atoms: C_30  and  O_31 
ROOT
HETATM    1  C   UNL     1      40.420 -16.178   5.769  1.00  0.00     0.016 C 
HETATM    2  C   UNL     1      41.982 -16.155   5.719  1.00  0.00    -0.030 C 
HETATM    3  C   UNL     1      42.464 -16.610   4.276  1.00  0.00     0.056 C 
HETATM    4  C   UNL     1      42.292 -15.493   3.274  1.00  0.00     0.056 A 
HETATM    5  C   UNL     1      42.152 -14.167   3.633  1.00  0.00     0.012 A 
HETATM    6  S   UNL     1      42.146 -13.176   2.252  1.00  0.00    -0.055 SA
HETATM    7  C   UNL     1      42.200 -14.582   1.284  1.00  0.00     0.173 A 
HETATM    8  N   UNL     1      42.273 -15.731   1.908  1.00  0.00    -0.227 NA
HETATM    9  C   UNL     1      42.002 -13.636   5.010  1.00  0.00     0.055 C 
HETATM   10  C   UNL     1      42.449 -14.674   6.074  1.00  0.00     0.012 C 
HETATM   11  C   UNL     1      43.938 -14.463   6.593  1.00  0.00     0.008 C 
HETATM   12  C   UNL     1      43.875 -13.318   7.654  1.00  0.00     0.020 C 
HETATM   13  C   UNL     1      44.467 -15.733   7.324  1.00  0.00     0.128 C 
HETATM   14  C   UNL     1      43.335 -16.575   7.900  1.00  0.00     0.033 C 
HETATM   15  C   UNL     1      42.479 -17.177   6.789  1.00  0.00     0.013 C 
ENDROOT
BRANCH   3  16
HETATM   16  C   UNL     1      41.809 -17.918   3.795  1.00  0.00     0.114 C 
BRANCH  16  17
HETATM   17  C   UNL     1      42.836 -18.852   3.194  1.00  0.00     0.218 C 
HETATM   18  N   UNL     1      43.846 -19.225   4.044  1.00  0.00    -0.359 N 
HETATM   19  H   UNL     1      43.647 -19.167   5.048  1.00  0.00     0.162 HD
HETATM   20  O   UNL     1      42.749 -19.224   2.024  1.00  0.00    -0.274 OA
BRANCH  18  21
HETATM   21  C   UNL     1      44.884 -20.138   3.602  1.00  0.00     0.148 C 
BRANCH  21  22
HETATM   22  C   UNL     1      44.756 -21.554   4.171  1.00  0.00     0.186 C 
BRANCH  22  23
HETATM   23  O   UNL     1      44.236 -22.482   3.213  1.00  0.00    -0.394 OA
HETATM   24  C   UNL     1      44.565 -22.129   1.875  1.00  0.00     0.201 C 
ENDBRANCH  22  23
ENDBRANCH  21  22
ENDBRANCH  18  21
ENDBRANCH  16  17
ENDBRANCH   3  16
BRANCH  11  25
HETATM   25  C   UNL     1      44.962 -13.971   5.534  1.00  0.00     0.176 C 
BRANCH  25  26
HETATM   26  O   UNL     1      46.149 -13.447   6.098  1.00  0.00    -0.400 OA
HETATM   27  H   UNL     1      46.869 -13.736   5.494  1.00  0.00     0.209 HD
ENDBRANCH  25  26
ENDBRANCH  11  25
BRANCH   7  28
HETATM   28  N   UNL     1      42.123 -14.305  -0.050  1.00  0.00    -0.305 N 
HETATM   29  C   UNL     1      40.928 -14.259  -0.730  1.00  0.00     0.231 C 
HETATM   30  O   UNL     1      39.832 -14.523  -0.243  1.00  0.00    -0.272 OA
HETATM   31  H   UNL     1      42.977 -13.980  -0.473  1.00  0.00     0.171 HD
BRANCH  29  32
HETATM   32  C   UNL     1      41.077 -13.846  -2.215  1.00  0.00     0.030 C 
HETATM   33  C   UNL     1      42.367 -13.031  -2.387  1.00  0.00     0.025 C 
HETATM   34  C   UNL     1      41.163 -15.109  -3.092  1.00  0.00     0.025 C 
HETATM   35  C   UNL     1      39.868 -13.018  -2.685  1.00  0.00     0.025 C 
ENDBRANCH  29  32
ENDBRANCH   7  28
BRANCH  13  36
HETATM   36  O   UNL     1      45.247 -16.545   6.442  1.00  0.00    -0.395 OA
HETATM   37  H   UNL     1      44.648 -17.192   6.024  1.00  0.00     0.210 HD
ENDBRANCH  13  36
TORSDOF 10
ENDMDL
MODEL 9
REMARK VINA RESULT:      -6.2      3.566      6.337
REMARK  10 active torsions:
REMARK  status: ('A' for Active; 'I' for Inactive)
REMARK    1  A    between atoms: C_3  and  C_4 
REMARK    2  A    between atoms: C_4  and  C_5 
REMARK       I    between atoms: C_5  and  N_6 
REMARK    3  A    between atoms: N_6  and  C_7 
REMARK    4  A    between atoms: C_7  and  C_8 
REMARK    5  A    between atoms: C_8  and  O_9 
REMARK    6  A    between atoms: C_15  and  N_16 
REMARK       I    between atoms: N_16  and  C_17 
REMARK    7  A    between atoms: C_17  and  C_18 
REMARK    8  A    between atoms: C_26  and  C_27 
REMARK    9  A    between atoms: C_27  and  O_28 
REMARK   10  A    between atoms: C_30  and  O_31 
ROOT
HETATM    1  C   UNL     1      38.224 -14.719   1.565  1.00  0.00     0.016 C 
HETATM    2  C   UNL     1      39.319 -13.605   1.506  1.00  0.00    -0.030 C 
HETATM    3  C   UNL     1      40.243 -13.715   2.792  1.00  0.00     0.056 C 
HETATM    4  C   UNL     1      41.222 -14.857   2.655  1.00  0.00     0.056 A 
HETATM    5  C   UNL     1      41.554 -15.431   1.444  1.00  0.00     0.012 A 
HETATM    6  S   UNL     1      42.799 -16.570   1.648  1.00  0.00    -0.055 SA
HETATM    7  C   UNL     1      42.716 -16.310   3.334  1.00  0.00     0.173 A 
HETATM    8  N   UNL     1      41.868 -15.404   3.754  1.00  0.00    -0.227 NA
HETATM    9  C   UNL     1      40.926 -15.144   0.131  1.00  0.00     0.055 C 
HETATM   10  C   UNL     1      40.136 -13.810   0.154  1.00  0.00     0.012 C 
HETATM   11  C   UNL     1      40.949 -12.570  -0.423  1.00  0.00     0.008 C 
HETATM   12  C   UNL     1      40.850 -12.667  -1.979  1.00  0.00     0.020 C 
HETATM   13  C   UNL     1      40.292 -11.220  -0.008  1.00  0.00     0.128 C 
HETATM   14  C   UNL     1      38.803 -11.372   0.277  1.00  0.00     0.033 C 
HETATM   15  C   UNL     1      38.566 -12.237   1.512  1.00  0.00     0.013 C 
ENDROOT
BRANCH   3  16
HETATM   16  C   UNL     1      39.453 -13.793   4.112  1.00  0.00     0.114 C 
BRANCH  16  17
HETATM   17  C   UNL     1      39.569 -12.502   4.892  1.00  0.00     0.218 C 
HETATM   18  N   UNL     1      40.853 -12.077   5.120  1.00  0.00    -0.359 N 
HETATM   19  H   UNL     1      41.571 -12.419   4.474  1.00  0.00     0.162 HD
HETATM   20  O   UNL     1      38.567 -11.906   5.286  1.00  0.00    -0.274 OA
BRANCH  18  21
HETATM   21  C   UNL     1      41.106 -10.839   5.835  1.00  0.00     0.148 C 
BRANCH  21  22
HETATM   22  C   UNL     1      41.668 -11.036   7.246  1.00  0.00     0.186 C 
BRANCH  22  23
HETATM   23  O   UNL     1      40.874 -10.387   8.244  1.00  0.00    -0.394 OA
HETATM   24  C   UNL     1      39.665 -11.084   8.521  1.00  0.00     0.201 C 
ENDBRANCH  22  23
ENDBRANCH  21  22
ENDBRANCH  18  21
ENDBRANCH  16  17
ENDBRANCH   3  16
BRANCH  11  25
HETATM   25  C   UNL     1      42.472 -12.556  -0.120  1.00  0.00     0.176 C 
BRANCH  25  26
HETATM   26  O   UNL     1      43.132 -11.398  -0.593  1.00  0.00    -0.400 OA
HETATM   27  H   UNL     1      42.883 -10.686   0.038  1.00  0.00     0.209 HD
ENDBRANCH  25  26
ENDBRANCH  11  25
BRANCH   7  28
HETATM   28  N   UNL     1      43.548 -17.133   4.035  1.00  0.00    -0.305 N 
HETATM   29  C   UNL     1      43.084 -18.158   4.826  1.00  0.00     0.231 C 
HETATM   30  O   UNL     1      41.898 -18.397   5.042  1.00  0.00    -0.272 OA
HETATM   31  H   UNL     1      44.527 -17.047   3.812  1.00  0.00     0.171 HD
BRANCH  29  32
HETATM   32  C   UNL     1      44.211 -19.009   5.460  1.00  0.00     0.030 C 
HETATM   33  C   UNL     1      44.872 -19.865   4.369  1.00  0.00     0.025 C 
HETATM   34  C   UNL     1      45.272 -18.079   6.078  1.00  0.00     0.025 C 
HETATM   35  C   UNL     1      43.661 -19.916   6.575  1.00  0.00     0.025 C 
ENDBRANCH  29  32
ENDBRANCH   7  28
BRANCH  13  36
HETATM   36  O   UNL     1      40.932 -10.672   1.149  1.00  0.00    -0.395 OA
HETATM   37  H   UNL     1      40.289 -10.093   1.599  1.00  0.00     0.210 HD
ENDBRANCH  13  36
TORSDOF 10
ENDMDL
MODEL 10
REMARK VINA RESULT:      -6.1      1.631      2.064
REMARK  10 active torsions:
REMARK  status: ('A' for Active; 'I' for Inactive)
REMARK    1  A    between atoms: C_3  and  C_4 
REMARK    2  A    between atoms: C_4  and  C_5 
REMARK       I    between atoms: C_5  and  N_6 
REMARK    3  A    between atoms: N_6  and  C_7 
REMARK    4  A    between atoms: C_7  and  C_8 
REMARK    5  A    between atoms: C_8  and  O_9 
REMARK    6  A    between atoms: C_15  and  N_16 
REMARK       I    between atoms: N_16  and  C_17 
REMARK    7  A    between atoms: C_17  and  C_18 
REMARK    8  A    between atoms: C_26  and  C_27 
REMARK    9  A    between atoms: C_27  and  O_28 
REMARK   10  A    between atoms: C_30  and  O_31 
ROOT
HETATM    1  C   UNL     1      41.944 -11.149  -0.659  1.00  0.00     0.016 C 
HETATM    2  C   UNL     1      40.476 -11.669  -0.788  1.00  0.00    -0.030 C 
HETATM    3  C   UNL     1      40.475 -13.254  -0.698  1.00  0.00     0.056 C 
HETATM    4  C   UNL     1      40.643 -13.712   0.731  1.00  0.00     0.056 A 
HETATM    5  C   UNL     1      40.400 -12.900   1.822  1.00  0.00     0.012 A 
HETATM    6  S   UNL     1      40.532 -13.789   3.265  1.00  0.00    -0.055 SA
HETATM    7  C   UNL     1      41.024 -15.143   2.347  1.00  0.00     0.173 A 
HETATM    8  N   UNL     1      41.049 -15.000   1.045  1.00  0.00    -0.227 NA
HETATM    9  C   UNL     1      40.087 -11.451   1.790  1.00  0.00     0.055 C 
HETATM   10  C   UNL     1      39.627 -10.996   0.380  1.00  0.00     0.012 C 
HETATM   11  C   UNL     1      38.047 -10.924   0.210  1.00  0.00     0.008 C 
HETATM   12  C   UNL     1      37.597  -9.574   0.854  1.00  0.00     0.020 C 
HETATM   13  C   UNL     1      37.642 -10.870  -1.293  1.00  0.00     0.128 C 
HETATM   14  C   UNL     1      38.752 -10.293  -2.164  1.00  0.00     0.033 C 
HETATM   15  C   UNL     1      39.964 -11.219  -2.193  1.00  0.00     0.013 C 
ENDROOT
BRANCH   3  16
HETATM   16  C   UNL     1      41.496 -13.923  -1.638  1.00  0.00     0.114 C 
BRANCH  16  17
HETATM   17  C   UNL     1      40.805 -14.578  -2.813  1.00  0.00     0.218 C 
HETATM   18  N   UNL     1      39.485 -14.890  -2.607  1.00  0.00    -0.359 N 
HETATM   19  H   UNL     1      38.995 -14.358  -1.882  1.00  0.00     0.162 HD
HETATM   20  O   UNL     1      41.411 -14.808  -3.859  1.00  0.00    -0.274 OA
BRANCH  18  21
HETATM   21  C   UNL     1      38.698 -15.500  -3.663  1.00  0.00     0.148 C 
BRANCH  21  22
HETATM   22  C   UNL     1      37.194 -15.229  -3.559  1.00  0.00     0.186 C 
BRANCH  22  23
HETATM   23  O   UNL     1      36.826 -13.972  -4.135  1.00  0.00    -0.394 OA
HETATM   24  C   UNL     1      35.731 -14.082  -5.035  1.00  0.00     0.201 C 
ENDBRANCH  22  23
ENDBRANCH  21  22
ENDBRANCH  18  21
ENDBRANCH  16  17
ENDBRANCH   3  16
BRANCH  11  25
HETATM   25  C   UNL     1      37.234 -12.015   0.959  1.00  0.00     0.176 C 
BRANCH  25  26
HETATM   26  O   UNL     1      35.841 -11.939   0.727  1.00  0.00    -0.400 OA
HETATM   27  H   UNL     1      35.603 -11.001   0.899  1.00  0.00     0.209 HD
ENDBRANCH  25  26
ENDBRANCH  11  25
BRANCH   7  28
HETATM   28  N   UNL     1      41.366 -16.210   3.126  1.00  0.00    -0.305 N 
HETATM   29  C   UNL     1      42.648 -16.418   3.577  1.00  0.00     0.231 C 
HETATM   30  O   UNL     1      43.618 -15.725   3.281  1.00  0.00    -0.272 OA
HETATM   31  H   UNL     1      40.593 -16.748   3.482  1.00  0.00     0.171 HD
BRANCH  29  32
HETATM   32  C   UNL     1      42.784 -17.646   4.510  1.00  0.00     0.030 C 
HETATM   33  C   UNL     1      41.423 -17.943   5.156  1.00  0.00     0.025 C 
HETATM   34  C   UNL     1      43.226 -18.870   3.687  1.00  0.00     0.025 C 
HETATM   35  C   UNL     1      43.839 -17.398   5.603  1.00  0.00     0.025 C 
ENDBRANCH  29  32
ENDBRANCH   7  28
BRANCH  13  36
HETATM   36  O   UNL     1      37.299 -12.170  -1.780  1.00  0.00    -0.395 OA
HETATM   37  H   UNL     1      37.810 -12.825  -1.269  1.00  0.00     0.210 HD
ENDBRANCH  13  36
TORSDOF 10
ENDMDL
