MODEL 1
REMARK VINA RESULT:      -8.9      0.000      0.000
REMARK  6 active torsions:
REMARK  status: ('A' for Active; 'I' for Inactive)
REMARK    1  A    between atoms: C_2  and  N_3 
REMARK    2  A    between atoms: C_2  and  C_25 
REMARK       I    between atoms: N_3  and  C_4 
REMARK    3  A    between atoms: C_4  and  C_5 
REMARK    4  A    between atoms: C_5  and  N_6 
REMARK    5  A    between atoms: C_10  and  N_11 
REMARK       I    between atoms: N_11  and  C_12 
REMARK       I    between atoms: C_12  and  N_13 
REMARK    6  A    between atoms: N_13  and  C_14 
ROOT
HETATM    1  N   UNL     1      42.623 -15.658   5.134  1.00  0.00    -0.063 N 
HETATM    2  H   UNL     1      43.331 -16.294   4.750  1.00  0.00     0.280 HD
HETATM    3  C   UNL     1      43.010 -14.253   4.713  1.00  0.00     0.237 C 
HETATM    4  C   UNL     1      44.419 -13.981   5.214  1.00  0.00     0.053 C 
HETATM    5  C   UNL     1      44.514 -14.097   6.742  1.00  0.00     0.089 C 
HETATM    6  C   UNL     1      44.059 -15.505   7.155  1.00  0.00     0.053 C 
HETATM    7  C   UNL     1      42.655 -15.813   6.638  1.00  0.00     0.237 C 
ENDROOT
BRANCH   1   8
HETATM    8  C   UNL     1      41.299 -16.111   4.506  1.00  0.00     0.337 C 
BRANCH   8   9
HETATM    9  C   UNL     1      41.407 -16.973   3.242  1.00  0.00     0.244 C 
HETATM   10  N   UNL     1      42.582 -17.679   3.133  1.00  0.00    -0.351 N 
HETATM   11  H   UNL     1      43.334 -17.571   3.805  1.00  0.00     0.163 HD
HETATM   12  O   UNL     1      40.508 -17.031   2.409  1.00  0.00    -0.272 OA
BRANCH  10  13
HETATM   13  C   UNL     1      42.885 -18.515   1.978  1.00  0.00     0.120 C 
HETATM   14  C   UNL     1      43.757 -17.775   0.966  1.00  0.00     0.038 C 
BRANCH  13  15
HETATM   15  C   UNL     1      43.547 -19.783   2.461  1.00  0.00     0.005 A 
HETATM   16  S   UNL     1      44.328 -19.868   3.992  1.00  0.00    -0.104 SA
HETATM   17  C   UNL     1      44.769 -21.501   3.754  1.00  0.00     0.050 A 
HETATM   18  C   UNL     1      44.346 -21.978   2.534  1.00  0.00     0.008 A 
HETATM   19  C   UNL     1      43.642 -20.988   1.788  1.00  0.00     0.017 A 
ENDBRANCH  13  15
ENDBRANCH  10  13
ENDBRANCH   8   9
ENDBRANCH   1   8
BRANCH   5  20
HETATM   20  N   UNL     1      43.785 -13.109   7.547  1.00  0.00    -0.338 N 
HETATM   21  C   UNL     1      44.219 -12.580   8.750  1.00  0.00     0.321 C 
HETATM   22  N   UNL     1      43.227 -11.822   9.335  1.00  0.00    -0.309 N 
HETATM   23  O   UNL     1      45.353 -12.745   9.172  1.00  0.00    -0.247 OA
HETATM   24  H   UNL     1      42.449 -11.568   8.745  1.00  0.00     0.170 HD
HETATM   25  H   UNL     1      42.779 -13.236   7.541  1.00  0.00     0.164 HD
BRANCH  22  26
HETATM   26  C   UNL     1      43.257 -11.212  10.606  1.00  0.00     0.036 A 
HETATM   27  C   UNL     1      43.264 -11.922  11.811  1.00  0.00     0.032 A 
HETATM   28  C   UNL     1      43.281 -11.243  13.033  1.00  0.00     0.044 A 
HETATM   29  C   UNL     1      43.286  -9.854  13.049  1.00  0.00     0.116 A 
HETATM   30  F   UNL     1      43.301  -9.205  14.220  1.00  0.00    -0.206 F 
HETATM   31  C   UNL     1      43.270  -9.130  11.865  1.00  0.00     0.044 A 
HETATM   32  C   UNL     1      43.254  -9.809  10.643  1.00  0.00     0.032 A 
ENDBRANCH  22  26
ENDBRANCH   5  20
TORSDOF 6
ENDMDL
MODEL 2
REMARK VINA RESULT:      -8.5      4.291     10.584
REMARK  6 active torsions:
REMARK  status: ('A' for Active; 'I' for Inactive)
REMARK    1  A    between atoms: C_2  and  N_3 
REMARK    2  A    between atoms: C_2  and  C_25 
REMARK       I    between atoms: N_3  and  C_4 
REMARK    3  A    between atoms: C_4  and  C_5 
REMARK    4  A    between atoms: C_5  and  N_6 
REMARK    5  A    between atoms: C_10  and  N_11 
REMARK       I    between atoms: N_11  and  C_12 
REMARK       I    between atoms: C_12  and  N_13 
REMARK    6  A    between atoms: N_13  and  C_14 
ROOT
HETATM    1  N   UNL     1      43.386 -13.969   6.897  1.00  0.00    -0.063 N 
HETATM    2  H   UNL     1      42.596 -13.495   7.350  1.00  0.00     0.280 HD
HETATM    3  C   UNL     1      43.434 -13.484   5.461  1.00  0.00     0.237 C 
HETATM    4  C   UNL     1      42.089 -13.779   4.818  1.00  0.00     0.053 C 
HETATM    5  C   UNL     1      41.763 -15.279   4.837  1.00  0.00     0.089 C 
HETATM    6  C   UNL     1      41.780 -15.765   6.294  1.00  0.00     0.053 C 
HETATM    7  C   UNL     1      43.114 -15.454   6.971  1.00  0.00     0.237 C 
ENDROOT
BRANCH   1   8
HETATM    8  C   UNL     1      44.621 -13.538   7.698  1.00  0.00     0.337 C 
BRANCH   8   9
HETATM    9  C   UNL     1      44.524 -12.188   8.421  1.00  0.00     0.244 C 
HETATM   10  N   UNL     1      43.240 -11.757   8.652  1.00  0.00    -0.351 N 
HETATM   11  H   UNL     1      42.435 -12.265   8.304  1.00  0.00     0.163 HD
HETATM   12  O   UNL     1      45.519 -11.559   8.770  1.00  0.00    -0.272 OA
BRANCH  10  13
HETATM   13  C   UNL     1      42.950 -10.475   9.283  1.00  0.00     0.120 C 
HETATM   14  C   UNL     1      41.811  -9.747   8.572  1.00  0.00     0.038 C 
BRANCH  13  15
HETATM   15  C   UNL     1      42.632 -10.715  10.739  1.00  0.00     0.005 A 
HETATM   16  S   UNL     1      41.024 -11.010  11.276  1.00  0.00    -0.104 SA
HETATM   17  C   UNL     1      41.520 -11.152  12.905  1.00  0.00     0.050 A 
HETATM   18  C   UNL     1      42.877 -10.970  13.049  1.00  0.00     0.008 A 
HETATM   19  C   UNL     1      43.518 -10.718  11.801  1.00  0.00     0.017 A 
ENDBRANCH  13  15
ENDBRANCH  10  13
ENDBRANCH   8   9
ENDBRANCH   1   8
BRANCH   5  20
HETATM   20  N   UNL     1      42.607 -16.171   4.031  1.00  0.00    -0.338 N 
HETATM   21  C   UNL     1      42.541 -17.553   4.032  1.00  0.00     0.321 C 
HETATM   22  N   UNL     1      43.582 -18.091   3.309  1.00  0.00    -0.309 N 
HETATM   23  O   UNL     1      41.634 -18.169   4.571  1.00  0.00    -0.247 OA
HETATM   24  H   UNL     1      44.090 -17.456   2.711  1.00  0.00     0.170 HD
HETATM   25  H   UNL     1      43.561 -15.846   3.924  1.00  0.00     0.164 HD
BRANCH  22  26
HETATM   26  C   UNL     1      43.909 -19.456   3.169  1.00  0.00     0.036 A 
HETATM   27  C   UNL     1      43.629 -20.211   2.025  1.00  0.00     0.032 A 
HETATM   28  C   UNL     1      43.973 -21.565   1.969  1.00  0.00     0.044 A 
HETATM   29  C   UNL     1      44.594 -22.164   3.059  1.00  0.00     0.116 A 
HETATM   30  F   UNL     1      44.923 -23.460   3.003  1.00  0.00    -0.206 F 
HETATM   31  C   UNL     1      44.873 -21.434   4.206  1.00  0.00     0.044 A 
HETATM   32  C   UNL     1      44.529 -20.081   4.262  1.00  0.00     0.032 A 
ENDBRANCH  22  26
ENDBRANCH   5  20
TORSDOF 6
ENDMDL
MODEL 3
REMARK VINA RESULT:      -8.5      1.833      2.307
REMARK  6 active torsions:
REMARK  status: ('A' for Active; 'I' for Inactive)
REMARK    1  A    between atoms: C_2  and  N_3 
REMARK    2  A    between atoms: C_2  and  C_25 
REMARK       I    between atoms: N_3  and  C_4 
REMARK    3  A    between atoms: C_4  and  C_5 
REMARK    4  A    between atoms: C_5  and  N_6 
REMARK    5  A    between atoms: C_10  and  N_11 
REMARK       I    between atoms: N_11  and  C_12 
REMARK       I    between atoms: C_12  and  N_13 
REMARK    6  A    between atoms: N_13  and  C_14 
ROOT
HETATM    1  N   UNL     1      41.183 -14.558   4.817  1.00  0.00    -0.063 N 
HETATM    2  H   UNL     1      41.328 -14.323   3.829  1.00  0.00     0.280 HD
HETATM    3  C   UNL     1      39.836 -13.989   5.219  1.00  0.00     0.237 C 
HETATM    4  C   UNL     1      39.852 -12.496   4.938  1.00  0.00     0.053 C 
HETATM    5  C   UNL     1      40.960 -11.779   5.723  1.00  0.00     0.089 C 
HETATM    6  C   UNL     1      42.310 -12.410   5.351  1.00  0.00     0.053 C 
HETATM    7  C   UNL     1      42.309 -13.918   5.597  1.00  0.00     0.237 C 
ENDROOT
BRANCH   1   8
HETATM    8  C   UNL     1      41.206 -16.091   4.868  1.00  0.00     0.337 C 
BRANCH   8   9
HETATM    9  C   UNL     1      41.383 -16.812   3.526  1.00  0.00     0.244 C 
HETATM   10  N   UNL     1      42.533 -17.557   3.427  1.00  0.00    -0.351 N 
HETATM   11  H   UNL     1      43.231 -17.562   4.162  1.00  0.00     0.163 HD
HETATM   12  O   UNL     1      40.553 -16.733   2.625  1.00  0.00    -0.272 OA
BRANCH  10  13
HETATM   13  C   UNL     1      42.896 -18.274   2.210  1.00  0.00     0.120 C 
HETATM   14  C   UNL     1      43.809 -17.434   1.319  1.00  0.00     0.038 C 
BRANCH  13  15
HETATM   15  C   UNL     1      43.545 -19.581   2.595  1.00  0.00     0.005 A 
HETATM   16  S   UNL     1      44.373 -19.773   4.092  1.00  0.00    -0.104 SA
HETATM   17  C   UNL     1      44.770 -21.397   3.744  1.00  0.00     0.050 A 
HETATM   18  C   UNL     1      44.296 -21.792   2.514  1.00  0.00     0.008 A 
HETATM   19  C   UNL     1      43.591 -20.746   1.851  1.00  0.00     0.017 A 
ENDBRANCH  13  15
ENDBRANCH  10  13
ENDBRANCH   8   9
ENDBRANCH   1   8
BRANCH   5  20
HETATM   20  N   UNL     1      40.843 -11.740   7.186  1.00  0.00    -0.338 N 
HETATM   21  C   UNL     1      41.540 -10.886   8.022  1.00  0.00     0.321 C 
HETATM   22  N   UNL     1      41.340 -11.226   9.342  1.00  0.00    -0.309 N 
HETATM   23  O   UNL     1      42.190  -9.940   7.605  1.00  0.00    -0.247 OA
HETATM   24  H   UNL     1      40.576 -11.857   9.533  1.00  0.00     0.170 HD
HETATM   25  H   UNL     1      40.715 -12.651   7.612  1.00  0.00     0.164 HD
BRANCH  22  26
HETATM   26  C   UNL     1      41.961 -10.657  10.474  1.00  0.00     0.036 A 
HETATM   27  C   UNL     1      41.624  -9.406  11.002  1.00  0.00     0.032 A 
HETATM   28  C   UNL     1      42.297  -8.905  12.120  1.00  0.00     0.044 A 
HETATM   29  C   UNL     1      43.310  -9.653  12.707  1.00  0.00     0.116 A 
HETATM   30  F   UNL     1      43.953  -9.172  13.778  1.00  0.00    -0.206 F 
HETATM   31  C   UNL     1      43.666 -10.892  12.194  1.00  0.00     0.044 A 
HETATM   32  C   UNL     1      42.993 -11.394  11.076  1.00  0.00     0.032 A 
ENDBRANCH  22  26
ENDBRANCH   5  20
TORSDOF 6
ENDMDL
MODEL 4
REMARK VINA RESULT:      -8.2      4.712     10.450
REMARK  6 active torsions:
REMARK  status: ('A' for Active; 'I' for Inactive)
REMARK    1  A    between atoms: C_2  and  N_3 
REMARK    2  A    between atoms: C_2  and  C_25 
REMARK       I    between atoms: N_3  and  C_4 
REMARK    3  A    between atoms: C_4  and  C_5 
REMARK    4  A    between atoms: C_5  and  N_6 
REMARK    5  A    between atoms: C_10  and  N_11 
REMARK       I    between atoms: N_11  and  C_12 
REMARK       I    between atoms: C_12  and  N_13 
REMARK    6  A    between atoms: N_13  and  C_14 
ROOT
HETATM    1  N   UNL     1      40.234 -12.738   5.681  1.00  0.00    -0.063 N 
HETATM    2  H   UNL     1      40.133 -11.863   5.154  1.00  0.00     0.280 HD
HETATM    3  C   UNL     1      41.713 -12.919   5.965  1.00  0.00     0.237 C 
HETATM    4  C   UNL     1      42.453 -12.911   4.638  1.00  0.00     0.053 C 
HETATM    5  C   UNL     1      41.973 -14.035   3.708  1.00  0.00     0.089 C 
HETATM    6  C   UNL     1      40.462 -13.872   3.483  1.00  0.00     0.053 C 
HETATM    7  C   UNL     1      39.698 -13.848   4.806  1.00  0.00     0.237 C 
ENDROOT
BRANCH   1   8
HETATM    8  C   UNL     1      39.417 -12.528   6.962  1.00  0.00     0.337 C 
BRANCH   8   9
HETATM    9  C   UNL     1      39.622 -11.192   7.687  1.00  0.00     0.244 C 
HETATM   10  N   UNL     1      40.349 -11.280   8.849  1.00  0.00    -0.351 N 
HETATM   11  H   UNL     1      40.656 -12.172   9.221  1.00  0.00     0.163 HD
HETATM   12  O   UNL     1      39.179 -10.134   7.249  1.00  0.00    -0.272 OA
BRANCH  10  13
HETATM   13  C   UNL     1      40.606 -10.123   9.699  1.00  0.00     0.120 C 
HETATM   14  C   UNL     1      39.551  -9.991  10.796  1.00  0.00     0.038 C 
BRANCH  13  15
HETATM   15  C   UNL     1      41.995 -10.247  10.276  1.00  0.00     0.005 A 
HETATM   16  S   UNL     1      43.288 -10.942   9.378  1.00  0.00    -0.104 SA
HETATM   17  C   UNL     1      44.393 -10.717  10.661  1.00  0.00     0.050 A 
HETATM   18  C   UNL     1      43.799 -10.135  11.758  1.00  0.00     0.008 A 
HETATM   19  C   UNL     1      42.417  -9.864  11.537  1.00  0.00     0.017 A 
ENDBRANCH  13  15
ENDBRANCH  10  13
ENDBRANCH   8   9
ENDBRANCH   1   8
BRANCH   5  20
HETATM   20  N   UNL     1      42.243 -15.420   4.117  1.00  0.00    -0.338 N 
HETATM   21  C   UNL     1      42.954 -16.348   3.378  1.00  0.00     0.321 C 
HETATM   22  N   UNL     1      42.872 -17.596   3.956  1.00  0.00    -0.309 N 
HETATM   23  O   UNL     1      43.596 -16.047   2.384  1.00  0.00    -0.247 OA
HETATM   24  H   UNL     1      42.530 -17.631   4.904  1.00  0.00     0.170 HD
HETATM   25  H   UNL     1      41.478 -15.855   4.620  1.00  0.00     0.164 HD
BRANCH  22  26
HETATM   26  C   UNL     1      43.377 -18.809   3.442  1.00  0.00     0.036 A 
HETATM   27  C   UNL     1      42.966 -19.372   2.229  1.00  0.00     0.032 A 
HETATM   28  C   UNL     1      43.505 -20.587   1.794  1.00  0.00     0.044 A 
HETATM   29  C   UNL     1      44.451 -21.240   2.574  1.00  0.00     0.116 A 
HETATM   30  F   UNL     1      44.966 -22.403   2.156  1.00  0.00    -0.206 F 
HETATM   31  C   UNL     1      44.865 -20.703   3.785  1.00  0.00     0.044 A 
HETATM   32  C   UNL     1      44.327 -19.488   4.220  1.00  0.00     0.032 A 
ENDBRANCH  22  26
ENDBRANCH   5  20
TORSDOF 6
ENDMDL
MODEL 5
REMARK VINA RESULT:      -7.9      5.598      8.952
REMARK  6 active torsions:
REMARK  status: ('A' for Active; 'I' for Inactive)
REMARK    1  A    between atoms: C_2  and  N_3 
REMARK    2  A    between atoms: C_2  and  C_25 
REMARK       I    between atoms: N_3  and  C_4 
REMARK    3  A    between atoms: C_4  and  C_5 
REMARK    4  A    between atoms: C_5  and  N_6 
REMARK    5  A    between atoms: C_10  and  N_11 
REMARK       I    between atoms: N_11  and  C_12 
REMARK       I    between atoms: C_12  and  N_13 
REMARK    6  A    between atoms: N_13  and  C_14 
ROOT
HETATM    1  N   UNL     1      41.022 -13.158   4.093  1.00  0.00    -0.063 N 
HETATM    2  H   UNL     1      40.519 -12.673   4.845  1.00  0.00     0.280 HD
HETATM    3  C   UNL     1      40.470 -14.568   4.023  1.00  0.00     0.237 C 
HETATM    4  C   UNL     1      40.638 -15.210   5.391  1.00  0.00     0.053 C 
HETATM    5  C   UNL     1      42.112 -15.263   5.819  1.00  0.00     0.089 C 
HETATM    6  C   UNL     1      42.672 -13.832   5.824  1.00  0.00     0.053 C 
HETATM    7  C   UNL     1      42.488 -13.155   4.467  1.00  0.00     0.237 C 
ENDROOT
BRANCH   1   8
HETATM    8  C   UNL     1      40.718 -12.350   2.826  1.00  0.00     0.337 C 
BRANCH   8   9
HETATM    9  C   UNL     1      41.372 -12.847   1.530  1.00  0.00     0.244 C 
HETATM   10  N   UNL     1      40.647 -13.801   0.856  1.00  0.00    -0.351 N 
HETATM   11  H   UNL     1      39.788 -14.184   1.234  1.00  0.00     0.163 HD
HETATM   12  O   UNL     1      42.449 -12.414   1.132  1.00  0.00    -0.272 OA
BRANCH  10  13
HETATM   13  C   UNL     1      41.131 -14.426  -0.369  1.00  0.00     0.120 C 
HETATM   14  C   UNL     1      41.609 -15.854  -0.115  1.00  0.00     0.038 C 
BRANCH  13  15
HETATM   15  C   UNL     1      40.029 -14.384  -1.399  1.00  0.00     0.005 A 
HETATM   16  S   UNL     1      40.247 -15.022  -2.982  1.00  0.00    -0.104 SA
HETATM   17  C   UNL     1      38.661 -14.594  -3.450  1.00  0.00     0.050 A 
HETATM   18  C   UNL     1      37.975 -13.969  -2.433  1.00  0.00     0.008 A 
HETATM   19  C   UNL     1      38.762 -13.847  -1.252  1.00  0.00     0.017 A 
ENDBRANCH  13  15
ENDBRANCH  10  13
ENDBRANCH   8   9
ENDBRANCH   1   8
BRANCH   5  20
HETATM   20  N   UNL     1      43.017 -16.122   5.045  1.00  0.00    -0.338 N 
HETATM   21  C   UNL     1      42.845 -17.478   4.831  1.00  0.00     0.321 C 
HETATM   22  N   UNL     1      43.956 -18.020   4.223  1.00  0.00    -0.309 N 
HETATM   23  O   UNL     1      41.811 -18.064   5.112  1.00  0.00    -0.247 OA
HETATM   24  H   UNL     1      44.612 -17.367   3.819  1.00  0.00     0.170 HD
HETATM   25  H   UNL     1      43.997 -15.886   5.150  1.00  0.00     0.164 HD
BRANCH  22  26
HETATM   26  C   UNL     1      44.197 -19.381   3.941  1.00  0.00     0.036 A 
HETATM   27  C   UNL     1      44.018 -19.958   2.679  1.00  0.00     0.032 A 
HETATM   28  C   UNL     1      44.265 -21.320   2.483  1.00  0.00     0.044 A 
HETATM   29  C   UNL     1      44.687 -22.105   3.549  1.00  0.00     0.116 A 
HETATM   30  F   UNL     1      44.923 -23.409   3.359  1.00  0.00    -0.206 F 
HETATM   31  C   UNL     1      44.862 -21.554   4.811  1.00  0.00     0.044 A 
HETATM   32  C   UNL     1      44.615 -20.192   5.007  1.00  0.00     0.032 A 
ENDBRANCH  22  26
ENDBRANCH   5  20
TORSDOF 6
ENDMDL
MODEL 6
REMARK VINA RESULT:      -7.8      2.718      3.544
REMARK  6 active torsions:
REMARK  status: ('A' for Active; 'I' for Inactive)
REMARK    1  A    between atoms: C_2  and  N_3 
REMARK    2  A    between atoms: C_2  and  C_25 
REMARK       I    between atoms: N_3  and  C_4 
REMARK    3  A    between atoms: C_4  and  C_5 
REMARK    4  A    between atoms: C_5  and  N_6 
REMARK    5  A    between atoms: C_10  and  N_11 
REMARK       I    between atoms: N_11  and  C_12 
REMARK       I    between atoms: C_12  and  N_13 
REMARK    6  A    between atoms: N_13  and  C_14 
ROOT
HETATM    1  N   UNL     1      40.922 -12.760   4.740  1.00  0.00    -0.063 N 
HETATM    2  H   UNL     1      40.186 -12.420   4.111  1.00  0.00     0.280 HD
HETATM    3  C   UNL     1      40.235 -13.493   5.876  1.00  0.00     0.237 C 
HETATM    4  C   UNL     1      39.257 -12.534   6.534  1.00  0.00     0.053 C 
HETATM    5  C   UNL     1      39.964 -11.288   7.088  1.00  0.00     0.089 C 
HETATM    6  C   UNL     1      40.706 -10.594   5.936  1.00  0.00     0.053 C 
HETATM    7  C   UNL     1      41.675 -11.547   5.239  1.00  0.00     0.237 C 
ENDROOT
BRANCH   1   8
HETATM    8  C   UNL     1      41.781 -13.694   3.879  1.00  0.00     0.337 C 
BRANCH   8   9
HETATM    9  C   UNL     1      42.801 -14.562   4.628  1.00  0.00     0.244 C 
HETATM   10  N   UNL     1      42.484 -15.898   4.678  1.00  0.00    -0.351 N 
HETATM   11  H   UNL     1      41.610 -16.254   4.308  1.00  0.00     0.163 HD
HETATM   12  O   UNL     1      43.819 -14.092   5.128  1.00  0.00    -0.272 OA
BRANCH  10  13
HETATM   13  C   UNL     1      43.308 -16.869   5.388  1.00  0.00     0.120 C 
HETATM   14  C   UNL     1      42.585 -17.427   6.612  1.00  0.00     0.038 C 
BRANCH  13  15
HETATM   15  C   UNL     1      43.699 -17.965   4.426  1.00  0.00     0.005 A 
HETATM   16  S   UNL     1      44.459 -19.411   4.964  1.00  0.00    -0.104 SA
HETATM   17  C   UNL     1      44.552 -20.036   3.378  1.00  0.00     0.050 A 
HETATM   18  C   UNL     1      44.027 -19.167   2.449  1.00  0.00     0.008 A 
HETATM   19  C   UNL     1      43.535 -17.973   3.052  1.00  0.00     0.017 A 
ENDBRANCH  13  15
ENDBRANCH  10  13
ENDBRANCH   8   9
ENDBRANCH   1   8
BRANCH   5  20
HETATM   20  N   UNL     1      40.897 -11.474   8.207  1.00  0.00    -0.338 N 
HETATM   21  C   UNL     1      40.703 -11.010   9.496  1.00  0.00     0.321 C 
HETATM   22  N   UNL     1      41.839 -11.192  10.254  1.00  0.00    -0.309 N 
HETATM   23  O   UNL     1      39.636 -10.557   9.880  1.00  0.00    -0.247 OA
HETATM   24  H   UNL     1      42.538 -11.813   9.875  1.00  0.00     0.170 HD
HETATM   25  H   UNL     1      41.873 -11.425   7.939  1.00  0.00     0.164 HD
BRANCH  22  26
HETATM   26  C   UNL     1      42.061 -10.754  11.577  1.00  0.00     0.036 A 
HETATM   27  C   UNL     1      41.176 -10.991  12.634  1.00  0.00     0.032 A 
HETATM   28  C   UNL     1      41.462 -10.512  13.916  1.00  0.00     0.044 A 
HETATM   29  C   UNL     1      42.630  -9.793  14.139  1.00  0.00     0.116 A 
HETATM   30  F   UNL     1      42.902  -9.335  15.368  1.00  0.00    -0.206 F 
HETATM   31  C   UNL     1      43.517  -9.541  13.102  1.00  0.00     0.044 A 
HETATM   32  C   UNL     1      43.232 -10.020  11.820  1.00  0.00     0.032 A 
ENDBRANCH  22  26
ENDBRANCH   5  20
TORSDOF 6
ENDMDL
MODEL 7
REMARK VINA RESULT:      -7.8      5.518      8.516
REMARK  6 active torsions:
REMARK  status: ('A' for Active; 'I' for Inactive)
REMARK    1  A    between atoms: C_2  and  N_3 
REMARK    2  A    between atoms: C_2  and  C_25 
REMARK       I    between atoms: N_3  and  C_4 
REMARK    3  A    between atoms: C_4  and  C_5 
REMARK    4  A    between atoms: C_5  and  N_6 
REMARK    5  A    between atoms: C_10  and  N_11 
REMARK       I    between atoms: N_11  and  C_12 
REMARK       I    between atoms: C_12  and  N_13 
REMARK    6  A    between atoms: N_13  and  C_14 
ROOT
HETATM    1  N   UNL     1      42.492 -16.067   6.914  1.00  0.00    -0.063 N 
HETATM    2  H   UNL     1      42.498 -15.358   7.656  1.00  0.00     0.280 HD
HETATM    3  C   UNL     1      43.490 -15.623   5.863  1.00  0.00     0.237 C 
HETATM    4  C   UNL     1      43.091 -14.234   5.390  1.00  0.00     0.053 C 
HETATM    5  C   UNL     1      41.679 -14.219   4.787  1.00  0.00     0.089 C 
HETATM    6  C   UNL     1      40.690 -14.732   5.845  1.00  0.00     0.053 C 
HETATM    7  C   UNL     1      41.086 -16.116   6.358  1.00  0.00     0.237 C 
ENDROOT
BRANCH   1   8
HETATM    8  C   UNL     1      42.915 -17.369   7.605  1.00  0.00     0.337 C 
BRANCH   8   9
HETATM    9  C   UNL     1      44.027 -18.172   6.919  1.00  0.00     0.244 C 
HETATM   10  N   UNL     1      43.579 -19.167   6.084  1.00  0.00    -0.351 N 
HETATM   11  H   UNL     1      42.594 -19.386   5.996  1.00  0.00     0.163 HD
HETATM   12  O   UNL     1      45.217 -17.929   7.099  1.00  0.00    -0.272 OA
BRANCH  10  13
HETATM   13  C   UNL     1      44.489 -20.065   5.382  1.00  0.00     0.120 C 
HETATM   14  C   UNL     1      44.444 -21.475   5.968  1.00  0.00     0.038 C 
BRANCH  13  15
HETATM   15  C   UNL     1      44.135 -20.061   3.915  1.00  0.00     0.005 A 
HETATM   16  S   UNL     1      43.363 -18.712   3.175  1.00  0.00    -0.104 SA
HETATM   17  C   UNL     1      43.325 -19.481   1.651  1.00  0.00     0.050 A 
HETATM   18  C   UNL     1      43.876 -20.741   1.695  1.00  0.00     0.008 A 
HETATM   19  C   UNL     1      44.343 -21.076   2.999  1.00  0.00     0.017 A 
ENDBRANCH  13  15
ENDBRANCH  10  13
ENDBRANCH   8   9
ENDBRANCH   1   8
BRANCH   5  20
HETATM   20  N   UNL     1      41.463 -14.962   3.539  1.00  0.00    -0.338 N 
HETATM   21  C   UNL     1      41.353 -14.397   2.281  1.00  0.00     0.321 C 
HETATM   22  N   UNL     1      40.975 -15.343   1.353  1.00  0.00    -0.309 N 
HETATM   23  O   UNL     1      41.615 -13.225   2.059  1.00  0.00    -0.247 OA
HETATM   24  H   UNL     1      41.053 -16.308   1.638  1.00  0.00     0.170 HD
HETATM   25  H   UNL     1      40.851 -15.763   3.639  1.00  0.00     0.164 HD
BRANCH  22  26
HETATM   26  C   UNL     1      40.662 -15.130  -0.006  1.00  0.00     0.036 A 
HETATM   27  C   UNL     1      41.305 -15.779  -1.064  1.00  0.00     0.032 A 
HETATM   28  C   UNL     1      40.946 -15.502  -2.387  1.00  0.00     0.044 A 
HETATM   29  C   UNL     1      39.947 -14.573  -2.650  1.00  0.00     0.116 A 
HETATM   30  F   UNL     1      39.605 -14.309  -3.917  1.00  0.00    -0.206 F 
HETATM   31  C   UNL     1      39.303 -13.912  -1.614  1.00  0.00     0.044 A 
HETATM   32  C   UNL     1      39.661 -14.188  -0.292  1.00  0.00     0.032 A 
ENDBRANCH  22  26
ENDBRANCH   5  20
TORSDOF 6
ENDMDL
MODEL 8
REMARK VINA RESULT:      -7.8      5.368      8.601
REMARK  6 active torsions:
REMARK  status: ('A' for Active; 'I' for Inactive)
REMARK    1  A    between atoms: C_2  and  N_3 
REMARK    2  A    between atoms: C_2  and  C_25 
REMARK       I    between atoms: N_3  and  C_4 
REMARK    3  A    between atoms: C_4  and  C_5 
REMARK    4  A    between atoms: C_5  and  N_6 
REMARK    5  A    between atoms: C_10  and  N_11 
REMARK       I    between atoms: N_11  and  C_12 
REMARK       I    between atoms: C_12  and  N_13 
REMARK    6  A    between atoms: N_13  and  C_14 
ROOT
HETATM    1  N   UNL     1      40.679 -12.397   4.573  1.00  0.00    -0.063 N 
HETATM    2  H   UNL     1      40.356 -12.012   5.468  1.00  0.00     0.280 HD
HETATM    3  C   UNL     1      39.920 -13.690   4.343  1.00  0.00     0.237 C 
HETATM    4  C   UNL     1      40.172 -14.603   5.532  1.00  0.00     0.053 C 
HETATM    5  C   UNL     1      41.665 -14.914   5.707  1.00  0.00     0.089 C 
HETATM    6  C   UNL     1      42.425 -13.590   5.876  1.00  0.00     0.053 C 
HETATM    7  C   UNL     1      42.165 -12.643   4.706  1.00  0.00     0.237 C 
ENDROOT
BRANCH   1   8
HETATM    8  C   UNL     1      40.332 -11.326   3.531  1.00  0.00     0.337 C 
BRANCH   8   9
HETATM    9  C   UNL     1      40.153 -11.814   2.089  1.00  0.00     0.244 C 
HETATM   10  N   UNL     1      41.327 -11.973   1.391  1.00  0.00    -0.351 N 
HETATM   11  H   UNL     1      42.223 -11.716   1.789  1.00  0.00     0.163 HD
HETATM   12  O   UNL     1      39.049 -12.052   1.610  1.00  0.00    -0.272 OA
BRANCH  10  13
HETATM   13  C   UNL     1      41.353 -12.384  -0.008  1.00  0.00     0.120 C 
HETATM   14  C   UNL     1      42.529 -11.753  -0.752  1.00  0.00     0.038 C 
BRANCH  13  15
HETATM   15  C   UNL     1      41.402 -13.891  -0.067  1.00  0.00     0.005 A 
HETATM   16  S   UNL     1      41.992 -14.829   1.250  1.00  0.00    -0.104 SA
HETATM   17  C   UNL     1      41.728 -16.295   0.415  1.00  0.00     0.050 A 
HETATM   18  C   UNL     1      41.212 -16.086  -0.844  1.00  0.00     0.008 A 
HETATM   19  C   UNL     1      41.024 -14.701  -1.123  1.00  0.00     0.017 A 
ENDBRANCH  13  15
ENDBRANCH  10  13
ENDBRANCH   8   9
ENDBRANCH   1   8
BRANCH   5  20
HETATM   20  N   UNL     1      42.324 -15.707   4.661  1.00  0.00    -0.338 N 
HETATM   21  C   UNL     1      42.416 -17.088   4.642  1.00  0.00     0.321 C 
HETATM   22  N   UNL     1      43.246 -17.507   3.625  1.00  0.00    -0.309 N 
HETATM   23  O   UNL     1      41.786 -17.801   5.408  1.00  0.00    -0.247 OA
HETATM   24  H   UNL     1      43.478 -16.821   2.922  1.00  0.00     0.170 HD
HETATM   25  H   UNL     1      43.160 -15.276   4.285  1.00  0.00     0.164 HD
BRANCH  22  26
HETATM   26  C   UNL     1      43.666 -18.826   3.355  1.00  0.00     0.036 A 
HETATM   27  C   UNL     1      44.529 -19.553   4.182  1.00  0.00     0.032 A 
HETATM   28  C   UNL     1      44.909 -20.854   3.837  1.00  0.00     0.044 A 
HETATM   29  C   UNL     1      44.431 -21.424   2.664  1.00  0.00     0.116 A 
HETATM   30  F   UNL     1      44.797 -22.669   2.335  1.00  0.00    -0.206 F 
HETATM   31  C   UNL     1      43.582 -20.716   1.826  1.00  0.00     0.044 A 
HETATM   32  C   UNL     1      43.200 -19.416   2.170  1.00  0.00     0.032 A 
ENDBRANCH  22  26
ENDBRANCH   5  20
TORSDOF 6
ENDMDL
MODEL 9
REMARK VINA RESULT:      -7.7      6.024      9.353
REMARK  6 active torsions:
REMARK  status: ('A' for Active; 'I' for Inactive)
REMARK    1  A    between atoms: C_2  and  N_3 
REMARK    2  A    between atoms: C_2  and  C_25 
REMARK       I    between atoms: N_3  and  C_4 
REMARK    3  A    between atoms: C_4  and  C_5 
REMARK    4  A    between atoms: C_5  and  N_6 
REMARK    5  A    between atoms: C_10  and  N_11 
REMARK       I    between atoms: N_11  and  C_12 
REMARK       I    between atoms: C_12  and  N_13 
REMARK    6  A    between atoms: N_13  and  C_14 
ROOT
HETATM    1  N   UNL     1      40.738 -12.788   3.156  1.00  0.00    -0.063 N 
HETATM    2  H   UNL     1      40.319 -12.278   3.943  1.00  0.00     0.280 HD
HETATM    3  C   UNL     1      40.062 -14.144   3.093  1.00  0.00     0.237 C 
HETATM    4  C   UNL     1      40.248 -14.827   4.439  1.00  0.00     0.053 C 
HETATM    5  C   UNL     1      41.733 -15.014   4.784  1.00  0.00     0.089 C 
HETATM    6  C   UNL     1      42.414 -13.637   4.781  1.00  0.00     0.053 C 
HETATM    7  C   UNL     1      42.216 -12.918   3.448  1.00  0.00     0.237 C 
ENDROOT
BRANCH   1   8
HETATM    8  C   UNL     1      40.437 -11.930   1.921  1.00  0.00     0.337 C 
BRANCH   8   9
HETATM    9  C   UNL     1      39.195 -12.320   1.109  1.00  0.00     0.244 C 
HETATM   10  N   UNL     1      39.464 -12.765  -0.163  1.00  0.00    -0.351 N 
HETATM   11  H   UNL     1      40.403 -12.762  -0.543  1.00  0.00     0.163 HD
HETATM   12  O   UNL     1      38.061 -12.248   1.572  1.00  0.00    -0.272 OA
BRANCH  10  13
HETATM   13  C   UNL     1      38.408 -13.136  -1.099  1.00  0.00     0.120 C 
HETATM   14  C   UNL     1      37.857 -11.914  -1.831  1.00  0.00     0.038 C 
BRANCH  13  15
HETATM   15  C   UNL     1      38.955 -14.161  -2.062  1.00  0.00     0.005 A 
HETATM   16  S   UNL     1      37.988 -14.825  -3.321  1.00  0.00    -0.104 SA
HETATM   17  C   UNL     1      39.265 -15.814  -3.876  1.00  0.00     0.050 A 
HETATM   18  C   UNL     1      40.405 -15.657  -3.120  1.00  0.00     0.008 A 
HETATM   19  C   UNL     1      40.227 -14.705  -2.075  1.00  0.00     0.017 A 
ENDBRANCH  13  15
ENDBRANCH  10  13
ENDBRANCH   8   9
ENDBRANCH   1   8
BRANCH   5  20
HETATM   20  N   UNL     1      42.517 -15.931   3.946  1.00  0.00    -0.338 N 
HETATM   21  C   UNL     1      42.489 -17.312   4.028  1.00  0.00     0.321 C 
HETATM   22  N   UNL     1      43.469 -17.867   3.234  1.00  0.00    -0.309 N 
HETATM   23  O   UNL     1      41.657 -17.916   4.687  1.00  0.00    -0.247 OA
HETATM   24  H   UNL     1      43.897 -17.255   2.555  1.00  0.00     0.170 HD
HETATM   25  H   UNL     1      43.447 -15.592   3.728  1.00  0.00     0.164 HD
BRANCH  22  26
HETATM   26  C   UNL     1      43.817 -19.230   3.135  1.00  0.00     0.036 A 
HETATM   27  C   UNL     1      43.526 -20.030   2.026  1.00  0.00     0.032 A 
HETATM   28  C   UNL     1      43.893 -21.379   2.010  1.00  0.00     0.044 A 
HETATM   29  C   UNL     1      44.547 -21.928   3.106  1.00  0.00     0.116 A 
HETATM   30  F   UNL     1      44.898 -23.220   3.089  1.00  0.00    -0.206 F 
HETATM   31  C   UNL     1      44.838 -21.154   4.220  1.00  0.00     0.044 A 
HETATM   32  C   UNL     1      44.471 -19.805   4.236  1.00  0.00     0.032 A 
ENDBRANCH  22  26
ENDBRANCH   5  20
TORSDOF 6
ENDMDL
MODEL 10
REMARK VINA RESULT:      -7.6      6.246      9.195
REMARK  6 active torsions:
REMARK  status: ('A' for Active; 'I' for Inactive)
REMARK    1  A    between atoms: C_2  and  N_3 
REMARK    2  A    between atoms: C_2  and  C_25 
REMARK       I    between atoms: N_3  and  C_4 
REMARK    3  A    between atoms: C_4  and  C_5 
REMARK    4  A    between atoms: C_5  and  N_6 
REMARK    5  A    between atoms: C_10  and  N_11 
REMARK       I    between atoms: N_11  and  C_12 
REMARK       I    between atoms: C_12  and  N_13 
REMARK    6  A    between atoms: N_13  and  C_14 
ROOT
HETATM    1  N   UNL     1      40.986 -16.393   3.746  1.00  0.00    -0.063 N 
HETATM    2  H   UNL     1      40.339 -17.187   3.806  1.00  0.00     0.280 HD
HETATM    3  C   UNL     1      40.173 -15.188   3.313  1.00  0.00     0.237 C 
HETATM    4  C   UNL     1      39.490 -15.527   1.999  1.00  0.00     0.053 C 
HETATM    5  C   UNL     1      40.505 -15.875   0.900  1.00  0.00     0.089 C 
HETATM    6  C   UNL     1      41.360 -17.057   1.382  1.00  0.00     0.053 C 
HETATM    7  C   UNL     1      42.036 -16.751   2.717  1.00  0.00     0.237 C 
ENDROOT
BRANCH   1   8
HETATM    8  C   UNL     1      41.554 -16.234   5.162  1.00  0.00     0.337 C 
BRANCH   8   9
HETATM    9  C   UNL     1      42.895 -16.926   5.436  1.00  0.00     0.244 C 
HETATM   10  N   UNL     1      42.842 -18.299   5.413  1.00  0.00    -0.351 N 
HETATM   11  H   UNL     1      41.968 -18.798   5.294  1.00  0.00     0.163 HD
HETATM   12  O   UNL     1      43.927 -16.296   5.647  1.00  0.00    -0.272 OA
BRANCH  10  13
HETATM   13  C   UNL     1      44.006 -19.130   5.699  1.00  0.00     0.120 C 
HETATM   14  C   UNL     1      43.860 -19.856   7.035  1.00  0.00     0.038 C 
BRANCH  13  15
HETATM   15  C   UNL     1      44.200 -20.099   4.558  1.00  0.00     0.005 A 
HETATM   16  S   UNL     1      44.703 -21.722   4.827  1.00  0.00    -0.104 SA
HETATM   17  C   UNL     1      44.681 -22.079   3.157  1.00  0.00     0.050 A 
HETATM   18  C   UNL     1      44.309 -20.990   2.401  1.00  0.00     0.008 A 
HETATM   19  C   UNL     1      44.032 -19.849   3.208  1.00  0.00     0.017 A 
ENDBRANCH  13  15
ENDBRANCH  10  13
ENDBRANCH   8   9
ENDBRANCH   1   8
BRANCH   5  20
HETATM   20  N   UNL     1      41.396 -14.806   0.431  1.00  0.00    -0.338 N 
HETATM   21  C   UNL     1      41.099 -13.898  -0.570  1.00  0.00     0.321 C 
HETATM   22  N   UNL     1      42.209 -13.148  -0.891  1.00  0.00    -0.309 N 
HETATM   23  O   UNL     1      39.978 -13.777  -1.038  1.00  0.00    -0.247 OA
HETATM   24  H   UNL     1      42.980 -13.184  -0.241  1.00  0.00     0.170 HD
HETATM   25  H   UNL     1      42.376 -15.067   0.415  1.00  0.00     0.164 HD
BRANCH  22  26
HETATM   26  C   UNL     1      42.326 -12.198  -1.928  1.00  0.00     0.036 A 
HETATM   27  C   UNL     1      42.134 -12.495  -3.281  1.00  0.00     0.032 A 
HETATM   28  C   UNL     1      42.281 -11.499  -4.252  1.00  0.00     0.044 A 
HETATM   29  C   UNL     1      42.625 -10.209  -3.869  1.00  0.00     0.116 A 
HETATM   30  F   UNL     1      42.766  -9.257  -4.799  1.00  0.00    -0.206 F 
HETATM   31  C   UNL     1      42.829  -9.896  -2.532  1.00  0.00     0.044 A 
HETATM   32  C   UNL     1      42.681 -10.891  -1.562  1.00  0.00     0.032 A 
ENDBRANCH  22  26
ENDBRANCH   5  20
TORSDOF 6
ENDMDL
