MODEL 1
REMARK VINA RESULT:      -7.7      0.000      0.000
REMARK  4 active torsions:
REMARK  status: ('A' for Active; 'I' for Inactive)
REMARK    1  A    between atoms: S_2  and  N_3 
REMARK    2  A    between atoms: N_3  and  N_4 
REMARK    3  A    between atoms: C_10  and  C_11 
REMARK    4  A    between atoms: C_13  and  O_14 
ROOT
HETATM    1  N   UNL     1      42.662 -16.764   6.112  1.00  0.00    -0.224 N 
HETATM    2  C   UNL     1      42.954 -15.416   6.256  1.00  0.00     0.276 C 
HETATM    3  O   UNL     1      43.840 -15.015   7.010  1.00  0.00    -0.266 OA
HETATM    4  C   UNL     1      42.081 -14.480   5.521  1.00  0.00     0.055 A 
HETATM    5  C   UNL     1      40.849 -14.975   5.067  1.00  0.00     0.026 A 
HETATM    6  N   UNL     1      40.508 -16.325   5.262  1.00  0.00    -0.265 NA
HETATM    7  C   UNL     1      41.650 -17.246   5.162  1.00  0.00     0.222 C 
HETATM    8  C   UNL     1      42.416 -13.130   5.396  1.00  0.00     0.019 A 
HETATM    9  C   UNL     1      41.503 -12.253   4.815  1.00  0.00     0.001 A 
HETATM   10  C   UNL     1      40.258 -12.721   4.394  1.00  0.00     0.002 A 
HETATM   11  C   UNL     1      39.925 -14.072   4.536  1.00  0.00     0.024 A 
HETATM   12  H   UNL     1      39.705 -16.630   4.726  1.00  0.00     0.130 HD
ENDROOT
BRANCH   7  13
HETATM   13  C   UNL     1      42.165 -17.364   3.715  1.00  0.00    -0.017 A 
HETATM   14  C   UNL     1      41.301 -17.191   2.617  1.00  0.00     0.047 A 
HETATM   15  C   UNL     1      41.781 -17.274   1.310  1.00  0.00     0.066 A 
HETATM   16  C   UNL     1      43.119 -17.532   1.055  1.00  0.00     0.036 A 
HETATM   17  C   UNL     1      43.999 -17.682   2.120  1.00  0.00     0.003 A 
HETATM   18  C   UNL     1      43.530 -17.584   3.433  1.00  0.00     0.011 A 
BRANCH  15  19
HETATM   19  O   UNL     1      40.956 -17.099   0.237  1.00  0.00    -0.361 OA
HETATM   20  H   UNL     1      40.125 -17.571   0.403  1.00  0.00     0.217 HD
ENDBRANCH  15  19
ENDBRANCH   7  13
BRANCH   1  21
HETATM   21  N   UNL     1      42.909 -17.581   7.328  1.00  0.00    -0.220 N 
HETATM   22  H   UNL     1      42.719 -17.064   8.198  1.00  0.00     0.200 HD
BRANCH  21  23
HETATM   23  S   UNL     1      44.286 -18.552   7.446  1.00  0.00     0.240 S 
HETATM   24  C   UNL     1      43.734 -20.013   6.591  1.00  0.00     0.187 C 
HETATM   25  O   UNL     1      44.509 -18.892   8.833  1.00  0.00    -0.205 OA
HETATM   26  O   UNL     1      45.317 -17.931   6.644  1.00  0.00    -0.205 OA
ENDBRANCH  21  23
ENDBRANCH   1  21
TORSDOF 4
ENDMDL
MODEL 2
REMARK VINA RESULT:      -7.7      2.751      6.320
REMARK  4 active torsions:
REMARK  status: ('A' for Active; 'I' for Inactive)
REMARK    1  A    between atoms: S_2  and  N_3 
REMARK    2  A    between atoms: N_3  and  N_4 
REMARK    3  A    between atoms: C_10  and  C_11 
REMARK    4  A    between atoms: C_13  and  O_14 
ROOT
HETATM    1  N   UNL     1      41.131 -16.594   2.887  1.00  0.00    -0.224 N 
HETATM    2  C   UNL     1      41.990 -17.339   2.093  1.00  0.00     0.276 C 
HETATM    3  O   UNL     1      41.934 -17.313   0.864  1.00  0.00    -0.266 OA
HETATM    4  C   UNL     1      42.918 -18.238   2.806  1.00  0.00     0.055 A 
HETATM    5  C   UNL     1      42.615 -18.544   4.141  1.00  0.00     0.026 A 
HETATM    6  N   UNL     1      41.502 -17.960   4.771  1.00  0.00    -0.265 NA
HETATM    7  C   UNL     1      41.242 -16.575   4.352  1.00  0.00     0.222 C 
HETATM    8  C   UNL     1      43.979 -18.853   2.139  1.00  0.00     0.019 A 
HETATM    9  C   UNL     1      44.751 -19.798   2.812  1.00  0.00     0.001 A 
HETATM   10  C   UNL     1      44.438 -20.143   4.127  1.00  0.00     0.002 A 
HETATM   11  C   UNL     1      43.364 -19.533   4.783  1.00  0.00     0.024 A 
HETATM   12  H   UNL     1      41.486 -18.079   5.776  1.00  0.00     0.130 HD
ENDROOT
BRANCH   7  13
HETATM   13  C   UNL     1      42.317 -15.605   4.879  1.00  0.00    -0.017 A 
HETATM   14  C   UNL     1      42.743 -15.648   6.221  1.00  0.00     0.047 A 
HETATM   15  C   UNL     1      43.736 -14.784   6.683  1.00  0.00     0.066 A 
HETATM   16  C   UNL     1      44.328 -13.859   5.838  1.00  0.00     0.036 A 
HETATM   17  C   UNL     1      43.944 -13.811   4.504  1.00  0.00     0.003 A 
HETATM   18  C   UNL     1      42.962 -14.684   4.026  1.00  0.00     0.011 A 
BRANCH  15  19
HETATM   19  O   UNL     1      44.164 -14.822   7.978  1.00  0.00    -0.361 OA
HETATM   20  H   UNL     1      44.964 -15.369   8.025  1.00  0.00     0.217 HD
ENDBRANCH  15  19
ENDBRANCH   7  13
BRANCH   1  21
HETATM   21  N   UNL     1      39.787 -16.366   2.296  1.00  0.00    -0.220 N 
HETATM   22  H   UNL     1      39.578 -17.016   1.525  1.00  0.00     0.200 HD
BRANCH  21  23
HETATM   23  S   UNL     1      39.243 -14.798   1.978  1.00  0.00     0.240 S 
HETATM   24  C   UNL     1      40.371 -14.313   0.688  1.00  0.00     0.187 C 
HETATM   25  O   UNL     1      39.490 -13.968   3.135  1.00  0.00    -0.205 OA
HETATM   26  O   UNL     1      37.925 -14.913   1.394  1.00  0.00    -0.205 OA
ENDBRANCH  21  23
ENDBRANCH   1  21
TORSDOF 4
ENDMDL
MODEL 3
REMARK VINA RESULT:      -7.4      2.378      3.224
REMARK  4 active torsions:
REMARK  status: ('A' for Active; 'I' for Inactive)
REMARK    1  A    between atoms: S_2  and  N_3 
REMARK    2  A    between atoms: N_3  and  N_4 
REMARK    3  A    between atoms: C_10  and  C_11 
REMARK    4  A    between atoms: C_13  and  O_14 
ROOT
HETATM    1  N   UNL     1      42.587 -15.926   4.995  1.00  0.00    -0.224 N 
HETATM    2  C   UNL     1      42.762 -14.881   4.101  1.00  0.00     0.276 C 
HETATM    3  O   UNL     1      43.443 -13.892   4.374  1.00  0.00    -0.266 OA
HETATM    4  C   UNL     1      42.010 -14.977   2.834  1.00  0.00     0.055 A 
HETATM    5  C   UNL     1      40.934 -15.875   2.794  1.00  0.00     0.026 A 
HETATM    6  N   UNL     1      40.639 -16.685   3.906  1.00  0.00    -0.265 NA
HETATM    7  C   UNL     1      41.829 -17.135   4.644  1.00  0.00     0.222 C 
HETATM    8  C   UNL     1      42.284 -14.118   1.768  1.00  0.00     0.019 A 
HETATM    9  C   UNL     1      41.465 -14.148   0.641  1.00  0.00     0.001 A 
HETATM   10  C   UNL     1      40.367 -15.008   0.602  1.00  0.00     0.002 A 
HETATM   11  C   UNL     1      40.092 -15.855   1.680  1.00  0.00     0.024 A 
HETATM   12  H   UNL     1      39.988 -17.434   3.711  1.00  0.00     0.130 HD
ENDROOT
BRANCH   7  13
HETATM   13  C   UNL     1      42.645 -18.165   3.842  1.00  0.00    -0.017 A 
HETATM   14  C   UNL     1      43.683 -18.904   4.444  1.00  0.00     0.047 A 
HETATM   15  C   UNL     1      44.399 -19.854   3.717  1.00  0.00     0.066 A 
HETATM   16  C   UNL     1      44.115 -20.097   2.383  1.00  0.00     0.036 A 
HETATM   17  C   UNL     1      43.080 -19.401   1.770  1.00  0.00     0.003 A 
HETATM   18  C   UNL     1      42.345 -18.458   2.494  1.00  0.00     0.011 A 
BRANCH  15  19
HETATM   19  O   UNL     1      45.400 -20.582   4.292  1.00  0.00    -0.361 OA
HETATM   20  H   UNL     1      45.335 -20.494   5.256  1.00  0.00     0.217 HD
ENDBRANCH  15  19
ENDBRANCH   7  13
BRANCH   1  21
HETATM   21  N   UNL     1      42.619 -15.525   6.426  1.00  0.00    -0.220 N 
HETATM   22  H   UNL     1      42.242 -14.579   6.580  1.00  0.00     0.200 HD
BRANCH  21  23
HETATM   23  S   UNL     1      43.981 -15.837   7.375  1.00  0.00     0.240 S 
HETATM   24  C   UNL     1      43.361 -17.135   8.425  1.00  0.00     0.187 C 
HETATM   25  O   UNL     1      44.260 -14.681   8.197  1.00  0.00    -0.205 OA
HETATM   26  O   UNL     1      44.985 -16.410   6.508  1.00  0.00    -0.205 OA
ENDBRANCH  21  23
ENDBRANCH   1  21
TORSDOF 4
ENDMDL
MODEL 4
REMARK VINA RESULT:      -7.4      3.955      5.560
REMARK  4 active torsions:
REMARK  status: ('A' for Active; 'I' for Inactive)
REMARK    1  A    between atoms: S_2  and  N_3 
REMARK    2  A    between atoms: N_3  and  N_4 
REMARK    3  A    between atoms: C_10  and  C_11 
REMARK    4  A    between atoms: C_13  and  O_14 
ROOT
HETATM    1  N   UNL     1      41.691 -17.244   1.588  1.00  0.00    -0.224 N 
HETATM    2  C   UNL     1      40.835 -16.952   2.639  1.00  0.00     0.276 C 
HETATM    3  O   UNL     1      39.611 -16.939   2.504  1.00  0.00    -0.266 OA
HETATM    4  C   UNL     1      41.476 -16.567   3.911  1.00  0.00     0.055 A 
HETATM    5  C   UNL     1      42.821 -16.170   3.857  1.00  0.00     0.026 A 
HETATM    6  N   UNL     1      43.525 -16.203   2.640  1.00  0.00    -0.265 NA
HETATM    7  C   UNL     1      43.147 -17.324   1.766  1.00  0.00     0.222 C 
HETATM    8  C   UNL     1      40.738 -16.482   5.093  1.00  0.00     0.019 A 
HETATM    9  C   UNL     1      41.348 -15.985   6.244  1.00  0.00     0.001 A 
HETATM   10  C   UNL     1      42.672 -15.549   6.196  1.00  0.00     0.002 A 
HETATM   11  C   UNL     1      43.400 -15.624   5.005  1.00  0.00     0.024 A 
HETATM   12  H   UNL     1      44.526 -16.099   2.739  1.00  0.00     0.130 HD
ENDROOT
BRANCH   7  13
HETATM   13  C   UNL     1      43.628 -18.675   2.327  1.00  0.00    -0.017 A 
HETATM   14  C   UNL     1      43.510 -19.861   1.576  1.00  0.00     0.047 A 
HETATM   15  C   UNL     1      43.973 -21.076   2.081  1.00  0.00     0.066 A 
HETATM   16  C   UNL     1      44.558 -21.153   3.335  1.00  0.00     0.036 A 
HETATM   17  C   UNL     1      44.709 -19.995   4.088  1.00  0.00     0.003 A 
HETATM   18  C   UNL     1      44.264 -18.769   3.583  1.00  0.00     0.011 A 
BRANCH  15  19
HETATM   19  O   UNL     1      43.873 -22.230   1.359  1.00  0.00    -0.361 OA
HETATM   20  H   UNL     1      43.603 -22.008   0.454  1.00  0.00     0.217 HD
ENDBRANCH  15  19
ENDBRANCH   7  13
BRANCH   1  21
HETATM   21  N   UNL     1      41.182 -16.844   0.250  1.00  0.00    -0.220 N 
HETATM   22  H   UNL     1      41.578 -17.415  -0.510  1.00  0.00     0.200 HD
BRANCH  21  23
HETATM   23  S   UNL     1      41.058 -15.213  -0.169  1.00  0.00     0.240 S 
HETATM   24  C   UNL     1      41.089 -15.326  -1.946  1.00  0.00     0.187 C 
HETATM   25  O   UNL     1      42.251 -14.520   0.264  1.00  0.00    -0.205 OA
HETATM   26  O   UNL     1      39.739 -14.769   0.224  1.00  0.00    -0.205 OA
ENDBRANCH  21  23
ENDBRANCH   1  21
TORSDOF 4
ENDMDL
MODEL 5
REMARK VINA RESULT:      -7.3      2.711      5.645
REMARK  4 active torsions:
REMARK  status: ('A' for Active; 'I' for Inactive)
REMARK    1  A    between atoms: S_2  and  N_3 
REMARK    2  A    between atoms: N_3  and  N_4 
REMARK    3  A    between atoms: C_10  and  C_11 
REMARK    4  A    between atoms: C_13  and  O_14 
ROOT
HETATM    1  N   UNL     1      42.142 -15.063   4.892  1.00  0.00    -0.224 N 
HETATM    2  C   UNL     1      42.999 -14.993   3.805  1.00  0.00     0.276 C 
HETATM    3  O   UNL     1      43.627 -13.970   3.531  1.00  0.00    -0.266 OA
HETATM    4  C   UNL     1      43.049 -16.186   2.937  1.00  0.00     0.055 A 
HETATM    5  C   UNL     1      41.995 -17.104   3.050  1.00  0.00     0.026 A 
HETATM    6  N   UNL     1      40.975 -16.906   3.999  1.00  0.00    -0.265 NA
HETATM    7  C   UNL     1      41.444 -16.304   5.256  1.00  0.00     0.222 C 
HETATM    8  C   UNL     1      44.037 -16.326   1.961  1.00  0.00     0.019 A 
HETATM    9  C   UNL     1      43.971 -17.398   1.073  1.00  0.00     0.001 A 
HETATM   10  C   UNL     1      42.907 -18.298   1.147  1.00  0.00     0.002 A 
HETATM   11  C   UNL     1      41.914 -18.142   2.119  1.00  0.00     0.024 A 
HETATM   12  H   UNL     1      40.383 -17.714   4.144  1.00  0.00     0.130 HD
ENDROOT
BRANCH   7  13
HETATM   13  C   UNL     1      42.308 -17.283   6.073  1.00  0.00    -0.017 A 
HETATM   14  C   UNL     1      42.666 -17.002   7.406  1.00  0.00     0.047 A 
HETATM   15  C   UNL     1      43.426 -17.906   8.147  1.00  0.00     0.066 A 
HETATM   16  C   UNL     1      43.854 -19.103   7.595  1.00  0.00     0.036 A 
HETATM   17  C   UNL     1      43.495 -19.417   6.289  1.00  0.00     0.003 A 
HETATM   18  C   UNL     1      42.718 -18.525   5.544  1.00  0.00     0.011 A 
BRANCH  15  19
HETATM   19  O   UNL     1      43.772 -17.650   9.443  1.00  0.00    -0.361 OA
HETATM   20  H   UNL     1      44.674 -17.294   9.460  1.00  0.00     0.217 HD
ENDBRANCH  15  19
ENDBRANCH   7  13
BRANCH   1  21
HETATM   21  N   UNL     1      41.488 -13.777   5.246  1.00  0.00    -0.220 N 
HETATM   22  H   UNL     1      41.258 -13.712   6.247  1.00  0.00     0.200 HD
BRANCH  21  23
HETATM   23  S   UNL     1      40.273 -13.133   4.265  1.00  0.00     0.240 S 
HETATM   24  C   UNL     1      39.167 -12.478   5.498  1.00  0.00     0.187 C 
HETATM   25  O   UNL     1      39.599 -14.211   3.576  1.00  0.00    -0.205 OA
HETATM   26  O   UNL     1      40.848 -12.018   3.548  1.00  0.00    -0.205 OA
ENDBRANCH  21  23
ENDBRANCH   1  21
TORSDOF 4
ENDMDL
MODEL 6
REMARK VINA RESULT:      -7.2      2.947      6.003
REMARK  4 active torsions:
REMARK  status: ('A' for Active; 'I' for Inactive)
REMARK    1  A    between atoms: S_2  and  N_3 
REMARK    2  A    between atoms: N_3  and  N_4 
REMARK    3  A    between atoms: C_10  and  C_11 
REMARK    4  A    between atoms: C_13  and  O_14 
ROOT
HETATM    1  N   UNL     1      41.027 -14.851   3.672  1.00  0.00    -0.224 N 
HETATM    2  C   UNL     1      41.866 -14.991   2.576  1.00  0.00     0.276 C 
HETATM    3  O   UNL     1      41.999 -14.103   1.734  1.00  0.00    -0.266 OA
HETATM    4  C   UNL     1      42.523 -16.304   2.426  1.00  0.00     0.055 A 
HETATM    5  C   UNL     1      41.980 -17.379   3.144  1.00  0.00     0.026 A 
HETATM    6  N   UNL     1      40.891 -17.179   4.012  1.00  0.00    -0.265 NA
HETATM    7  C   UNL     1      40.919 -15.885   4.710  1.00  0.00     0.222 C 
HETATM    8  C   UNL     1      43.561 -16.488   1.510  1.00  0.00     0.019 A 
HETATM    9  C   UNL     1      44.064 -17.771   1.300  1.00  0.00     0.001 A 
HETATM   10  C   UNL     1      43.508 -18.856   1.977  1.00  0.00     0.002 A 
HETATM   11  C   UNL     1      42.459 -18.665   2.881  1.00  0.00     0.024 A 
HETATM   12  H   UNL     1      40.707 -17.958   4.631  1.00  0.00     0.130 HD
ENDROOT
BRANCH   7  13
HETATM   13  C   UNL     1      42.043 -15.825   5.761  1.00  0.00    -0.017 A 
HETATM   14  C   UNL     1      42.183 -16.831   6.737  1.00  0.00     0.047 A 
HETATM   15  C   UNL     1      43.219 -16.783   7.669  1.00  0.00     0.066 A 
HETATM   16  C   UNL     1      44.137 -15.745   7.665  1.00  0.00     0.036 A 
HETATM   17  C   UNL     1      44.037 -14.752   6.698  1.00  0.00     0.003 A 
HETATM   18  C   UNL     1      43.012 -14.800   5.749  1.00  0.00     0.011 A 
BRANCH  15  19
HETATM   19  O   UNL     1      43.372 -17.756   8.614  1.00  0.00    -0.361 OA
HETATM   20  H   UNL     1      43.530 -18.602   8.166  1.00  0.00     0.217 HD
ENDBRANCH  15  19
ENDBRANCH   7  13
BRANCH   1  21
HETATM   21  N   UNL     1      39.839 -13.990   3.431  1.00  0.00    -0.220 N 
HETATM   22  H   UNL     1      39.672 -13.817   2.430  1.00  0.00     0.200 HD
BRANCH  21  23
HETATM   23  S   UNL     1      39.571 -12.614   4.374  1.00  0.00     0.240 S 
HETATM   24  C   UNL     1      41.189 -11.873   4.343  1.00  0.00     0.187 C 
HETATM   25  O   UNL     1      39.282 -13.020   5.732  1.00  0.00    -0.205 OA
HETATM   26  O   UNL     1      38.675 -11.756   3.633  1.00  0.00    -0.205 OA
ENDBRANCH  21  23
ENDBRANCH   1  21
TORSDOF 4
ENDMDL
MODEL 7
REMARK VINA RESULT:      -7.1      3.553      6.478
REMARK  4 active torsions:
REMARK  status: ('A' for Active; 'I' for Inactive)
REMARK    1  A    between atoms: S_2  and  N_3 
REMARK    2  A    between atoms: N_3  and  N_4 
REMARK    3  A    between atoms: C_10  and  C_11 
REMARK    4  A    between atoms: C_13  and  O_14 
ROOT
HETATM    1  N   UNL     1      41.394 -15.989   1.522  1.00  0.00    -0.224 N 
HETATM    2  C   UNL     1      42.597 -16.626   1.787  1.00  0.00     0.276 C 
HETATM    3  O   UNL     1      43.476 -16.750   0.934  1.00  0.00    -0.266 OA
HETATM    4  C   UNL     1      42.731 -17.230   3.127  1.00  0.00     0.055 A 
HETATM    5  C   UNL     1      41.551 -17.441   3.856  1.00  0.00     0.026 A 
HETATM    6  N   UNL     1      40.310 -17.031   3.337  1.00  0.00    -0.265 NA
HETATM    7  C   UNL     1      40.375 -15.784   2.560  1.00  0.00     0.222 C 
HETATM    8  C   UNL     1      43.967 -17.686   3.592  1.00  0.00     0.019 A 
HETATM    9  C   UNL     1      44.028 -18.372   4.803  1.00  0.00     0.001 A 
HETATM   10  C   UNL     1      42.858 -18.624   5.521  1.00  0.00     0.002 A 
HETATM   11  C   UNL     1      41.623 -18.177   5.041  1.00  0.00     0.024 A 
HETATM   12  H   UNL     1      39.557 -17.037   4.013  1.00  0.00     0.130 HD
ENDROOT
BRANCH   7  13
HETATM   13  C   UNL     1      40.644 -14.562   3.458  1.00  0.00    -0.017 A 
HETATM   14  C   UNL     1      40.075 -14.463   4.744  1.00  0.00     0.047 A 
HETATM   15  C   UNL     1      40.345 -13.366   5.561  1.00  0.00     0.066 A 
HETATM   16  C   UNL     1      41.175 -12.342   5.133  1.00  0.00     0.036 A 
HETATM   17  C   UNL     1      41.768 -12.426   3.879  1.00  0.00     0.003 A 
HETATM   18  C   UNL     1      41.518 -13.529   3.059  1.00  0.00     0.011 A 
BRANCH  15  19
HETATM   19  O   UNL     1      39.808 -13.262   6.812  1.00  0.00    -0.361 OA
HETATM   20  H   UNL     1      39.044 -13.857   6.873  1.00  0.00     0.217 HD
ENDBRANCH  15  19
ENDBRANCH   7  13
BRANCH   1  21
HETATM   21  N   UNL     1      40.931 -16.109   0.116  1.00  0.00    -0.220 N 
HETATM   22  H   UNL     1      41.366 -16.901  -0.378  1.00  0.00     0.200 HD
BRANCH  21  23
HETATM   23  S   UNL     1      40.793 -14.740  -0.864  1.00  0.00     0.240 S 
HETATM   24  C   UNL     1      40.879 -15.480  -2.480  1.00  0.00     0.187 C 
HETATM   25  O   UNL     1      41.961 -13.908  -0.681  1.00  0.00    -0.205 OA
HETATM   26  O   UNL     1      39.457 -14.219  -0.685  1.00  0.00    -0.205 OA
ENDBRANCH  21  23
ENDBRANCH   1  21
TORSDOF 4
ENDMDL
MODEL 8
REMARK VINA RESULT:      -7.0      3.463      6.264
REMARK  4 active torsions:
REMARK  status: ('A' for Active; 'I' for Inactive)
REMARK    1  A    between atoms: S_2  and  N_3 
REMARK    2  A    between atoms: N_3  and  N_4 
REMARK    3  A    between atoms: C_10  and  C_11 
REMARK    4  A    between atoms: C_13  and  O_14 
ROOT
HETATM    1  N   UNL     1      41.244 -13.256   3.800  1.00  0.00    -0.224 N 
HETATM    2  C   UNL     1      41.842 -13.590   2.594  1.00  0.00     0.276 C 
HETATM    3  O   UNL     1      42.439 -12.761   1.907  1.00  0.00    -0.266 OA
HETATM    4  C   UNL     1      41.644 -14.978   2.132  1.00  0.00     0.055 A 
HETATM    5  C   UNL     1      40.601 -15.707   2.722  1.00  0.00     0.026 A 
HETATM    6  N   UNL     1      39.827 -15.139   3.750  1.00  0.00    -0.265 NA
HETATM    7  C   UNL     1      40.589 -14.260   4.650  1.00  0.00     0.222 C 
HETATM    8  C   UNL     1      42.385 -15.495   1.067  1.00  0.00     0.019 A 
HETATM    9  C   UNL     1      42.076 -16.761   0.573  1.00  0.00     0.001 A 
HETATM   10  C   UNL     1      41.016 -17.482   1.123  1.00  0.00     0.002 A 
HETATM   11  C   UNL     1      40.270 -16.951   2.180  1.00  0.00     0.024 A 
HETATM   12  H   UNL     1      39.246 -15.804   4.245  1.00  0.00     0.130 HD
ENDROOT
BRANCH   7  13
HETATM   13  C   UNL     1      41.568 -15.055   5.534  1.00  0.00    -0.017 A 
HETATM   14  C   UNL     1      42.850 -14.555   5.835  1.00  0.00     0.047 A 
HETATM   15  C   UNL     1      43.720 -15.269   6.659  1.00  0.00     0.066 A 
HETATM   16  C   UNL     1      43.351 -16.490   7.201  1.00  0.00     0.036 A 
HETATM   17  C   UNL     1      42.083 -16.995   6.941  1.00  0.00     0.003 A 
HETATM   18  C   UNL     1      41.197 -16.279   6.130  1.00  0.00     0.011 A 
BRANCH  15  19
HETATM   19  O   UNL     1      44.961 -14.792   6.966  1.00  0.00    -0.361 OA
HETATM   20  H   UNL     1      45.154 -15.000   7.893  1.00  0.00     0.217 HD
ENDBRANCH  15  19
ENDBRANCH   7  13
BRANCH   1  21
HETATM   21  N   UNL     1      40.743 -11.859   3.873  1.00  0.00    -0.220 N 
HETATM   22  H   UNL     1      41.138 -11.339   4.669  1.00  0.00     0.200 HD
BRANCH  21  23
HETATM   23  S   UNL     1      39.106 -11.520   3.633  1.00  0.00     0.240 S 
HETATM   24  C   UNL     1      39.206  -9.876   2.958  1.00  0.00     0.187 C 
HETATM   25  O   UNL     1      38.444 -11.446   4.916  1.00  0.00    -0.205 OA
HETATM   26  O   UNL     1      38.635 -12.400   2.588  1.00  0.00    -0.205 OA
ENDBRANCH  21  23
ENDBRANCH   1  21
TORSDOF 4
ENDMDL
MODEL 9
REMARK VINA RESULT:      -6.9      4.046      6.904
REMARK  4 active torsions:
REMARK  status: ('A' for Active; 'I' for Inactive)
REMARK    1  A    between atoms: S_2  and  N_3 
REMARK    2  A    between atoms: N_3  and  N_4 
REMARK    3  A    between atoms: C_10  and  C_11 
REMARK    4  A    between atoms: C_13  and  O_14 
ROOT
HETATM    1  N   UNL     1      40.193 -15.237   1.549  1.00  0.00    -0.224 N 
HETATM    2  C   UNL     1      41.265 -15.752   0.835  1.00  0.00     0.276 C 
HETATM    3  O   UNL     1      41.428 -15.519  -0.363  1.00  0.00    -0.266 OA
HETATM    4  C   UNL     1      42.154 -16.672   1.572  1.00  0.00     0.055 A 
HETATM    5  C   UNL     1      41.657 -17.231   2.758  1.00  0.00     0.026 A 
HETATM    6  N   UNL     1      40.386 -16.868   3.239  1.00  0.00    -0.265 NA
HETATM    7  C   UNL     1      40.037 -15.461   2.992  1.00  0.00     0.222 C 
HETATM    8  C   UNL     1      43.385 -17.063   1.041  1.00  0.00     0.019 A 
HETATM    9  C   UNL     1      44.133 -18.036   1.700  1.00  0.00     0.001 A 
HETATM   10  C   UNL     1      43.635 -18.630   2.860  1.00  0.00     0.002 A 
HETATM   11  C   UNL     1      42.394 -18.242   3.377  1.00  0.00     0.024 A 
HETATM   12  H   UNL     1      40.205 -17.160   4.190  1.00  0.00     0.130 HD
ENDROOT
BRANCH   7  13
HETATM   13  C   UNL     1      40.874 -14.503   3.862  1.00  0.00    -0.017 A 
HETATM   14  C   UNL     1      40.968 -13.132   3.553  1.00  0.00     0.047 A 
HETATM   15  C   UNL     1      41.706 -12.267   4.360  1.00  0.00     0.066 A 
HETATM   16  C   UNL     1      42.369 -12.730   5.485  1.00  0.00     0.036 A 
HETATM   17  C   UNL     1      42.273 -14.074   5.828  1.00  0.00     0.003 A 
HETATM   18  C   UNL     1      41.522 -14.946   5.034  1.00  0.00     0.011 A 
BRANCH  15  19
HETATM   19  O   UNL     1      41.798 -10.935   4.077  1.00  0.00    -0.361 OA
HETATM   20  H   UNL     1      42.144 -10.474   4.857  1.00  0.00     0.217 HD
ENDBRANCH  15  19
ENDBRANCH   7  13
BRANCH   1  21
HETATM   21  N   UNL     1      38.960 -15.034   0.746  1.00  0.00    -0.220 N 
HETATM   22  H   UNL     1      38.846 -15.744   0.010  1.00  0.00     0.200 HD
BRANCH  21  23
HETATM   23  S   UNL     1      38.520 -13.489   0.222  1.00  0.00     0.240 S 
HETATM   24  C   UNL     1      38.300 -13.783  -1.520  1.00  0.00     0.187 C 
HETATM   25  O   UNL     1      39.642 -12.593   0.395  1.00  0.00    -0.205 OA
HETATM   26  O   UNL     1      37.223 -13.198   0.790  1.00  0.00    -0.205 OA
ENDBRANCH  21  23
ENDBRANCH   1  21
TORSDOF 4
ENDMDL
MODEL 10
REMARK VINA RESULT:      -6.7      2.555      4.470
REMARK  4 active torsions:
REMARK  status: ('A' for Active; 'I' for Inactive)
REMARK    1  A    between atoms: S_2  and  N_3 
REMARK    2  A    between atoms: N_3  and  N_4 
REMARK    3  A    between atoms: C_10  and  C_11 
REMARK    4  A    between atoms: C_13  and  O_14 
ROOT
HETATM    1  N   UNL     1      43.156 -15.199   5.006  1.00  0.00    -0.224 N 
HETATM    2  C   UNL     1      43.301 -14.924   3.654  1.00  0.00     0.276 C 
HETATM    3  O   UNL     1      44.009 -14.003   3.245  1.00  0.00    -0.266 OA
HETATM    4  C   UNL     1      42.487 -15.741   2.734  1.00  0.00     0.055 A 
HETATM    5  C   UNL     1      41.398 -16.433   3.284  1.00  0.00     0.026 A 
HETATM    6  N   UNL     1      41.147 -16.384   4.667  1.00  0.00    -0.265 NA
HETATM    7  C   UNL     1      42.365 -16.339   5.489  1.00  0.00     0.222 C 
HETATM    8  C   UNL     1      42.719 -15.723   1.357  1.00  0.00     0.019 A 
HETATM    9  C   UNL     1      41.845 -16.400   0.509  1.00  0.00     0.001 A 
HETATM   10  C   UNL     1      40.735 -17.060   1.037  1.00  0.00     0.002 A 
HETATM   11  C   UNL     1      40.502 -17.061   2.416  1.00  0.00     0.024 A 
HETATM   12  H   UNL     1      40.476 -17.069   4.990  1.00  0.00     0.130 HD
ENDROOT
BRANCH   7  13
HETATM   13  C   UNL     1      43.126 -17.677   5.459  1.00  0.00    -0.017 A 
HETATM   14  C   UNL     1      43.036 -18.592   6.527  1.00  0.00     0.047 A 
HETATM   15  C   UNL     1      43.708 -19.813   6.480  1.00  0.00     0.066 A 
HETATM   16  C   UNL     1      44.484 -20.161   5.386  1.00  0.00     0.036 A 
HETATM   17  C   UNL     1      44.570 -19.289   4.308  1.00  0.00     0.003 A 
HETATM   18  C   UNL     1      43.887 -18.070   4.338  1.00  0.00     0.011 A 
BRANCH  15  19
HETATM   19  O   UNL     1      43.621 -20.712   7.504  1.00  0.00    -0.361 OA
HETATM   20  H   UNL     1      42.880 -20.460   8.077  1.00  0.00     0.217 HD
ENDBRANCH  15  19
ENDBRANCH   7  13
BRANCH   1  21
HETATM   21  N   UNL     1      43.265 -14.011   5.891  1.00  0.00    -0.220 N 
HETATM   22  H   UNL     1      43.114 -13.126   5.386  1.00  0.00     0.200 HD
BRANCH  21  23
HETATM   23  S   UNL     1      44.509 -13.897   7.028  1.00  0.00     0.240 S 
HETATM   24  C   UNL     1      43.971 -12.481   7.964  1.00  0.00     0.187 C 
HETATM   25  O   UNL     1      45.739 -13.555   6.350  1.00  0.00    -0.205 OA
HETATM   26  O   UNL     1      44.413 -15.057   7.885  1.00  0.00    -0.205 OA
ENDBRANCH  21  23
ENDBRANCH   1  21
TORSDOF 4
ENDMDL
