MODEL 1
REMARK VINA RESULT:      -8.1      0.000      0.000
REMARK  3 active torsions:
REMARK  status: ('A' for Active; 'I' for Inactive)
REMARK    1  A    between atoms: C_9  and  C_10 
REMARK    2  A    between atoms: C_16  and  C_17 
REMARK       I    between atoms: C_17  and  N_18 
REMARK    3  A    between atoms: N_18  and  C_19 
ROOT
HETATM    1  C   UNL     1      40.357 -16.274   1.580  1.00  0.00     0.070 C 
HETATM    2  C   UNL     1      40.464 -15.520   2.883  1.00  0.00     0.037 C 
HETATM    3  N   UNL     1      39.886 -14.252   2.892  1.00  0.00    -0.191 N 
HETATM    4  C   UNL     1      39.665 -13.558   4.027  1.00  0.00     0.735 A 
HETATM    5  N   UNL     1      40.169 -14.031   5.206  1.00  0.00    -0.092 N 
HETATM    6  N   UNL     1      39.790 -13.242   6.223  1.00  0.00     0.012 NA
HETATM    7  N   UNL     1      39.088 -12.272   5.647  1.00  0.00     0.033 NA
HETATM    8  N   UNL     1      39.002 -12.457   4.279  1.00  0.00     0.030 NA
HETATM    9  C   UNL     1      40.977 -15.239   5.338  1.00  0.00     0.199 C 
HETATM   10  C   UNL     1      41.005 -16.017   4.024  1.00  0.00     0.062 C 
HETATM   11  H   UNL     1      39.413 -13.947   2.043  1.00  0.00     0.184 HD
ENDROOT
BRANCH  10  12
HETATM   12  C   UNL     1      41.556 -17.391   4.151  1.00  0.00     0.256 C 
HETATM   13  N   UNL     1      42.661 -17.625   3.365  1.00  0.00    -0.322 N 
HETATM   14  H   UNL     1      43.023 -16.850   2.822  1.00  0.00     0.169 HD
HETATM   15  O   UNL     1      41.045 -18.157   4.956  1.00  0.00    -0.267 OA
BRANCH  13  16
HETATM   16  C   UNL     1      43.345 -18.852   3.229  1.00  0.00     0.052 A 
HETATM   17  C   UNL     1      44.250 -19.374   4.151  1.00  0.00     0.145 A 
HETATM   18  N   UNL     1      44.877 -20.570   4.009  1.00  0.00    -0.271 NA
HETATM   19  C   UNL     1      44.591 -21.284   2.902  1.00  0.00     0.116 A 
HETATM   20  C   UNL     1      43.708 -20.856   1.926  1.00  0.00     0.021 A 
HETATM   21  C   UNL     1      43.081 -19.622   2.094  1.00  0.00     0.032 A 
ENDBRANCH  13  16
ENDBRANCH  10  12
BRANCH   9  22
HETATM   22  C   UNL     1      42.379 -14.904   5.819  1.00  0.00    -0.011 A 
HETATM   23  C   UNL     1      43.154 -13.907   5.226  1.00  0.00     0.125 A 
HETATM   24  N   UNL     1      44.423 -13.614   5.590  1.00  0.00    -0.272 NA
HETATM   25  C   UNL     1      44.949 -14.331   6.604  1.00  0.00     0.116 A 
HETATM   26  C   UNL     1      44.272 -15.346   7.258  1.00  0.00     0.020 A 
HETATM   27  C   UNL     1      42.972 -15.639   6.853  1.00  0.00     0.012 A 
ENDBRANCH   9  22
TORSDOF 3
ENDMDL
MODEL 2
REMARK VINA RESULT:      -8.0      2.124      4.022
REMARK  3 active torsions:
REMARK  status: ('A' for Active; 'I' for Inactive)
REMARK    1  A    between atoms: C_9  and  C_10 
REMARK    2  A    between atoms: C_16  and  C_17 
REMARK       I    between atoms: C_17  and  N_18 
REMARK    3  A    between atoms: N_18  and  C_19 
ROOT
HETATM    1  C   UNL     1      42.822 -17.341   7.781  1.00  0.00     0.070 C 
HETATM    2  C   UNL     1      42.810 -16.475   6.545  1.00  0.00     0.037 C 
HETATM    3  N   UNL     1      42.182 -15.240   6.684  1.00  0.00    -0.191 N 
HETATM    4  C   UNL     1      42.304 -14.252   5.774  1.00  0.00     0.735 A 
HETATM    5  N   UNL     1      42.930 -14.511   4.588  1.00  0.00    -0.092 N 
HETATM    6  N   UNL     1      43.010 -13.395   3.849  1.00  0.00     0.012 NA
HETATM    7  N   UNL     1      42.396 -12.469   4.580  1.00  0.00     0.033 NA
HETATM    8  N   UNL     1      41.951 -12.990   5.781  1.00  0.00     0.030 NA
HETATM    9  C   UNL     1      43.463 -15.814   4.199  1.00  0.00     0.199 C 
HETATM   10  C   UNL     1      43.418 -16.789   5.373  1.00  0.00     0.062 C 
HETATM   11  H   UNL     1      41.812 -15.002   7.603  1.00  0.00     0.184 HD
ENDROOT
BRANCH  10  12
HETATM   12  C   UNL     1      44.200 -18.033   5.151  1.00  0.00     0.256 C 
HETATM   13  N   UNL     1      43.570 -18.951   4.343  1.00  0.00    -0.322 N 
HETATM   14  H   UNL     1      42.678 -18.690   3.941  1.00  0.00     0.169 HD
HETATM   15  O   UNL     1      45.322 -18.116   5.632  1.00  0.00    -0.267 OA
BRANCH  13  16
HETATM   16  C   UNL     1      44.042 -20.242   4.021  1.00  0.00     0.052 A 
HETATM   17  C   UNL     1      44.513 -21.178   4.939  1.00  0.00     0.145 A 
HETATM   18  N   UNL     1      44.938 -22.424   4.607  1.00  0.00    -0.271 NA
HETATM   19  C   UNL     1      44.891 -22.759   3.302  1.00  0.00     0.116 A 
HETATM   20  C   UNL     1      44.441 -21.904   2.311  1.00  0.00     0.021 A 
HETATM   21  C   UNL     1      44.014 -20.629   2.679  1.00  0.00     0.032 A 
ENDBRANCH  13  16
ENDBRANCH  10  12
BRANCH   9  22
HETATM   22  C   UNL     1      42.725 -16.362   2.989  1.00  0.00    -0.011 A 
HETATM   23  C   UNL     1      41.351 -16.608   3.000  1.00  0.00     0.125 A 
HETATM   24  N   UNL     1      40.668 -17.143   1.964  1.00  0.00    -0.272 NA
HETATM   25  C   UNL     1      41.373 -17.434   0.850  1.00  0.00     0.116 A 
HETATM   26  C   UNL     1      42.738 -17.237   0.735  1.00  0.00     0.020 A 
HETATM   27  C   UNL     1      43.421 -16.700   1.822  1.00  0.00     0.012 A 
ENDBRANCH   9  22
TORSDOF 3
ENDMDL
MODEL 3
REMARK VINA RESULT:      -7.6      2.007      3.639
REMARK  3 active torsions:
REMARK  status: ('A' for Active; 'I' for Inactive)
REMARK    1  A    between atoms: C_9  and  C_10 
REMARK    2  A    between atoms: C_16  and  C_17 
REMARK       I    between atoms: C_17  and  N_18 
REMARK    3  A    between atoms: N_18  and  C_19 
ROOT
HETATM    1  C   UNL     1      40.921 -16.702   6.669  1.00  0.00     0.070 C 
HETATM    2  C   UNL     1      40.756 -15.454   5.835  1.00  0.00     0.037 C 
HETATM    3  N   UNL     1      39.846 -14.521   6.325  1.00  0.00    -0.191 N 
HETATM    4  C   UNL     1      39.769 -13.259   5.854  1.00  0.00     0.735 A 
HETATM    5  N   UNL     1      40.489 -12.916   4.745  1.00  0.00    -0.092 N 
HETATM    6  N   UNL     1      40.333 -11.612   4.472  1.00  0.00     0.012 NA
HETATM    7  N   UNL     1      39.485 -11.180   5.400  1.00  0.00     0.033 NA
HETATM    8  N   UNL     1      39.126 -12.195   6.267  1.00  0.00     0.030 NA
HETATM    9  C   UNL     1      41.333 -13.836   3.987  1.00  0.00     0.199 C 
HETATM   10  C   UNL     1      41.471 -15.170   4.717  1.00  0.00     0.062 C 
HETATM   11  H   UNL     1      39.391 -14.730   7.213  1.00  0.00     0.184 HD
ENDROOT
BRANCH  10  12
HETATM   12  C   UNL     1      42.536 -16.048   4.167  1.00  0.00     0.256 C 
HETATM   13  N   UNL     1      42.153 -17.361   4.013  1.00  0.00    -0.322 N 
HETATM   14  H   UNL     1      41.193 -17.599   4.234  1.00  0.00     0.169 HD
HETATM   15  O   UNL     1      43.605 -15.547   3.849  1.00  0.00    -0.267 OA
BRANCH  13  16
HETATM   16  C   UNL     1      42.974 -18.426   3.583  1.00  0.00     0.052 A 
HETATM   17  C   UNL     1      43.946 -19.054   4.357  1.00  0.00     0.145 A 
HETATM   18  N   UNL     1      44.706 -20.094   3.929  1.00  0.00    -0.271 NA
HETATM   19  C   UNL     1      44.490 -20.533   2.673  1.00  0.00     0.116 A 
HETATM   20  C   UNL     1      43.550 -19.979   1.822  1.00  0.00     0.021 A 
HETATM   21  C   UNL     1      42.785 -18.910   2.286  1.00  0.00     0.032 A 
ENDBRANCH  13  16
ENDBRANCH  10  12
BRANCH   9  22
HETATM   22  C   UNL     1      40.799 -14.023   2.576  1.00  0.00    -0.011 A 
HETATM   23  C   UNL     1      41.555 -13.717   1.445  1.00  0.00     0.125 A 
HETATM   24  N   UNL     1      41.098 -13.820   0.176  1.00  0.00    -0.272 NA
HETATM   25  C   UNL     1      39.835 -14.266   0.014  1.00  0.00     0.116 A 
HETATM   26  C   UNL     1      38.997 -14.592   1.067  1.00  0.00     0.020 A 
HETATM   27  C   UNL     1      39.486 -14.461   2.364  1.00  0.00     0.012 A 
ENDBRANCH   9  22
TORSDOF 3
ENDMDL
MODEL 4
REMARK VINA RESULT:      -7.6      2.534      4.217
REMARK  3 active torsions:
REMARK  status: ('A' for Active; 'I' for Inactive)
REMARK    1  A    between atoms: C_9  and  C_10 
REMARK    2  A    between atoms: C_16  and  C_17 
REMARK       I    between atoms: C_17  and  N_18 
REMARK    3  A    between atoms: N_18  and  C_19 
ROOT
HETATM    1  C   UNL     1      43.684 -17.443   1.231  1.00  0.00     0.070 C 
HETATM    2  C   UNL     1      42.529 -16.474   1.297  1.00  0.00     0.037 C 
HETATM    3  N   UNL     1      42.238 -15.805   0.111  1.00  0.00    -0.191 N 
HETATM    4  C   UNL     1      41.097 -15.110  -0.075  1.00  0.00     0.735 A 
HETATM    5  N   UNL     1      40.259 -14.909   0.985  1.00  0.00    -0.092 N 
HETATM    6  N   UNL     1      39.155 -14.258   0.589  1.00  0.00     0.012 NA
HETATM    7  N   UNL     1      39.349 -14.035  -0.707  1.00  0.00     0.033 NA
HETATM    8  N   UNL     1      40.554 -14.561  -1.133  1.00  0.00     0.030 NA
HETATM    9  C   UNL     1      40.519 -15.367   2.347  1.00  0.00     0.199 C 
HETATM   10  C   UNL     1      41.743 -16.280   2.386  1.00  0.00     0.062 C 
HETATM   11  H   UNL     1      42.796 -16.040  -0.709  1.00  0.00     0.184 HD
ENDROOT
BRANCH  10  12
HETATM   12  C   UNL     1      41.902 -17.015   3.667  1.00  0.00     0.256 C 
HETATM   13  N   UNL     1      42.886 -16.507   4.484  1.00  0.00    -0.322 N 
HETATM   14  H   UNL     1      43.369 -15.672   4.175  1.00  0.00     0.169 HD
HETATM   15  O   UNL     1      41.139 -17.939   3.914  1.00  0.00    -0.267 OA
BRANCH  13  16
HETATM   16  C   UNL     1      43.305 -17.043   5.721  1.00  0.00     0.052 A 
HETATM   17  C   UNL     1      42.701 -16.792   6.951  1.00  0.00     0.145 A 
HETATM   18  N   UNL     1      43.107 -17.340   8.125  1.00  0.00    -0.271 NA
HETATM   19  C   UNL     1      44.161 -18.179   8.077  1.00  0.00     0.116 A 
HETATM   20  C   UNL     1      44.831 -18.494   6.908  1.00  0.00     0.021 A 
HETATM   21  C   UNL     1      44.396 -17.915   5.717  1.00  0.00     0.032 A 
ENDBRANCH  13  16
ENDBRANCH  10  12
BRANCH   9  22
HETATM   22  C   UNL     1      40.671 -14.189   3.296  1.00  0.00    -0.011 A 
HETATM   23  C   UNL     1      41.657 -13.216   3.127  1.00  0.00     0.125 A 
HETATM   24  N   UNL     1      41.857 -12.184   3.976  1.00  0.00    -0.272 NA
HETATM   25  C   UNL     1      41.031 -12.095   5.039  1.00  0.00     0.116 A 
HETATM   26  C   UNL     1      40.025 -13.008   5.305  1.00  0.00     0.020 A 
HETATM   27  C   UNL     1      39.850 -14.072   4.424  1.00  0.00     0.012 A 
ENDBRANCH   9  22
TORSDOF 3
ENDMDL
MODEL 5
REMARK VINA RESULT:      -7.3      2.567      5.583
REMARK  3 active torsions:
REMARK  status: ('A' for Active; 'I' for Inactive)
REMARK    1  A    between atoms: C_9  and  C_10 
REMARK    2  A    between atoms: C_16  and  C_17 
REMARK       I    between atoms: C_17  and  N_18 
REMARK    3  A    between atoms: N_18  and  C_19 
ROOT
HETATM    1  C   UNL     1      43.127 -19.741   2.060  1.00  0.00     0.070 C 
HETATM    2  C   UNL     1      43.315 -18.892   3.294  1.00  0.00     0.037 C 
HETATM    3  N   UNL     1      43.479 -19.593   4.486  1.00  0.00    -0.191 N 
HETATM    4  C   UNL     1      43.910 -19.010   5.623  1.00  0.00     0.735 A 
HETATM    5  N   UNL     1      44.039 -17.650   5.667  1.00  0.00    -0.092 N 
HETATM    6  N   UNL     1      44.539 -17.268   6.852  1.00  0.00     0.012 NA
HETATM    7  N   UNL     1      44.675 -18.400   7.535  1.00  0.00     0.033 NA
HETATM    8  N   UNL     1      44.287 -19.493   6.781  1.00  0.00     0.030 NA
HETATM    9  C   UNL     1      43.708 -16.749   4.567  1.00  0.00     0.199 C 
HETATM   10  C   UNL     1      43.403 -17.538   3.295  1.00  0.00     0.062 C 
HETATM   11  H   UNL     1      43.493 -20.611   4.434  1.00  0.00     0.184 HD
ENDROOT
BRANCH  10  12
HETATM   12  C   UNL     1      43.344 -16.700   2.070  1.00  0.00     0.256 C 
HETATM   13  N   UNL     1      42.095 -16.189   1.803  1.00  0.00    -0.322 N 
HETATM   14  H   UNL     1      41.357 -16.379   2.470  1.00  0.00     0.169 HD
HETATM   15  O   UNL     1      44.378 -16.489   1.451  1.00  0.00    -0.267 OA
BRANCH  13  16
HETATM   16  C   UNL     1      41.728 -15.424   0.674  1.00  0.00     0.052 A 
HETATM   17  C   UNL     1      41.739 -14.032   0.609  1.00  0.00     0.145 A 
HETATM   18  N   UNL     1      41.406 -13.319  -0.497  1.00  0.00    -0.271 NA
HETATM   19  C   UNL     1      41.048 -14.018  -1.591  1.00  0.00     0.116 A 
HETATM   20  C   UNL     1      41.004 -15.401  -1.632  1.00  0.00     0.021 A 
HETATM   21  C   UNL     1      41.348 -16.109  -0.481  1.00  0.00     0.032 A 
ENDBRANCH  13  16
ENDBRANCH  10  12
BRANCH   9  22
HETATM   22  C   UNL     1      42.557 -15.832   4.945  1.00  0.00    -0.011 A 
HETATM   23  C   UNL     1      42.678 -14.442   4.944  1.00  0.00     0.125 A 
HETATM   24  N   UNL     1      41.696 -13.594   5.324  1.00  0.00    -0.272 NA
HETATM   25  C   UNL     1      40.526 -14.146   5.709  1.00  0.00     0.116 A 
HETATM   26  C   UNL     1      40.300 -15.511   5.753  1.00  0.00     0.020 A 
HETATM   27  C   UNL     1      41.334 -16.363   5.373  1.00  0.00     0.012 A 
ENDBRANCH   9  22
TORSDOF 3
ENDMDL
MODEL 6
REMARK VINA RESULT:      -7.2      2.430      6.964
REMARK  3 active torsions:
REMARK  status: ('A' for Active; 'I' for Inactive)
REMARK    1  A    between atoms: C_9  and  C_10 
REMARK    2  A    between atoms: C_16  and  C_17 
REMARK       I    between atoms: C_17  and  N_18 
REMARK    3  A    between atoms: N_18  and  C_19 
ROOT
HETATM    1  C   UNL     1      44.937 -13.977   6.965  1.00  0.00     0.070 C 
HETATM    2  C   UNL     1      44.291 -15.212   6.386  1.00  0.00     0.037 C 
HETATM    3  N   UNL     1      44.830 -16.425   6.809  1.00  0.00    -0.191 N 
HETATM    4  C   UNL     1      44.218 -17.609   6.597  1.00  0.00     0.735 A 
HETATM    5  N   UNL     1      43.110 -17.654   5.799  1.00  0.00    -0.092 N 
HETATM    6  N   UNL     1      42.611 -18.898   5.765  1.00  0.00     0.012 NA
HETATM    7  N   UNL     1      43.446 -19.611   6.516  1.00  0.00     0.033 NA
HETATM    8  N   UNL     1      44.451 -18.820   7.041  1.00  0.00     0.030 NA
HETATM    9  C   UNL     1      42.537 -16.502   5.110  1.00  0.00     0.199 C 
HETATM   10  C   UNL     1      43.209 -15.209   5.567  1.00  0.00     0.062 C 
HETATM   11  H   UNL     1      45.585 -16.391   7.491  1.00  0.00     0.184 HD
ENDROOT
BRANCH  10  12
HETATM   12  C   UNL     1      42.497 -13.978   5.137  1.00  0.00     0.256 C 
HETATM   13  N   UNL     1      41.294 -13.777   5.775  1.00  0.00    -0.322 N 
HETATM   14  H   UNL     1      41.029 -14.438   6.497  1.00  0.00     0.169 HD
HETATM   15  O   UNL     1      43.037 -13.237   4.328  1.00  0.00    -0.267 OA
BRANCH  13  16
HETATM   16  C   UNL     1      40.375 -12.737   5.519  1.00  0.00     0.052 A 
HETATM   17  C   UNL     1      40.068 -11.701   6.397  1.00  0.00     0.145 A 
HETATM   18  N   UNL     1      39.198 -10.697   6.118  1.00  0.00    -0.271 NA
HETATM   19  C   UNL     1      38.605 -10.721   4.907  1.00  0.00     0.116 A 
HETATM   20  C   UNL     1      38.840 -11.705   3.963  1.00  0.00     0.021 A 
HETATM   21  C   UNL     1      39.735 -12.726   4.277  1.00  0.00     0.032 A 
ENDBRANCH  13  16
ENDBRANCH  10  12
BRANCH   9  22
HETATM   22  C   UNL     1      42.623 -16.674   3.602  1.00  0.00    -0.011 A 
HETATM   23  C   UNL     1      41.496 -16.649   2.781  1.00  0.00     0.125 A 
HETATM   24  N   UNL     1      41.525 -16.850   1.445  1.00  0.00    -0.272 NA
HETATM   25  C   UNL     1      42.732 -17.071   0.885  1.00  0.00     0.116 A 
HETATM   26  C   UNL     1      43.913 -17.123   1.606  1.00  0.00     0.020 A 
HETATM   27  C   UNL     1      43.854 -16.929   2.984  1.00  0.00     0.012 A 
ENDBRANCH   9  22
TORSDOF 3
ENDMDL
MODEL 7
REMARK VINA RESULT:      -7.1      4.343      6.733
REMARK  3 active torsions:
REMARK  status: ('A' for Active; 'I' for Inactive)
REMARK    1  A    between atoms: C_9  and  C_10 
REMARK    2  A    between atoms: C_16  and  C_17 
REMARK       I    between atoms: C_17  and  N_18 
REMARK    3  A    between atoms: N_18  and  C_19 
ROOT
HETATM    1  C   UNL     1      40.879 -12.419   2.497  1.00  0.00     0.070 C 
HETATM    2  C   UNL     1      41.192 -12.518   1.024  1.00  0.00     0.037 C 
HETATM    3  N   UNL     1      41.371 -11.304   0.365  1.00  0.00    -0.191 N 
HETATM    4  C   UNL     1      41.902 -11.216  -0.872  1.00  0.00     0.735 A 
HETATM    5  N   UNL     1      42.128 -12.360  -1.584  1.00  0.00    -0.092 N 
HETATM    6  N   UNL     1      42.716 -12.071  -2.754  1.00  0.00     0.012 NA
HETATM    7  N   UNL     1      42.810 -10.745  -2.760  1.00  0.00     0.033 NA
HETATM    8  N   UNL     1      42.307 -10.200  -1.593  1.00  0.00     0.030 NA
HETATM    9  C   UNL     1      41.802 -13.705  -1.119  1.00  0.00     0.199 C 
HETATM   10  C   UNL     1      41.374 -13.681   0.347  1.00  0.00     0.062 C 
HETATM   11  H   UNL     1      41.311 -10.454   0.923  1.00  0.00     0.184 HD
ENDROOT
BRANCH  10  12
HETATM   12  C   UNL     1      41.307 -15.026   0.975  1.00  0.00     0.256 C 
HETATM   13  N   UNL     1      42.521 -15.494   1.424  1.00  0.00    -0.322 N 
HETATM   14  H   UNL     1      43.322 -14.880   1.337  1.00  0.00     0.169 HD
HETATM   15  O   UNL     1      40.216 -15.566   1.093  1.00  0.00    -0.267 OA
BRANCH  13  16
HETATM   16  C   UNL     1      42.769 -16.762   1.992  1.00  0.00     0.052 A 
HETATM   17  C   UNL     1      42.326 -17.181   3.245  1.00  0.00     0.145 A 
HETATM   18  N   UNL     1      42.557 -18.416   3.760  1.00  0.00    -0.271 NA
HETATM   19  C   UNL     1      43.258 -19.277   2.996  1.00  0.00     0.116 A 
HETATM   20  C   UNL     1      43.743 -18.960   1.739  1.00  0.00     0.021 A 
HETATM   21  C   UNL     1      43.495 -17.684   1.235  1.00  0.00     0.032 A 
ENDBRANCH  13  16
ENDBRANCH  10  12
BRANCH   9  22
HETATM   22  C   UNL     1      40.739 -14.340  -2.000  1.00  0.00    -0.011 A 
HETATM   23  C   UNL     1      41.020 -15.401  -2.861  1.00  0.00     0.125 A 
HETATM   24  N   UNL     1      40.117 -15.958  -3.699  1.00  0.00    -0.272 NA
HETATM   25  C   UNL     1      38.866 -15.455  -3.672  1.00  0.00     0.116 A 
HETATM   26  C   UNL     1      38.481 -14.400  -2.862  1.00  0.00     0.020 A 
HETATM   27  C   UNL     1      39.434 -13.833  -2.021  1.00  0.00     0.012 A 
ENDBRANCH   9  22
TORSDOF 3
ENDMDL
MODEL 8
REMARK VINA RESULT:      -7.1      2.516      5.574
REMARK  3 active torsions:
REMARK  status: ('A' for Active; 'I' for Inactive)
REMARK    1  A    between atoms: C_9  and  C_10 
REMARK    2  A    between atoms: C_16  and  C_17 
REMARK       I    between atoms: C_17  and  N_18 
REMARK    3  A    between atoms: N_18  and  C_19 
ROOT
HETATM    1  C   UNL     1      42.984 -13.141   4.321  1.00  0.00     0.070 C 
HETATM    2  C   UNL     1      42.942 -14.553   4.853  1.00  0.00     0.037 C 
HETATM    3  N   UNL     1      43.573 -14.751   6.078  1.00  0.00    -0.191 N 
HETATM    4  C   UNL     1      43.411 -15.873   6.810  1.00  0.00     0.735 A 
HETATM    5  N   UNL     1      42.736 -16.930   6.269  1.00  0.00    -0.092 N 
HETATM    6  N   UNL     1      42.623 -17.920   7.167  1.00  0.00     0.012 NA
HETATM    7  N   UNL     1      43.266 -17.468   8.240  1.00  0.00     0.033 NA
HETATM    8  N   UNL     1      43.761 -16.194   8.031  1.00  0.00     0.030 NA
HETATM    9  C   UNL     1      42.191 -16.961   4.915  1.00  0.00     0.199 C 
HETATM   10  C   UNL     1      42.287 -15.584   4.262  1.00  0.00     0.062 C 
HETATM   11  H   UNL     1      43.981 -13.936   6.534  1.00  0.00     0.184 HD
ENDROOT
BRANCH  10  12
HETATM   12  C   UNL     1      41.499 -15.458   3.009  1.00  0.00     0.256 C 
HETATM   13  N   UNL     1      42.260 -15.189   1.895  1.00  0.00    -0.322 N 
HETATM   14  H   UNL     1      43.266 -15.151   2.011  1.00  0.00     0.169 HD
HETATM   15  O   UNL     1      40.292 -15.654   3.050  1.00  0.00    -0.267 OA
BRANCH  13  16
HETATM   16  C   UNL     1      41.777 -14.948   0.590  1.00  0.00     0.052 A 
HETATM   17  C   UNL     1      41.608 -13.691   0.016  1.00  0.00     0.145 A 
HETATM   18  N   UNL     1      41.165 -13.485  -1.251  1.00  0.00    -0.271 NA
HETATM   19  C   UNL     1      40.879 -14.579  -1.984  1.00  0.00     0.116 A 
HETATM   20  C   UNL     1      41.012 -15.872  -1.509  1.00  0.00     0.021 A 
HETATM   21  C   UNL     1      41.466 -16.055  -0.203  1.00  0.00     0.032 A 
ENDBRANCH  13  16
ENDBRANCH  10  12
BRANCH   9  22
HETATM   22  C   UNL     1      42.879 -18.026   4.077  1.00  0.00    -0.011 A 
HETATM   23  C   UNL     1      44.111 -18.576   4.433  1.00  0.00     0.125 A 
HETATM   24  N   UNL     1      44.780 -19.485   3.689  1.00  0.00    -0.272 NA
HETATM   25  C   UNL     1      44.195 -19.888   2.542  1.00  0.00     0.116 A 
HETATM   26  C   UNL     1      42.979 -19.403   2.092  1.00  0.00     0.020 A 
HETATM   27  C   UNL     1      42.318 -18.455   2.868  1.00  0.00     0.012 A 
ENDBRANCH   9  22
TORSDOF 3
ENDMDL
MODEL 9
REMARK VINA RESULT:      -6.9      2.367      6.399
REMARK  3 active torsions:
REMARK  status: ('A' for Active; 'I' for Inactive)
REMARK    1  A    between atoms: C_9  and  C_10 
REMARK    2  A    between atoms: C_16  and  C_17 
REMARK       I    between atoms: C_17  and  N_18 
REMARK    3  A    between atoms: N_18  and  C_19 
ROOT
HETATM    1  C   UNL     1      39.552 -15.440   2.017  1.00  0.00     0.070 C 
HETATM    2  C   UNL     1      40.808 -16.105   2.527  1.00  0.00     0.037 C 
HETATM    3  N   UNL     1      41.025 -17.404   2.074  1.00  0.00    -0.191 N 
HETATM    4  C   UNL     1      42.206 -18.040   2.219  1.00  0.00     0.735 A 
HETATM    5  N   UNL     1      43.184 -17.464   2.980  1.00  0.00    -0.092 N 
HETATM    6  N   UNL     1      44.298 -18.211   2.950  1.00  0.00     0.012 NA
HETATM    7  N   UNL     1      43.974 -19.258   2.198  1.00  0.00     0.033 NA
HETATM    8  N   UNL     1      42.675 -19.164   1.736  1.00  0.00     0.030 NA
HETATM    9  C   UNL     1      43.042 -16.200   3.697  1.00  0.00     0.199 C 
HETATM   10  C   UNL     1      41.737 -15.505   3.312  1.00  0.00     0.062 C 
HETATM   11  H   UNL     1      40.350 -17.791   1.417  1.00  0.00     0.184 HD
ENDROOT
BRANCH  10  12
HETATM   12  C   UNL     1      41.654 -14.093   3.768  1.00  0.00     0.256 C 
HETATM   13  N   UNL     1      40.842 -13.907   4.863  1.00  0.00    -0.322 N 
HETATM   14  H   UNL     1      40.424 -14.729   5.283  1.00  0.00     0.169 HD
HETATM   15  O   UNL     1      42.330 -13.249   3.196  1.00  0.00    -0.267 OA
BRANCH  13  16
HETATM   16  C   UNL     1      40.520 -12.671   5.464  1.00  0.00     0.052 A 
HETATM   17  C   UNL     1      39.288 -12.028   5.370  1.00  0.00     0.145 A 
HETATM   18  N   UNL     1      38.993 -10.851   5.978  1.00  0.00    -0.271 NA
HETATM   19  C   UNL     1      39.967 -10.284   6.718  1.00  0.00     0.116 A 
HETATM   20  C   UNL     1      41.225 -10.839   6.876  1.00  0.00     0.021 A 
HETATM   21  C   UNL     1      41.502 -12.047   6.237  1.00  0.00     0.032 A 
ENDBRANCH  13  16
ENDBRANCH  10  12
BRANCH   9  22
HETATM   22  C   UNL     1      43.139 -16.415   5.198  1.00  0.00    -0.011 A 
HETATM   23  C   UNL     1      42.349 -17.345   5.873  1.00  0.00     0.125 A 
HETATM   24  N   UNL     1      42.368 -17.528   7.212  1.00  0.00    -0.272 NA
HETATM   25  C   UNL     1      43.225 -16.766   7.922  1.00  0.00     0.116 A 
HETATM   26  C   UNL     1      44.049 -15.809   7.355  1.00  0.00     0.020 A 
HETATM   27  C   UNL     1      43.998 -15.628   5.976  1.00  0.00     0.012 A 
ENDBRANCH   9  22
TORSDOF 3
ENDMDL
MODEL 10
REMARK VINA RESULT:      -6.9      2.001      6.908
REMARK  3 active torsions:
REMARK  status: ('A' for Active; 'I' for Inactive)
REMARK    1  A    between atoms: C_9  and  C_10 
REMARK    2  A    between atoms: C_16  and  C_17 
REMARK       I    between atoms: C_17  and  N_18 
REMARK    3  A    between atoms: N_18  and  C_19 
ROOT
HETATM    1  C   UNL     1      44.193 -16.557   6.500  1.00  0.00     0.070 C 
HETATM    2  C   UNL     1      43.590 -17.091   5.223  1.00  0.00     0.037 C 
HETATM    3  N   UNL     1      44.358 -18.035   4.546  1.00  0.00    -0.191 N 
HETATM    4  C   UNL     1      43.867 -18.794   3.545  1.00  0.00     0.735 A 
HETATM    5  N   UNL     1      42.620 -18.526   3.055  1.00  0.00    -0.092 N 
HETATM    6  N   UNL     1      42.285 -19.423   2.116  1.00  0.00     0.012 NA
HETATM    7  N   UNL     1      43.351 -20.211   2.016  1.00  0.00     0.033 NA
HETATM    8  N   UNL     1      44.344 -19.831   2.900  1.00  0.00     0.030 NA
HETATM    9  C   UNL     1      41.765 -17.435   3.515  1.00  0.00     0.199 C 
HETATM   10  C   UNL     1      42.358 -16.769   4.755  1.00  0.00     0.062 C 
HETATM   11  H   UNL     1      45.240 -18.316   4.972  1.00  0.00     0.184 HD
ENDROOT
BRANCH  10  12
HETATM   12  C   UNL     1      41.418 -15.853   5.451  1.00  0.00     0.256 C 
HETATM   13  N   UNL     1      41.560 -14.531   5.095  1.00  0.00    -0.322 N 
HETATM   14  H   UNL     1      42.238 -14.309   4.375  1.00  0.00     0.169 HD
HETATM   15  O   UNL     1      40.585 -16.329   6.209  1.00  0.00    -0.267 OA
BRANCH  13  16
HETATM   16  C   UNL     1      40.857 -13.437   5.644  1.00  0.00     0.052 A 
HETATM   17  C   UNL     1      39.471 -13.303   5.665  1.00  0.00     0.145 A 
HETATM   18  N   UNL     1      38.816 -12.252   6.222  1.00  0.00    -0.271 NA
HETATM   19  C   UNL     1      39.572 -11.290   6.787  1.00  0.00     0.116 A 
HETATM   20  C   UNL     1      40.955 -11.327   6.820  1.00  0.00     0.021 A 
HETATM   21  C   UNL     1      41.602 -12.416   6.237  1.00  0.00     0.032 A 
ENDBRANCH  13  16
ENDBRANCH  10  12
BRANCH   9  22
HETATM   22  C   UNL     1      41.524 -16.429   2.401  1.00  0.00    -0.011 A 
HETATM   23  C   UNL     1      42.567 -15.751   1.769  1.00  0.00     0.125 A 
HETATM   24  N   UNL     1      42.392 -14.812   0.813  1.00  0.00    -0.272 NA
HETATM   25  C   UNL     1      41.122 -14.540   0.447  1.00  0.00     0.116 A 
HETATM   26  C   UNL     1      40.015 -15.149   1.012  1.00  0.00     0.020 A 
HETATM   27  C   UNL     1      40.222 -16.100   2.007  1.00  0.00     0.012 A 
ENDBRANCH   9  22
TORSDOF 3
ENDMDL
