MODEL 1
REMARK VINA RESULT:      -9.2      0.000      0.000
REMARK  8 active torsions:
REMARK  status: ('A' for Active; 'I' for Inactive)
REMARK       I    between atoms: C_2  and  N_3 
REMARK    1  A    between atoms: N_3  and  C_4 
REMARK    2  A    between atoms: C_6  and  N_7 
REMARK       I    between atoms: N_7  and  C_8 
REMARK    3  A    between atoms: C_8  and  C_9 
REMARK       I    between atoms: C_9  and  N_10 
REMARK    4  A    between atoms: N_10  and  C_11 
REMARK    5  A    between atoms: C_11  and  C_12 
REMARK    6  A    between atoms: C_12  and  S_13 
REMARK    7  A    between atoms: S_13  and  C_14 
REMARK    8  A    between atoms: C_16  and  C_17 
ROOT
HETATM    1  C   UNL     1      45.039 -12.758   8.423  1.00  0.00     0.309 C 
HETATM    2  N   UNL     1      44.158 -13.389   7.577  1.00  0.00    -0.352 N 
HETATM    3  O   UNL     1      46.221 -12.534   8.206  1.00  0.00    -0.262 OA
HETATM    4  H   UNL     1      43.237 -13.586   7.965  1.00  0.00     0.162 HD
ENDROOT
BRANCH   1   5
HETATM    5  C   UNL     1      44.404 -12.323   9.763  1.00  0.00     0.313 C 
HETATM    6  N   UNL     1      43.898 -11.042   9.701  1.00  0.00    -0.319 N 
HETATM    7  H   UNL     1      43.985 -10.604   8.787  1.00  0.00     0.169 HD
HETATM    8  O   UNL     1      44.400 -13.120  10.689  1.00  0.00    -0.262 OA
BRANCH   6   9
HETATM    9  C   UNL     1      43.290 -10.302  10.730  1.00  0.00     0.037 A 
HETATM   10  C   UNL     1      42.081  -9.608  10.584  1.00  0.00     0.059 A 
HETATM   11  C   UNL     1      41.529  -8.900  11.659  1.00  0.00     0.036 A 
HETATM   12  C   UNL     1      42.211  -8.877  12.882  1.00  0.00     0.029 A 
HETATM   13  C   UNL     1      43.413  -9.569  13.037  1.00  0.00     0.004 A 
HETATM   14  C   UNL     1      43.945 -10.283  11.966  1.00  0.00     0.029 A 
BRANCH  11  15
HETATM   15  N   UNL     1      40.311  -8.187  11.600  1.00  0.00    -0.327 N 
HETATM   16  C   UNL     1      39.039  -8.664  11.859  1.00  0.00     0.218 C 
HETATM   17  C   UNL     1      37.966  -7.620  11.662  1.00  0.00     0.117 C 
HETATM   18  O   UNL     1      38.735  -9.791  12.234  1.00  0.00    -0.274 OA
HETATM   19  H   UNL     1      40.390  -7.203  11.380  1.00  0.00     0.169 HD
ENDBRANCH  11  15
ENDBRANCH   6   9
ENDBRANCH   1   5
BRANCH   2  20
HETATM   20  C   UNL     1      44.570 -14.049   6.357  1.00  0.00     0.133 C 
BRANCH  20  21
HETATM   21  C   UNL     1      43.458 -14.885   5.719  1.00  0.00     0.102 C 
BRANCH  21  22
HETATM   22  S   UNL     1      43.211 -14.413   3.972  1.00  0.00    -0.090 SA
BRANCH  22  23
HETATM   23  C   UNL     1      43.225 -15.963   3.224  1.00  0.00     0.166 A 
HETATM   24  N   UNL     1      43.647 -17.095   3.726  1.00  0.00    -0.223 NA
HETATM   25  C   UNL     1      43.473 -18.025   2.718  1.00  0.00     0.085 A 
HETATM   26  C   UNL     1      42.926 -17.421   1.604  1.00  0.00     0.122 A 
HETATM   27  N   UNL     1      42.774 -16.105   1.947  1.00  0.00    -0.343 N 
HETATM   28  H   UNL     1      42.403 -15.359   1.376  1.00  0.00     0.167 HD
BRANCH  25  29
HETATM   29  C   UNL     1      43.834 -19.429   2.862  1.00  0.00    -0.006 A 
HETATM   30  C   UNL     1      43.523 -20.329   1.832  1.00  0.00     0.014 A 
HETATM   31  C   UNL     1      43.849 -21.684   1.937  1.00  0.00     0.001 A 
HETATM   32  C   UNL     1      44.493 -22.157   3.078  1.00  0.00     0.000 A 
HETATM   33  C   UNL     1      44.808 -21.278   4.111  1.00  0.00     0.001 A 
HETATM   34  C   UNL     1      44.482 -19.922   4.004  1.00  0.00     0.014 A 
ENDBRANCH  25  29
ENDBRANCH  22  23
ENDBRANCH  21  22
ENDBRANCH  20  21
ENDBRANCH   2  20
TORSDOF 8
ENDMDL
MODEL 2
REMARK VINA RESULT:      -9.1      2.427      3.961
REMARK  8 active torsions:
REMARK  status: ('A' for Active; 'I' for Inactive)
REMARK       I    between atoms: C_2  and  N_3 
REMARK    1  A    between atoms: N_3  and  C_4 
REMARK    2  A    between atoms: C_6  and  N_7 
REMARK       I    between atoms: N_7  and  C_8 
REMARK    3  A    between atoms: C_8  and  C_9 
REMARK       I    between atoms: C_9  and  N_10 
REMARK    4  A    between atoms: N_10  and  C_11 
REMARK    5  A    between atoms: C_11  and  C_12 
REMARK    6  A    between atoms: C_12  and  S_13 
REMARK    7  A    between atoms: S_13  and  C_14 
REMARK    8  A    between atoms: C_16  and  C_17 
ROOT
HETATM    1  C   UNL     1      42.566 -16.237   6.310  1.00  0.00     0.309 C 
HETATM    2  N   UNL     1      42.038 -15.380   5.374  1.00  0.00    -0.352 N 
HETATM    3  O   UNL     1      42.359 -17.439   6.394  1.00  0.00    -0.262 OA
HETATM    4  H   UNL     1      42.234 -14.391   5.519  1.00  0.00     0.162 HD
ENDROOT
BRANCH   1   5
HETATM    5  C   UNL     1      43.499 -15.541   7.326  1.00  0.00     0.313 C 
HETATM    6  N   UNL     1      43.694 -14.211   7.020  1.00  0.00    -0.319 N 
HETATM    7  H   UNL     1      43.170 -13.890   6.209  1.00  0.00     0.169 HD
HETATM    8  O   UNL     1      43.936 -16.200   8.258  1.00  0.00    -0.262 OA
BRANCH   6   9
HETATM    9  C   UNL     1      44.507 -13.280   7.689  1.00  0.00     0.037 A 
HETATM   10  C   UNL     1      44.053 -12.443   8.717  1.00  0.00     0.059 A 
HETATM   11  C   UNL     1      44.925 -11.546   9.348  1.00  0.00     0.036 A 
HETATM   12  C   UNL     1      46.259 -11.482   8.924  1.00  0.00     0.029 A 
HETATM   13  C   UNL     1      46.720 -12.315   7.904  1.00  0.00     0.004 A 
HETATM   14  C   UNL     1      45.848 -13.214   7.295  1.00  0.00     0.029 A 
BRANCH  11  15
HETATM   15  N   UNL     1      44.552 -10.679  10.398  1.00  0.00    -0.327 N 
HETATM   16  C   UNL     1      43.963 -11.016  11.603  1.00  0.00     0.218 C 
HETATM   17  C   UNL     1      43.674  -9.817  12.474  1.00  0.00     0.117 C 
HETATM   18  O   UNL     1      43.693 -12.143  12.004  1.00  0.00    -0.274 OA
HETATM   19  H   UNL     1      44.782  -9.704  10.263  1.00  0.00     0.169 HD
ENDBRANCH  11  15
ENDBRANCH   6   9
ENDBRANCH   1   5
BRANCH   2  20
HETATM   20  C   UNL     1      40.996 -15.769   4.447  1.00  0.00     0.133 C 
BRANCH  20  21
HETATM   21  C   UNL     1      41.015 -14.961   3.146  1.00  0.00     0.102 C 
BRANCH  21  22
HETATM   22  S   UNL     1      42.726 -14.731   2.550  1.00  0.00    -0.090 SA
BRANCH  22  23
HETATM   23  C   UNL     1      43.155 -16.358   2.193  1.00  0.00     0.166 A 
HETATM   24  N   UNL     1      43.395 -17.331   3.034  1.00  0.00    -0.223 NA
HETATM   25  C   UNL     1      43.726 -18.417   2.248  1.00  0.00     0.085 A 
HETATM   26  C   UNL     1      43.669 -18.072   0.912  1.00  0.00     0.122 A 
HETATM   27  N   UNL     1      43.302 -16.754   0.898  1.00  0.00    -0.343 N 
HETATM   28  H   UNL     1      43.162 -16.162   0.091  1.00  0.00     0.167 HD
BRANCH  25  29
HETATM   29  C   UNL     1      44.080 -19.719   2.799  1.00  0.00    -0.006 A 
HETATM   30  C   UNL     1      43.961 -20.862   1.994  1.00  0.00     0.014 A 
HETATM   31  C   UNL     1      44.287 -22.128   2.491  1.00  0.00     0.001 A 
HETATM   32  C   UNL     1      44.736 -22.265   3.802  1.00  0.00     0.000 A 
HETATM   33  C   UNL     1      44.858 -21.141   4.615  1.00  0.00     0.001 A 
HETATM   34  C   UNL     1      44.533 -19.875   4.116  1.00  0.00     0.014 A 
ENDBRANCH  25  29
ENDBRANCH  22  23
ENDBRANCH  21  22
ENDBRANCH  20  21
ENDBRANCH   2  20
TORSDOF 8
ENDMDL
MODEL 3
REMARK VINA RESULT:      -9.1      2.601      3.343
REMARK  8 active torsions:
REMARK  status: ('A' for Active; 'I' for Inactive)
REMARK       I    between atoms: C_2  and  N_3 
REMARK    1  A    between atoms: N_3  and  C_4 
REMARK    2  A    between atoms: C_6  and  N_7 
REMARK       I    between atoms: N_7  and  C_8 
REMARK    3  A    between atoms: C_8  and  C_9 
REMARK       I    between atoms: C_9  and  N_10 
REMARK    4  A    between atoms: N_10  and  C_11 
REMARK    5  A    between atoms: C_11  and  C_12 
REMARK    6  A    between atoms: C_12  and  S_13 
REMARK    7  A    between atoms: S_13  and  C_14 
REMARK    8  A    between atoms: C_16  and  C_17 
ROOT
HETATM    1  C   UNL     1      40.753 -11.293   6.187  1.00  0.00     0.309 C 
HETATM    2  N   UNL     1      40.624 -12.651   6.359  1.00  0.00    -0.352 N 
HETATM    3  O   UNL     1      40.160 -10.604   5.369  1.00  0.00    -0.262 OA
HETATM    4  H   UNL     1      41.274 -13.077   7.017  1.00  0.00     0.162 HD
ENDROOT
BRANCH   1   5
HETATM    5  C   UNL     1      41.767 -10.642   7.155  1.00  0.00     0.313 C 
HETATM    6  N   UNL     1      42.352 -11.571   7.988  1.00  0.00    -0.319 N 
HETATM    7  H   UNL     1      42.061 -12.530   7.813  1.00  0.00     0.169 HD
HETATM    8  O   UNL     1      41.949  -9.436   7.079  1.00  0.00    -0.262 OA
BRANCH   6   9
HETATM    9  C   UNL     1      43.283 -11.343   9.017  1.00  0.00     0.037 A 
HETATM   10  C   UNL     1      42.990 -10.643  10.195  1.00  0.00     0.059 A 
HETATM   11  C   UNL     1      43.967 -10.465  11.183  1.00  0.00     0.036 A 
HETATM   12  C   UNL     1      45.252 -10.981  10.971  1.00  0.00     0.029 A 
HETATM   13  C   UNL     1      45.551 -11.682   9.802  1.00  0.00     0.004 A 
HETATM   14  C   UNL     1      44.567 -11.867   8.834  1.00  0.00     0.029 A 
BRANCH  11  15
HETATM   15  N   UNL     1      43.751  -9.785  12.402  1.00  0.00    -0.327 N 
HETATM   16  C   UNL     1      42.889 -10.138  13.425  1.00  0.00     0.218 C 
HETATM   17  C   UNL     1      42.897  -9.152  14.568  1.00  0.00     0.117 C 
HETATM   18  O   UNL     1      42.180 -11.136  13.482  1.00  0.00    -0.274 OA
HETATM   19  H   UNL     1      44.326  -8.968  12.555  1.00  0.00     0.169 HD
ENDBRANCH  11  15
ENDBRANCH   6   9
ENDBRANCH   1   5
BRANCH   2  20
HETATM   20  C   UNL     1      39.882 -13.495   5.447  1.00  0.00     0.133 C 
BRANCH  20  21
HETATM   21  C   UNL     1      40.539 -14.859   5.219  1.00  0.00     0.102 C 
BRANCH  21  22
HETATM   22  S   UNL     1      42.342 -14.764   5.492  1.00  0.00    -0.090 SA
BRANCH  22  23
HETATM   23  C   UNL     1      42.890 -15.956   4.377  1.00  0.00     0.166 A 
HETATM   24  N   UNL     1      43.026 -17.242   4.575  1.00  0.00    -0.223 NA
HETATM   25  C   UNL     1      43.527 -17.740   3.388  1.00  0.00     0.085 A 
HETATM   26  C   UNL     1      43.679 -16.720   2.471  1.00  0.00     0.122 A 
HETATM   27  N   UNL     1      43.266 -15.588   3.121  1.00  0.00    -0.343 N 
HETATM   28  H   UNL     1      43.239 -14.645   2.759  1.00  0.00     0.167 HD
BRANCH  25  29
HETATM   29  C   UNL     1      43.837 -19.150   3.186  1.00  0.00    -0.006 A 
HETATM   30  C   UNL     1      43.433 -19.780   2.000  1.00  0.00     0.014 A 
HETATM   31  C   UNL     1      43.709 -21.132   1.774  1.00  0.00     0.001 A 
HETATM   32  C   UNL     1      44.392 -21.871   2.735  1.00  0.00     0.000 A 
HETATM   33  C   UNL     1      44.799 -21.262   3.920  1.00  0.00     0.001 A 
HETATM   34  C   UNL     1      44.524 -19.909   4.144  1.00  0.00     0.014 A 
ENDBRANCH  25  29
ENDBRANCH  22  23
ENDBRANCH  21  22
ENDBRANCH  20  21
ENDBRANCH   2  20
TORSDOF 8
ENDMDL
MODEL 4
REMARK VINA RESULT:      -9.1      4.410      6.565
REMARK  8 active torsions:
REMARK  status: ('A' for Active; 'I' for Inactive)
REMARK       I    between atoms: C_2  and  N_3 
REMARK    1  A    between atoms: N_3  and  C_4 
REMARK    2  A    between atoms: C_6  and  N_7 
REMARK       I    between atoms: N_7  and  C_8 
REMARK    3  A    between atoms: C_8  and  C_9 
REMARK       I    between atoms: C_9  and  N_10 
REMARK    4  A    between atoms: N_10  and  C_11 
REMARK    5  A    between atoms: C_11  and  C_12 
REMARK    6  A    between atoms: C_12  and  S_13 
REMARK    7  A    between atoms: S_13  and  C_14 
REMARK    8  A    between atoms: C_16  and  C_17 
ROOT
HETATM    1  C   UNL     1      39.647 -14.344   2.558  1.00  0.00     0.309 C 
HETATM    2  N   UNL     1      40.215 -13.412   1.723  1.00  0.00    -0.352 N 
HETATM    3  O   UNL     1      38.750 -15.124   2.273  1.00  0.00    -0.262 OA
HETATM    4  H   UNL     1      40.878 -12.773   2.160  1.00  0.00     0.162 HD
ENDROOT
BRANCH   1   5
HETATM    5  C   UNL     1      40.248 -14.345   3.982  1.00  0.00     0.313 C 
HETATM    6  N   UNL     1      41.478 -14.966   4.020  1.00  0.00    -0.319 N 
HETATM    7  H   UNL     1      41.812 -15.285   3.114  1.00  0.00     0.169 HD
HETATM    8  O   UNL     1      39.614 -13.811   4.879  1.00  0.00    -0.262 OA
BRANCH   6   9
HETATM    9  C   UNL     1      42.298 -15.191   5.140  1.00  0.00     0.037 A 
HETATM   10  C   UNL     1      43.400 -14.392   5.475  1.00  0.00     0.059 A 
HETATM   11  C   UNL     1      44.165 -14.670   6.615  1.00  0.00     0.036 A 
HETATM   12  C   UNL     1      43.827 -15.773   7.410  1.00  0.00     0.029 A 
HETATM   13  C   UNL     1      42.729 -16.571   7.085  1.00  0.00     0.004 A 
HETATM   14  C   UNL     1      41.965 -16.275   5.958  1.00  0.00     0.029 A 
BRANCH  11  15
HETATM   15  N   UNL     1      45.280 -13.909   7.030  1.00  0.00    -0.327 N 
HETATM   16  C   UNL     1      45.311 -12.904   7.979  1.00  0.00     0.218 C 
HETATM   17  C   UNL     1      46.679 -12.286   8.139  1.00  0.00     0.117 C 
HETATM   18  O   UNL     1      44.379 -12.515   8.673  1.00  0.00    -0.274 OA
HETATM   19  H   UNL     1      46.164 -14.161   6.607  1.00  0.00     0.169 HD
ENDBRANCH  11  15
ENDBRANCH   6   9
ENDBRANCH   1   5
BRANCH   2  20
HETATM   20  C   UNL     1      39.687 -13.100   0.412  1.00  0.00     0.133 C 
BRANCH  20  21
HETATM   21  C   UNL     1      39.952 -14.199  -0.621  1.00  0.00     0.102 C 
BRANCH  21  22
HETATM   22  S   UNL     1      41.731 -14.603  -0.696  1.00  0.00    -0.090 SA
BRANCH  22  23
HETATM   23  C   UNL     1      41.774 -16.013   0.289  1.00  0.00     0.166 A 
HETATM   24  N   UNL     1      42.797 -16.515   0.933  1.00  0.00    -0.223 NA
HETATM   25  C   UNL     1      42.317 -17.660   1.539  1.00  0.00     0.085 A 
HETATM   26  C   UNL     1      40.977 -17.825   1.250  1.00  0.00     0.122 A 
HETATM   27  N   UNL     1      40.649 -16.763   0.451  1.00  0.00    -0.343 N 
HETATM   28  H   UNL     1      39.749 -16.554   0.043  1.00  0.00     0.167 HD
BRANCH  25  29
HETATM   29  C   UNL     1      43.148 -18.535   2.356  1.00  0.00    -0.006 A 
HETATM   30  C   UNL     1      43.615 -19.742   1.815  1.00  0.00     0.014 A 
HETATM   31  C   UNL     1      44.409 -20.609   2.571  1.00  0.00     0.001 A 
HETATM   32  C   UNL     1      44.748 -20.278   3.880  1.00  0.00     0.000 A 
HETATM   33  C   UNL     1      44.292 -19.084   4.433  1.00  0.00     0.001 A 
HETATM   34  C   UNL     1      43.497 -18.217   3.675  1.00  0.00     0.014 A 
ENDBRANCH  25  29
ENDBRANCH  22  23
ENDBRANCH  21  22
ENDBRANCH  20  21
ENDBRANCH   2  20
TORSDOF 8
ENDMDL
MODEL 5
REMARK VINA RESULT:      -8.9      2.810      3.723
REMARK  8 active torsions:
REMARK  status: ('A' for Active; 'I' for Inactive)
REMARK       I    between atoms: C_2  and  N_3 
REMARK    1  A    between atoms: N_3  and  C_4 
REMARK    2  A    between atoms: C_6  and  N_7 
REMARK       I    between atoms: N_7  and  C_8 
REMARK    3  A    between atoms: C_8  and  C_9 
REMARK       I    between atoms: C_9  and  N_10 
REMARK    4  A    between atoms: N_10  and  C_11 
REMARK    5  A    between atoms: C_11  and  C_12 
REMARK    6  A    between atoms: C_12  and  S_13 
REMARK    7  A    between atoms: S_13  and  C_14 
REMARK    8  A    between atoms: C_16  and  C_17 
ROOT
HETATM    1  C   UNL     1      39.916 -12.689   6.032  1.00  0.00     0.309 C 
HETATM    2  N   UNL     1      40.240 -13.901   6.593  1.00  0.00    -0.352 N 
HETATM    3  O   UNL     1      39.543 -12.496   4.883  1.00  0.00    -0.262 OA
HETATM    4  H   UNL     1      40.633 -13.863   7.532  1.00  0.00     0.162 HD
ENDROOT
BRANCH   1   5
HETATM    5  C   UNL     1      40.063 -11.499   7.006  1.00  0.00     0.313 C 
HETATM    6  N   UNL     1      39.605 -11.807   8.269  1.00  0.00    -0.319 N 
HETATM    7  H   UNL     1      39.283 -12.766   8.372  1.00  0.00     0.169 HD
HETATM    8  O   UNL     1      40.559 -10.464   6.586  1.00  0.00    -0.262 OA
BRANCH   6   9
HETATM    9  C   UNL     1      39.542 -10.967   9.395  1.00  0.00     0.037 A 
HETATM   10  C   UNL     1      40.503 -10.956  10.415  1.00  0.00     0.059 A 
HETATM   11  C   UNL     1      40.380 -10.082  11.503  1.00  0.00     0.036 A 
HETATM   12  C   UNL     1      39.271  -9.228  11.569  1.00  0.00     0.029 A 
HETATM   13  C   UNL     1      38.313  -9.231  10.556  1.00  0.00     0.004 A 
HETATM   14  C   UNL     1      38.453 -10.093   9.470  1.00  0.00     0.029 A 
BRANCH  11  15
HETATM   15  N   UNL     1      41.309  -9.998  12.564  1.00  0.00    -0.327 N 
HETATM   16  C   UNL     1      42.459  -9.233  12.622  1.00  0.00     0.218 C 
HETATM   17  C   UNL     1      43.229  -9.422  13.907  1.00  0.00     0.117 C 
HETATM   18  O   UNL     1      42.866  -8.446  11.774  1.00  0.00    -0.274 OA
HETATM   19  H   UNL     1      41.077 -10.533  13.391  1.00  0.00     0.169 HD
ENDBRANCH  11  15
ENDBRANCH   6   9
ENDBRANCH   1   5
BRANCH   2  20
HETATM   20  C   UNL     1      40.360 -15.121   5.822  1.00  0.00     0.133 C 
BRANCH  20  21
HETATM   21  C   UNL     1      41.812 -15.562   5.616  1.00  0.00     0.102 C 
BRANCH  21  22
HETATM   22  S   UNL     1      42.512 -14.807   4.107  1.00  0.00    -0.090 SA
BRANCH  22  23
HETATM   23  C   UNL     1      43.129 -16.205   3.315  1.00  0.00     0.166 A 
HETATM   24  N   UNL     1      43.140 -17.438   3.752  1.00  0.00    -0.223 NA
HETATM   25  C   UNL     1      43.772 -18.167   2.762  1.00  0.00     0.085 A 
HETATM   26  C   UNL     1      44.131 -17.338   1.717  1.00  0.00     0.122 A 
HETATM   27  N   UNL     1      43.711 -16.090   2.089  1.00  0.00    -0.343 N 
HETATM   28  H   UNL     1      43.806 -15.228   1.571  1.00  0.00     0.167 HD
BRANCH  25  29
HETATM   29  C   UNL     1      44.005 -19.602   2.858  1.00  0.00    -0.006 A 
HETATM   30  C   UNL     1      44.601 -20.127   4.014  1.00  0.00     0.014 A 
HETATM   31  C   UNL     1      44.845 -21.498   4.138  1.00  0.00     0.001 A 
HETATM   32  C   UNL     1      44.495 -22.362   3.104  1.00  0.00     0.000 A 
HETATM   33  C   UNL     1      43.904 -21.858   1.948  1.00  0.00     0.001 A 
HETATM   34  C   UNL     1      43.660 -20.486   1.826  1.00  0.00     0.014 A 
ENDBRANCH  25  29
ENDBRANCH  22  23
ENDBRANCH  21  22
ENDBRANCH  20  21
ENDBRANCH   2  20
TORSDOF 8
ENDMDL
MODEL 6
REMARK VINA RESULT:      -8.8      6.591     10.251
REMARK  8 active torsions:
REMARK  status: ('A' for Active; 'I' for Inactive)
REMARK       I    between atoms: C_2  and  N_3 
REMARK    1  A    between atoms: N_3  and  C_4 
REMARK    2  A    between atoms: C_6  and  N_7 
REMARK       I    between atoms: N_7  and  C_8 
REMARK    3  A    between atoms: C_8  and  C_9 
REMARK       I    between atoms: C_9  and  N_10 
REMARK    4  A    between atoms: N_10  and  C_11 
REMARK    5  A    between atoms: C_11  and  C_12 
REMARK    6  A    between atoms: C_12  and  S_13 
REMARK    7  A    between atoms: S_13  and  C_14 
REMARK    8  A    between atoms: C_16  and  C_17 
ROOT
HETATM    1  C   UNL     1      40.021 -15.673   2.246  1.00  0.00     0.309 C 
HETATM    2  N   UNL     1      40.170 -15.112   3.492  1.00  0.00    -0.352 N 
HETATM    3  O   UNL     1      40.171 -16.851   1.956  1.00  0.00    -0.262 OA
HETATM    4  H   UNL     1      40.110 -14.096   3.530  1.00  0.00     0.162 HD
ENDROOT
BRANCH   1   5
HETATM    5  C   UNL     1      39.629 -14.652   1.154  1.00  0.00     0.313 C 
HETATM    6  N   UNL     1      40.139 -14.997  -0.080  1.00  0.00    -0.319 N 
HETATM    7  H   UNL     1      40.651 -15.875  -0.088  1.00  0.00     0.169 HD
HETATM    8  O   UNL     1      38.931 -13.701   1.473  1.00  0.00    -0.262 OA
BRANCH   6   9
HETATM    9  C   UNL     1      40.024 -14.290  -1.290  1.00  0.00     0.037 A 
HETATM   10  C   UNL     1      38.805 -14.034  -1.932  1.00  0.00     0.059 A 
HETATM   11  C   UNL     1      38.767 -13.313  -3.133  1.00  0.00     0.036 A 
HETATM   12  C   UNL     1      39.969 -12.865  -3.696  1.00  0.00     0.029 A 
HETATM   13  C   UNL     1      41.185 -13.112  -3.061  1.00  0.00     0.004 A 
HETATM   14  C   UNL     1      41.210 -13.817  -1.859  1.00  0.00     0.029 A 
BRANCH  11  15
HETATM   15  N   UNL     1      37.582 -13.000  -3.835  1.00  0.00    -0.327 N 
HETATM   16  C   UNL     1      36.691 -13.878  -4.424  1.00  0.00     0.218 C 
HETATM   17  C   UNL     1      35.548 -13.180  -5.120  1.00  0.00     0.117 C 
HETATM   18  O   UNL     1      36.741 -15.103  -4.407  1.00  0.00    -0.274 OA
HETATM   19  H   UNL     1      37.343 -12.018  -3.874  1.00  0.00     0.169 HD
ENDBRANCH  11  15
ENDBRANCH   6   9
ENDBRANCH   1   5
BRANCH   2  20
HETATM   20  C   UNL     1      40.716 -15.834   4.622  1.00  0.00     0.133 C 
BRANCH  20  21
HETATM   21  C   UNL     1      41.995 -15.204   5.178  1.00  0.00     0.102 C 
BRANCH  21  22
HETATM   22  S   UNL     1      43.132 -14.742   3.825  1.00  0.00    -0.090 SA
BRANCH  22  23
HETATM   23  C   UNL     1      43.389 -16.279   3.094  1.00  0.00     0.166 A 
HETATM   24  N   UNL     1      43.613 -17.424   3.685  1.00  0.00    -0.223 NA
HETATM   25  C   UNL     1      43.783 -18.334   2.659  1.00  0.00     0.085 A 
HETATM   26  C   UNL     1      43.645 -17.705   1.438  1.00  0.00     0.122 A 
HETATM   27  N   UNL     1      43.392 -16.393   1.737  1.00  0.00    -0.343 N 
HETATM   28  H   UNL     1      43.237 -15.633   1.090  1.00  0.00     0.167 HD
BRANCH  25  29
HETATM   29  C   UNL     1      44.069 -19.744   2.887  1.00  0.00    -0.006 A 
HETATM   30  C   UNL     1      43.805 -20.673   1.870  1.00  0.00     0.014 A 
HETATM   31  C   UNL     1      44.061 -22.035   2.055  1.00  0.00     0.001 A 
HETATM   32  C   UNL     1      44.587 -22.485   3.263  1.00  0.00     0.000 A 
HETATM   33  C   UNL     1      44.854 -21.576   4.285  1.00  0.00     0.001 A 
HETATM   34  C   UNL     1      44.598 -20.214   4.098  1.00  0.00     0.014 A 
ENDBRANCH  25  29
ENDBRANCH  22  23
ENDBRANCH  21  22
ENDBRANCH  20  21
ENDBRANCH   2  20
TORSDOF 8
ENDMDL
MODEL 7
REMARK VINA RESULT:      -8.8      3.498      8.893
REMARK  8 active torsions:
REMARK  status: ('A' for Active; 'I' for Inactive)
REMARK       I    between atoms: C_2  and  N_3 
REMARK    1  A    between atoms: N_3  and  C_4 
REMARK    2  A    between atoms: C_6  and  N_7 
REMARK       I    between atoms: N_7  and  C_8 
REMARK    3  A    between atoms: C_8  and  C_9 
REMARK       I    between atoms: C_9  and  N_10 
REMARK    4  A    between atoms: N_10  and  C_11 
REMARK    5  A    between atoms: C_11  and  C_12 
REMARK    6  A    between atoms: C_12  and  S_13 
REMARK    7  A    between atoms: S_13  and  C_14 
REMARK    8  A    between atoms: C_16  and  C_17 
ROOT
HETATM    1  C   UNL     1      44.990 -12.986   8.114  1.00  0.00     0.309 C 
HETATM    2  N   UNL     1      43.900 -12.506   8.801  1.00  0.00    -0.352 N 
HETATM    3  O   UNL     1      46.161 -12.694   8.313  1.00  0.00    -0.262 OA
HETATM    4  H   UNL     1      42.990 -12.775   8.431  1.00  0.00     0.162 HD
ENDROOT
BRANCH   1   5
HETATM    5  C   UNL     1      44.622 -13.984   6.993  1.00  0.00     0.313 C 
HETATM    6  N   UNL     1      43.852 -15.026   7.464  1.00  0.00    -0.319 N 
HETATM    7  H   UNL     1      43.616 -14.956   8.450  1.00  0.00     0.169 HD
HETATM    8  O   UNL     1      45.017 -13.753   5.860  1.00  0.00    -0.262 OA
BRANCH   6   9
HETATM    9  C   UNL     1      43.368 -16.135   6.748  1.00  0.00     0.037 A 
HETATM   10  C   UNL     1      43.998 -17.387   6.728  1.00  0.00     0.059 A 
HETATM   11  C   UNL     1      43.451 -18.451   6.000  1.00  0.00     0.036 A 
HETATM   12  C   UNL     1      42.272 -18.243   5.272  1.00  0.00     0.029 A 
HETATM   13  C   UNL     1      41.638 -17.001   5.289  1.00  0.00     0.004 A 
HETATM   14  C   UNL     1      42.181 -15.954   6.030  1.00  0.00     0.029 A 
BRANCH  11  15
HETATM   15  N   UNL     1      44.013 -19.746   5.939  1.00  0.00    -0.327 N 
HETATM   16  C   UNL     1      44.562 -20.378   4.838  1.00  0.00     0.218 C 
HETATM   17  C   UNL     1      45.038 -21.778   5.140  1.00  0.00     0.117 C 
HETATM   18  O   UNL     1      44.703 -19.912   3.713  1.00  0.00    -0.274 OA
HETATM   19  H   UNL     1      44.051 -20.247   6.816  1.00  0.00     0.169 HD
ENDBRANCH  11  15
ENDBRANCH   6   9
ENDBRANCH   1   5
BRANCH   2  20
HETATM   20  C   UNL     1      43.985 -11.423   9.759  1.00  0.00     0.133 C 
BRANCH  20  21
HETATM   21  C   UNL     1      42.624 -11.018  10.331  1.00  0.00     0.102 C 
BRANCH  21  22
HETATM   22  S   UNL     1      41.801  -9.800   9.248  1.00  0.00    -0.090 SA
BRANCH  22  23
HETATM   23  C   UNL     1      41.106 -10.845   8.071  1.00  0.00     0.166 A 
HETATM   24  N   UNL     1      41.649 -11.285   6.964  1.00  0.00    -0.223 NA
HETATM   25  C   UNL     1      40.673 -12.057   6.364  1.00  0.00     0.085 A 
HETATM   26  C   UNL     1      39.534 -12.076   7.146  1.00  0.00     0.122 A 
HETATM   27  N   UNL     1      39.831 -11.297   8.231  1.00  0.00    -0.343 N 
HETATM   28  H   UNL     1      39.233 -11.080   9.016  1.00  0.00     0.167 HD
BRANCH  25  29
HETATM   29  C   UNL     1      40.866 -12.732   5.087  1.00  0.00    -0.006 A 
HETATM   30  C   UNL     1      42.075 -12.563   4.396  1.00  0.00     0.014 A 
HETATM   31  C   UNL     1      42.294 -13.191   3.166  1.00  0.00     0.001 A 
HETATM   32  C   UNL     1      41.303 -13.995   2.611  1.00  0.00     0.000 A 
HETATM   33  C   UNL     1      40.095 -14.172   3.282  1.00  0.00     0.001 A 
HETATM   34  C   UNL     1      39.878 -13.544   4.514  1.00  0.00     0.014 A 
ENDBRANCH  25  29
ENDBRANCH  22  23
ENDBRANCH  21  22
ENDBRANCH  20  21
ENDBRANCH   2  20
TORSDOF 8
ENDMDL
MODEL 8
REMARK VINA RESULT:      -8.6      3.424     11.349
REMARK  8 active torsions:
REMARK  status: ('A' for Active; 'I' for Inactive)
REMARK       I    between atoms: C_2  and  N_3 
REMARK    1  A    between atoms: N_3  and  C_4 
REMARK    2  A    between atoms: C_6  and  N_7 
REMARK       I    between atoms: N_7  and  C_8 
REMARK    3  A    between atoms: C_8  and  C_9 
REMARK       I    between atoms: C_9  and  N_10 
REMARK    4  A    between atoms: N_10  and  C_11 
REMARK    5  A    between atoms: C_11  and  C_12 
REMARK    6  A    between atoms: C_12  and  S_13 
REMARK    7  A    between atoms: S_13  and  C_14 
REMARK    8  A    between atoms: C_16  and  C_17 
ROOT
HETATM    1  C   UNL     1      40.505 -14.040   5.327  1.00  0.00     0.309 C 
HETATM    2  N   UNL     1      40.609 -13.153   6.372  1.00  0.00    -0.352 N 
HETATM    3  O   UNL     1      39.505 -14.261   4.658  1.00  0.00    -0.262 OA
HETATM    4  H   UNL     1      41.490 -13.175   6.885  1.00  0.00     0.162 HD
ENDROOT
BRANCH   1   5
HETATM    5  C   UNL     1      41.818 -14.797   5.028  1.00  0.00     0.313 C 
HETATM    6  N   UNL     1      41.857 -16.026   5.649  1.00  0.00    -0.319 N 
HETATM    7  H   UNL     1      41.012 -16.258   6.167  1.00  0.00     0.169 HD
HETATM    8  O   UNL     1      42.641 -14.264   4.297  1.00  0.00    -0.262 OA
BRANCH   6   9
HETATM    9  C   UNL     1      42.901 -16.968   5.639  1.00  0.00     0.037 A 
HETATM   10  C   UNL     1      42.955 -18.066   4.770  1.00  0.00     0.059 A 
HETATM   11  C   UNL     1      44.035 -18.958   4.810  1.00  0.00     0.036 A 
HETATM   12  C   UNL     1      45.056 -18.748   5.746  1.00  0.00     0.029 A 
HETATM   13  C   UNL     1      45.012 -17.655   6.611  1.00  0.00     0.004 A 
HETATM   14  C   UNL     1      43.942 -16.766   6.552  1.00  0.00     0.029 A 
BRANCH  11  15
HETATM   15  N   UNL     1      44.172 -20.079   3.962  1.00  0.00    -0.327 N 
HETATM   16  C   UNL     1      44.116 -20.106   2.581  1.00  0.00     0.218 C 
HETATM   17  C   UNL     1      44.273 -21.495   2.012  1.00  0.00     0.117 C 
HETATM   18  O   UNL     1      43.979 -19.148   1.828  1.00  0.00    -0.274 OA
HETATM   19  H   UNL     1      44.375 -20.955   4.425  1.00  0.00     0.169 HD
ENDBRANCH  11  15
ENDBRANCH   6   9
ENDBRANCH   1   5
BRANCH   2  20
HETATM   20  C   UNL     1      39.467 -12.477   6.951  1.00  0.00     0.133 C 
BRANCH  20  21
HETATM   21  C   UNL     1      39.733 -11.002   7.261  1.00  0.00     0.102 C 
BRANCH  21  22
HETATM   22  S   UNL     1      41.460 -10.557   6.867  1.00  0.00    -0.090 SA
BRANCH  22  23
HETATM   23  C   UNL     1      42.175 -10.661   8.429  1.00  0.00     0.166 A 
HETATM   24  N   UNL     1      41.834 -10.014   9.515  1.00  0.00    -0.223 NA
HETATM   25  C   UNL     1      42.734 -10.426  10.479  1.00  0.00     0.085 A 
HETATM   26  C   UNL     1      43.616 -11.345   9.944  1.00  0.00     0.122 A 
HETATM   27  N   UNL     1      43.242 -11.482   8.635  1.00  0.00    -0.343 N 
HETATM   28  H   UNL     1      43.664 -12.072   7.932  1.00  0.00     0.167 HD
BRANCH  25  29
HETATM   29  C   UNL     1      42.714  -9.930  11.849  1.00  0.00    -0.006 A 
HETATM   30  C   UNL     1      42.642 -10.843  12.911  1.00  0.00     0.014 A 
HETATM   31  C   UNL     1      42.616 -10.402  14.237  1.00  0.00     0.001 A 
HETATM   32  C   UNL     1      42.661  -9.039  14.518  1.00  0.00     0.000 A 
HETATM   33  C   UNL     1      42.731  -8.118  13.475  1.00  0.00     0.001 A 
HETATM   34  C   UNL     1      42.758  -8.561  12.148  1.00  0.00     0.014 A 
ENDBRANCH  25  29
ENDBRANCH  22  23
ENDBRANCH  21  22
ENDBRANCH  20  21
ENDBRANCH   2  20
TORSDOF 8
ENDMDL
MODEL 9
REMARK VINA RESULT:      -8.6      6.587     10.042
REMARK  8 active torsions:
REMARK  status: ('A' for Active; 'I' for Inactive)
REMARK       I    between atoms: C_2  and  N_3 
REMARK    1  A    between atoms: N_3  and  C_4 
REMARK    2  A    between atoms: C_6  and  N_7 
REMARK       I    between atoms: N_7  and  C_8 
REMARK    3  A    between atoms: C_8  and  C_9 
REMARK       I    between atoms: C_9  and  N_10 
REMARK    4  A    between atoms: N_10  and  C_11 
REMARK    5  A    between atoms: C_11  and  C_12 
REMARK    6  A    between atoms: C_12  and  S_13 
REMARK    7  A    between atoms: S_13  and  C_14 
REMARK    8  A    between atoms: C_16  and  C_17 
ROOT
HETATM    1  C   UNL     1      39.864 -15.476   2.199  1.00  0.00     0.309 C 
HETATM    2  N   UNL     1      40.112 -14.966   3.451  1.00  0.00    -0.352 N 
HETATM    3  O   UNL     1      40.055 -16.627   1.832  1.00  0.00    -0.262 OA
HETATM    4  H   UNL     1      39.993 -13.959   3.550  1.00  0.00     0.162 HD
ENDROOT
BRANCH   1   5
HETATM    5  C   UNL     1      39.291 -14.435   1.211  1.00  0.00     0.313 C 
HETATM    6  N   UNL     1      39.650 -14.709  -0.091  1.00  0.00    -0.319 N 
HETATM    7  H   UNL     1      40.192 -15.562  -0.203  1.00  0.00     0.169 HD
HETATM    8  O   UNL     1      38.603 -13.529   1.658  1.00  0.00    -0.262 OA
BRANCH   6   9
HETATM    9  C   UNL     1      39.350 -13.964  -1.245  1.00  0.00     0.037 A 
HETATM   10  C   UNL     1      40.313 -13.306  -2.022  1.00  0.00     0.059 A 
HETATM   11  C   UNL     1      39.940 -12.590  -3.168  1.00  0.00     0.036 A 
HETATM   12  C   UNL     1      38.585 -12.524  -3.519  1.00  0.00     0.029 A 
HETATM   13  C   UNL     1      37.622 -13.180  -2.753  1.00  0.00     0.004 A 
HETATM   14  C   UNL     1      38.005 -13.902  -1.625  1.00  0.00     0.029 A 
BRANCH  11  15
HETATM   15  N   UNL     1      40.847 -11.912  -4.012  1.00  0.00    -0.327 N 
HETATM   16  C   UNL     1      41.727 -10.902  -3.669  1.00  0.00     0.218 C 
HETATM   17  C   UNL     1      42.522 -10.389  -4.845  1.00  0.00     0.117 C 
HETATM   18  O   UNL     1      41.915 -10.434  -2.552  1.00  0.00    -0.274 OA
HETATM   19  H   UNL     1      40.879 -12.236  -4.969  1.00  0.00     0.169 HD
ENDBRANCH  11  15
ENDBRANCH   6   9
ENDBRANCH   1   5
BRANCH   2  20
HETATM   20  C   UNL     1      40.822 -15.701   4.476  1.00  0.00     0.133 C 
BRANCH  20  21
HETATM   21  C   UNL     1      42.084 -14.985   4.966  1.00  0.00     0.102 C 
BRANCH  21  22
HETATM   22  S   UNL     1      43.208 -14.624   3.572  1.00  0.00    -0.090 SA
BRANCH  22  23
HETATM   23  C   UNL     1      43.380 -16.196   2.893  1.00  0.00     0.166 A 
HETATM   24  N   UNL     1      43.657 -17.315   3.513  1.00  0.00    -0.223 NA
HETATM   25  C   UNL     1      43.716 -18.274   2.520  1.00  0.00     0.085 A 
HETATM   26  C   UNL     1      43.457 -17.702   1.290  1.00  0.00     0.122 A 
HETATM   27  N   UNL     1      43.244 -16.375   1.550  1.00  0.00    -0.343 N 
HETATM   28  H   UNL     1      43.028 -15.644   0.886  1.00  0.00     0.167 HD
BRANCH  25  29
HETATM   29  C   UNL     1      44.016 -19.675   2.785  1.00  0.00    -0.006 A 
HETATM   30  C   UNL     1      43.720 -20.639   1.810  1.00  0.00     0.014 A 
HETATM   31  C   UNL     1      43.988 -21.992   2.032  1.00  0.00     0.001 A 
HETATM   32  C   UNL     1      44.557 -22.400   3.236  1.00  0.00     0.000 A 
HETATM   33  C   UNL     1      44.857 -21.456   4.216  1.00  0.00     0.001 A 
HETATM   34  C   UNL     1      44.588 -20.101   3.992  1.00  0.00     0.014 A 
ENDBRANCH  25  29
ENDBRANCH  22  23
ENDBRANCH  21  22
ENDBRANCH  20  21
ENDBRANCH   2  20
TORSDOF 8
ENDMDL
MODEL 10
REMARK VINA RESULT:      -8.6      5.834      9.983
REMARK  8 active torsions:
REMARK  status: ('A' for Active; 'I' for Inactive)
REMARK       I    between atoms: C_2  and  N_3 
REMARK    1  A    between atoms: N_3  and  C_4 
REMARK    2  A    between atoms: C_6  and  N_7 
REMARK       I    between atoms: N_7  and  C_8 
REMARK    3  A    between atoms: C_8  and  C_9 
REMARK       I    between atoms: C_9  and  N_10 
REMARK    4  A    between atoms: N_10  and  C_11 
REMARK    5  A    between atoms: C_11  and  C_12 
REMARK    6  A    between atoms: C_12  and  S_13 
REMARK    7  A    between atoms: S_13  and  C_14 
REMARK    8  A    between atoms: C_16  and  C_17 
ROOT
HETATM    1  C   UNL     1      44.020 -19.577   3.704  1.00  0.00     0.309 C 
HETATM    2  N   UNL     1      43.846 -19.001   4.940  1.00  0.00    -0.352 N 
HETATM    3  O   UNL     1      44.825 -20.451   3.417  1.00  0.00    -0.262 OA
HETATM    4  H   UNL     1      43.202 -18.212   4.974  1.00  0.00     0.162 HD
ENDROOT
BRANCH   1   5
HETATM    5  C   UNL     1      43.073 -19.013   2.622  1.00  0.00     0.313 C 
HETATM    6  N   UNL     1      42.756 -17.691   2.853  1.00  0.00    -0.319 N 
HETATM    7  H   UNL     1      43.219 -17.288   3.664  1.00  0.00     0.169 HD
HETATM    8  O   UNL     1      42.729 -19.751   1.710  1.00  0.00    -0.262 OA
BRANCH   6   9
HETATM    9  C   UNL     1      41.895 -16.866   2.108  1.00  0.00     0.037 A 
HETATM   10  C   UNL     1      42.133 -16.484   0.781  1.00  0.00     0.059 A 
HETATM   11  C   UNL     1      41.223 -15.667   0.097  1.00  0.00     0.036 A 
HETATM   12  C   UNL     1      40.076 -15.219   0.765  1.00  0.00     0.029 A 
HETATM   13  C   UNL     1      39.830 -15.598   2.084  1.00  0.00     0.004 A 
HETATM   14  C   UNL     1      40.733 -16.424   2.749  1.00  0.00     0.029 A 
BRANCH  11  15
HETATM   15  N   UNL     1      41.381 -15.249  -1.243  1.00  0.00    -0.327 N 
HETATM   16  C   UNL     1      41.665 -13.976  -1.703  1.00  0.00     0.218 C 
HETATM   17  C   UNL     1      41.728 -13.895  -3.209  1.00  0.00     0.117 C 
HETATM   18  O   UNL     1      41.877 -12.977  -1.026  1.00  0.00    -0.274 OA
HETATM   19  H   UNL     1      41.317 -15.980  -1.939  1.00  0.00     0.169 HD
ENDBRANCH  11  15
ENDBRANCH   6   9
ENDBRANCH   1   5
BRANCH   2  20
HETATM   20  C   UNL     1      44.744 -19.232   6.052  1.00  0.00     0.133 C 
BRANCH  20  21
HETATM   21  C   UNL     1      44.905 -18.010   6.960  1.00  0.00     0.102 C 
BRANCH  21  22
HETATM   22  S   UNL     1      43.285 -17.456   7.597  1.00  0.00    -0.090 SA
BRANCH  22  23
HETATM   23  C   UNL     1      43.156 -15.920   6.831  1.00  0.00     0.166 A 
HETATM   24  N   UNL     1      42.411 -15.591   5.807  1.00  0.00    -0.223 NA
HETATM   25  C   UNL     1      42.697 -14.262   5.563  1.00  0.00     0.085 A 
HETATM   26  C   UNL     1      43.626 -13.800   6.475  1.00  0.00     0.122 A 
HETATM   27  N   UNL     1      43.906 -14.874   7.276  1.00  0.00    -0.343 N 
HETATM   28  H   UNL     1      44.547 -14.910   8.056  1.00  0.00     0.167 HD
BRANCH  25  29
HETATM   29  C   UNL     1      42.080 -13.501   4.484  1.00  0.00    -0.006 A 
HETATM   30  C   UNL     1      42.760 -13.361   3.265  1.00  0.00     0.014 A 
HETATM   31  C   UNL     1      42.202 -12.634   2.210  1.00  0.00     0.001 A 
HETATM   32  C   UNL     1      40.953 -12.036   2.362  1.00  0.00     0.000 A 
HETATM   33  C   UNL     1      40.265 -12.164   3.566  1.00  0.00     0.001 A 
HETATM   34  C   UNL     1      40.825 -12.893   4.621  1.00  0.00     0.014 A 
ENDBRANCH  25  29
ENDBRANCH  22  23
ENDBRANCH  21  22
ENDBRANCH  20  21
ENDBRANCH   2  20
TORSDOF 8
ENDMDL
