MODEL 1
REMARK VINA RESULT:      -7.6      0.000      0.000
REMARK  4 active torsions:
REMARK  status: ('A' for Active; 'I' for Inactive)
REMARK    1  A    between atoms: C_6  and  C_7 
REMARK    2  A    between atoms: C_10  and  N_11 
REMARK       I    between atoms: N_11  and  C_12 
REMARK       I    between atoms: C_12  and  N_13 
REMARK    3  A    between atoms: N_13  and  C_14 
REMARK    4  A    between atoms: C_14  and  C_15 
ROOT
HETATM    1  N   UNL     1      40.529 -15.440   3.474  1.00  0.00    -0.305 N 
HETATM    2  C   UNL     1      41.794 -15.625   2.974  1.00  0.00     0.322 C 
HETATM    3  N   UNL     1      41.900 -16.576   1.960  1.00  0.00    -0.334 N 
HETATM    4  C   UNL     1      40.795 -17.370   1.437  1.00  0.00     0.155 C 
HETATM    5  O   UNL     1      42.776 -15.005   3.374  1.00  0.00    -0.247 OA
HETATM    6  H   UNL     1      39.762 -15.847   2.970  1.00  0.00     0.171 HD
ENDROOT
BRANCH   1   7
HETATM    7  C   UNL     1      40.164 -14.626   4.539  1.00  0.00     0.092 A 
HETATM    8  C   UNL     1      40.345 -15.045   5.845  1.00  0.00     0.053 A 
HETATM    9  C   UNL     1      40.906 -16.285   6.431  1.00  0.00     0.072 C 
HETATM   10  N   UNL     1      39.870 -14.038   6.631  1.00  0.00    -0.280 N 
HETATM   11  H   UNL     1      39.832 -13.996   7.645  1.00  0.00     0.189 HD
HETATM   12  N   UNL     1      39.409 -12.991   5.946  1.00  0.00    -0.171 NA
HETATM   13  C   UNL     1      39.611 -13.310   4.649  1.00  0.00     0.147 A 
BRANCH  13  14
HETATM   14  C   UNL     1      39.292 -12.305   3.575  1.00  0.00     0.409 C 
HETATM   15  F   UNL     1      38.788 -12.897   2.447  1.00  0.00    -0.207 F 
HETATM   16  F   UNL     1      38.318 -11.438   3.980  1.00  0.00    -0.207 F 
ENDBRANCH  13  14
ENDBRANCH   1   7
BRANCH   3  17
HETATM   17  C   UNL     1      43.245 -16.999   1.568  1.00  0.00     0.165 C 
BRANCH  17  18
HETATM   18  C   UNL     1      43.699 -18.230   2.320  1.00  0.00    -0.039 A 
HETATM   19  C   UNL     1      43.805 -19.468   1.669  1.00  0.00     0.032 A 
HETATM   20  C   UNL     1      44.201 -20.603   2.378  1.00  0.00     0.034 A 
HETATM   21 CL   UNL     1      44.317 -22.116   1.566  1.00  0.00    -0.084 Cl
HETATM   22  C   UNL     1      44.497 -20.522   3.737  1.00  0.00     0.024 A 
HETATM   23  C   UNL     1      44.395 -19.295   4.393  1.00  0.00     0.002 A 
HETATM   24  C   UNL     1      43.997 -18.156   3.690  1.00  0.00     0.009 A 
ENDBRANCH  17  18
ENDBRANCH   3  17
TORSDOF 4
ENDMDL
MODEL 2
REMARK VINA RESULT:      -7.5      2.668      3.580
REMARK  4 active torsions:
REMARK  status: ('A' for Active; 'I' for Inactive)
REMARK    1  A    between atoms: C_6  and  C_7 
REMARK    2  A    between atoms: C_10  and  N_11 
REMARK       I    between atoms: N_11  and  C_12 
REMARK       I    between atoms: C_12  and  N_13 
REMARK    3  A    between atoms: N_13  and  C_14 
REMARK    4  A    between atoms: C_14  and  C_15 
ROOT
HETATM    1  N   UNL     1      41.227 -16.110   3.059  1.00  0.00    -0.305 N 
HETATM    2  C   UNL     1      42.495 -16.618   3.195  1.00  0.00     0.322 C 
HETATM    3  N   UNL     1      42.644 -17.592   4.182  1.00  0.00    -0.334 N 
HETATM    4  C   UNL     1      41.579 -18.066   5.058  1.00  0.00     0.155 C 
HETATM    5  O   UNL     1      43.445 -16.259   2.504  1.00  0.00    -0.247 OA
HETATM    6  H   UNL     1      40.479 -16.586   3.530  1.00  0.00     0.171 HD
ENDROOT
BRANCH   1   7
HETATM    7  C   UNL     1      40.829 -15.076   2.222  1.00  0.00     0.092 A 
HETATM    8  C   UNL     1      40.309 -13.904   2.742  1.00  0.00     0.053 A 
HETATM    9  C   UNL     1      40.063 -13.445   4.130  1.00  0.00     0.072 C 
HETATM   10  N   UNL     1      40.002 -13.122   1.669  1.00  0.00    -0.280 N 
HETATM   11  H   UNL     1      39.594 -12.192   1.664  1.00  0.00     0.189 HD
HETATM   12  N   UNL     1      40.294 -13.679   0.494  1.00  0.00    -0.171 NA
HETATM   13  C   UNL     1      40.840 -14.875   0.804  1.00  0.00     0.147 A 
BRANCH  13  14
HETATM   14  C   UNL     1      41.385 -15.753  -0.289  1.00  0.00     0.409 C 
HETATM   15  F   UNL     1      41.236 -17.085  -0.005  1.00  0.00    -0.207 F 
HETATM   16  F   UNL     1      40.706 -15.568  -1.459  1.00  0.00    -0.207 F 
ENDBRANCH  13  14
ENDBRANCH   1   7
BRANCH   3  17
HETATM   17  C   UNL     1      44.006 -17.984   4.545  1.00  0.00     0.165 C 
BRANCH  17  18
HETATM   18  C   UNL     1      44.258 -19.457   4.314  1.00  0.00    -0.039 A 
HETATM   19  C   UNL     1      44.136 -20.011   3.031  1.00  0.00     0.032 A 
HETATM   20  C   UNL     1      44.346 -21.377   2.833  1.00  0.00     0.034 A 
HETATM   21 CL   UNL     1      44.182 -22.042   1.254  1.00  0.00    -0.084 Cl
HETATM   22  C   UNL     1      44.681 -22.205   3.902  1.00  0.00     0.024 A 
HETATM   23  C   UNL     1      44.806 -21.663   5.181  1.00  0.00     0.002 A 
HETATM   24  C   UNL     1      44.594 -20.298   5.387  1.00  0.00     0.009 A 
ENDBRANCH  17  18
ENDBRANCH   3  17
TORSDOF 4
ENDMDL
MODEL 3
REMARK VINA RESULT:      -7.5      2.058      2.648
REMARK  4 active torsions:
REMARK  status: ('A' for Active; 'I' for Inactive)
REMARK    1  A    between atoms: C_6  and  C_7 
REMARK    2  A    between atoms: C_10  and  N_11 
REMARK       I    between atoms: N_11  and  C_12 
REMARK       I    between atoms: C_12  and  N_13 
REMARK    3  A    between atoms: N_13  and  C_14 
REMARK    4  A    between atoms: C_14  and  C_15 
ROOT
HETATM    1  N   UNL     1      40.762 -15.632   4.031  1.00  0.00    -0.305 N 
HETATM    2  C   UNL     1      41.991 -16.069   3.603  1.00  0.00     0.322 C 
HETATM    3  N   UNL     1      42.419 -17.276   4.155  1.00  0.00    -0.334 N 
HETATM    4  C   UNL     1      41.677 -18.057   5.138  1.00  0.00     0.155 C 
HETATM    5  O   UNL     1      42.680 -15.459   2.790  1.00  0.00    -0.247 OA
HETATM    6  H   UNL     1      40.190 -16.276   4.548  1.00  0.00     0.171 HD
ENDROOT
BRANCH   1   7
HETATM    7  C   UNL     1      40.146 -14.429   3.709  1.00  0.00     0.092 A 
HETATM    8  C   UNL     1      40.278 -13.325   4.532  1.00  0.00     0.053 A 
HETATM    9  C   UNL     1      41.008 -13.103   5.803  1.00  0.00     0.072 C 
HETATM   10  N   UNL     1      39.545 -12.334   3.950  1.00  0.00    -0.280 N 
HETATM   11  H   UNL     1      39.402 -11.383   4.276  1.00  0.00     0.189 HD
HETATM   12  N   UNL     1      38.960 -12.696   2.808  1.00  0.00    -0.171 NA
HETATM   13  C   UNL     1      39.343 -13.977   2.614  1.00  0.00     0.147 A 
BRANCH  13  14
HETATM   14  C   UNL     1      38.942 -14.693   1.352  1.00  0.00     0.409 C 
HETATM   15  F   UNL     1      39.422 -15.975   1.312  1.00  0.00    -0.207 F 
HETATM   16  F   UNL     1      37.586 -14.824   1.267  1.00  0.00    -0.207 F 
ENDBRANCH  13  14
ENDBRANCH   1   7
BRANCH   3  17
HETATM   17  C   UNL     1      43.814 -17.662   3.938  1.00  0.00     0.165 C 
BRANCH  17  18
HETATM   18  C   UNL     1      43.948 -19.107   3.516  1.00  0.00    -0.039 A 
HETATM   19  C   UNL     1      44.498 -20.060   4.388  1.00  0.00     0.032 A 
HETATM   20  C   UNL     1      44.639 -21.387   3.980  1.00  0.00     0.034 A 
HETATM   21 CL   UNL     1      45.325 -22.540   5.058  1.00  0.00    -0.084 Cl
HETATM   22  C   UNL     1      44.237 -21.783   2.706  1.00  0.00     0.024 A 
HETATM   23  C   UNL     1      43.689 -20.844   1.833  1.00  0.00     0.002 A 
HETATM   24  C   UNL     1      43.546 -19.514   2.234  1.00  0.00     0.009 A 
ENDBRANCH  17  18
ENDBRANCH   3  17
TORSDOF 4
ENDMDL
MODEL 4
REMARK VINA RESULT:      -7.3      2.354      3.335
REMARK  4 active torsions:
REMARK  status: ('A' for Active; 'I' for Inactive)
REMARK    1  A    between atoms: C_6  and  C_7 
REMARK    2  A    between atoms: C_10  and  N_11 
REMARK       I    between atoms: N_11  and  C_12 
REMARK       I    between atoms: C_12  and  N_13 
REMARK    3  A    between atoms: N_13  and  C_14 
REMARK    4  A    between atoms: C_14  and  C_15 
ROOT
HETATM    1  N   UNL     1      41.979 -16.382   4.507  1.00  0.00    -0.305 N 
HETATM    2  C   UNL     1      43.107 -17.110   4.222  1.00  0.00     0.322 C 
HETATM    3  N   UNL     1      43.483 -18.031   5.199  1.00  0.00    -0.334 N 
HETATM    4  C   UNL     1      42.791 -18.241   6.464  1.00  0.00     0.155 C 
HETATM    5  O   UNL     1      43.752 -16.980   3.185  1.00  0.00    -0.247 OA
HETATM    6  H   UNL     1      41.413 -16.679   5.282  1.00  0.00     0.171 HD
ENDROOT
BRANCH   1   7
HETATM    7  C   UNL     1      41.442 -15.346   3.753  1.00  0.00     0.092 A 
HETATM    8  C   UNL     1      40.657 -15.610   2.645  1.00  0.00     0.053 A 
HETATM    9  C   UNL     1      40.201 -16.873   2.018  1.00  0.00     0.072 C 
HETATM   10  N   UNL     1      40.317 -14.396   2.129  1.00  0.00    -0.280 N 
HETATM   11  H   UNL     1      39.752 -14.197   1.308  1.00  0.00     0.189 HD
HETATM   12  N   UNL     1      40.801 -13.362   2.817  1.00  0.00    -0.171 NA
HETATM   13  C   UNL     1      41.472 -13.918   3.849  1.00  0.00     0.147 A 
BRANCH  13  14
HETATM   14  C   UNL     1      42.080 -13.036   4.906  1.00  0.00     0.409 C 
HETATM   15  F   UNL     1      43.384 -13.366   5.166  1.00  0.00    -0.207 F 
HETATM   16  F   UNL     1      42.125 -11.733   4.499  1.00  0.00    -0.207 F 
ENDBRANCH  13  14
ENDBRANCH   1   7
BRANCH   3  17
HETATM   17  C   UNL     1      44.805 -18.648   5.073  1.00  0.00     0.165 C 
BRANCH  17  18
HETATM   18  C   UNL     1      44.723 -20.078   4.586  1.00  0.00    -0.039 A 
HETATM   19  C   UNL     1      44.501 -20.360   3.229  1.00  0.00     0.032 A 
HETATM   20  C   UNL     1      44.403 -21.683   2.795  1.00  0.00     0.034 A 
HETATM   21 CL   UNL     1      44.120 -22.011   1.129  1.00  0.00    -0.084 Cl
HETATM   22  C   UNL     1      44.525 -22.737   3.697  1.00  0.00     0.024 A 
HETATM   23  C   UNL     1      44.747 -22.466   5.047  1.00  0.00     0.002 A 
HETATM   24  C   UNL     1      44.844 -21.145   5.490  1.00  0.00     0.009 A 
ENDBRANCH  17  18
ENDBRANCH   3  17
TORSDOF 4
ENDMDL
MODEL 5
REMARK VINA RESULT:      -7.3      4.401      7.286
REMARK  4 active torsions:
REMARK  status: ('A' for Active; 'I' for Inactive)
REMARK    1  A    between atoms: C_6  and  C_7 
REMARK    2  A    between atoms: C_10  and  N_11 
REMARK       I    between atoms: N_11  and  C_12 
REMARK       I    between atoms: C_12  and  N_13 
REMARK    3  A    between atoms: N_13  and  C_14 
REMARK    4  A    between atoms: C_14  and  C_15 
ROOT
HETATM    1  N   UNL     1      43.545 -17.231   3.851  1.00  0.00    -0.305 N 
HETATM    2  C   UNL     1      42.264 -16.811   4.109  1.00  0.00     0.322 C 
HETATM    3  N   UNL     1      42.047 -15.441   3.973  1.00  0.00    -0.334 N 
HETATM    4  C   UNL     1      43.066 -14.463   3.611  1.00  0.00     0.155 C 
HETATM    5  O   UNL     1      41.356 -17.572   4.434  1.00  0.00    -0.247 OA
HETATM    6  H   UNL     1      44.172 -16.579   3.416  1.00  0.00     0.171 HD
ENDROOT
BRANCH   1   7
HETATM    7  C   UNL     1      44.047 -18.518   3.997  1.00  0.00     0.092 A 
HETATM    8  C   UNL     1      44.722 -18.888   5.146  1.00  0.00     0.053 A 
HETATM    9  C   UNL     1      45.061 -18.156   6.390  1.00  0.00     0.072 C 
HETATM   10  N   UNL     1      45.095 -20.186   4.960  1.00  0.00    -0.280 N 
HETATM   11  H   UNL     1      45.616 -20.787   5.591  1.00  0.00     0.189 HD
HETATM   12  N   UNL     1      44.705 -20.697   3.793  1.00  0.00    -0.171 NA
HETATM   13  C   UNL     1      44.022 -19.700   3.189  1.00  0.00     0.147 A 
BRANCH  13  14
HETATM   14  C   UNL     1      43.343 -19.952   1.870  1.00  0.00     0.409 C 
HETATM   15  F   UNL     1      42.905 -21.245   1.753  1.00  0.00    -0.207 F 
HETATM   16  F   UNL     1      42.217 -19.190   1.739  1.00  0.00    -0.207 F 
ENDBRANCH  13  14
ENDBRANCH   1   7
BRANCH   3  17
HETATM   17  C   UNL     1      40.783 -14.903   4.477  1.00  0.00     0.165 C 
BRANCH  17  18
HETATM   18  C   UNL     1      39.924 -14.331   3.372  1.00  0.00    -0.039 A 
HETATM   19  C   UNL     1      39.552 -12.978   3.383  1.00  0.00     0.032 A 
HETATM   20  C   UNL     1      38.739 -12.465   2.371  1.00  0.00     0.034 A 
HETATM   21 CL   UNL     1      38.282 -10.806   2.405  1.00  0.00    -0.084 Cl
HETATM   22  C   UNL     1      38.290 -13.286   1.338  1.00  0.00     0.024 A 
HETATM   23  C   UNL     1      38.656 -14.632   1.318  1.00  0.00     0.002 A 
HETATM   24  C   UNL     1      39.467 -15.151   2.329  1.00  0.00     0.009 A 
ENDBRANCH  17  18
ENDBRANCH   3  17
TORSDOF 4
ENDMDL
MODEL 6
REMARK VINA RESULT:      -7.1      4.887      7.224
REMARK  4 active torsions:
REMARK  status: ('A' for Active; 'I' for Inactive)
REMARK    1  A    between atoms: C_6  and  C_7 
REMARK    2  A    between atoms: C_10  and  N_11 
REMARK       I    between atoms: N_11  and  C_12 
REMARK       I    between atoms: C_12  and  N_13 
REMARK    3  A    between atoms: N_13  and  C_14 
REMARK    4  A    between atoms: C_14  and  C_15 
ROOT
HETATM    1  N   UNL     1      42.554 -18.212   2.832  1.00  0.00    -0.305 N 
HETATM    2  C   UNL     1      42.643 -17.486   1.670  1.00  0.00     0.322 C 
HETATM    3  N   UNL     1      41.491 -16.785   1.317  1.00  0.00    -0.334 N 
HETATM    4  C   UNL     1      40.240 -16.796   2.066  1.00  0.00     0.155 C 
HETATM    5  O   UNL     1      43.656 -17.440   0.977  1.00  0.00    -0.247 OA
HETATM    6  H   UNL     1      41.762 -18.048   3.427  1.00  0.00     0.171 HD
ENDROOT
BRANCH   1   7
HETATM    7  C   UNL     1      43.517 -19.062   3.360  1.00  0.00     0.092 A 
HETATM    8  C   UNL     1      44.081 -18.812   4.598  1.00  0.00     0.053 A 
HETATM    9  C   UNL     1      43.865 -17.741   5.600  1.00  0.00     0.072 C 
HETATM   10  N   UNL     1      44.990 -19.806   4.805  1.00  0.00    -0.280 N 
HETATM   11  H   UNL     1      45.600 -19.945   5.604  1.00  0.00     0.189 HD
HETATM   12  N   UNL     1      45.054 -20.693   3.811  1.00  0.00    -0.171 NA
HETATM   13  C   UNL     1      44.128 -20.280   2.919  1.00  0.00     0.147 A 
BRANCH  13  14
HETATM   14  C   UNL     1      43.851 -21.107   1.693  1.00  0.00     0.409 C 
HETATM   15  F   UNL     1      44.576 -22.270   1.680  1.00  0.00    -0.207 F 
HETATM   16  F   UNL     1      42.547 -21.509   1.650  1.00  0.00    -0.207 F 
ENDBRANCH  13  14
ENDBRANCH   1   7
BRANCH   3  17
HETATM   17  C   UNL     1      41.437 -16.206  -0.027  1.00  0.00     0.165 C 
BRANCH  17  18
HETATM   18  C   UNL     1      41.660 -14.710  -0.013  1.00  0.00    -0.039 A 
HETATM   19  C   UNL     1      41.786 -13.995  -1.214  1.00  0.00     0.032 A 
HETATM   20  C   UNL     1      42.016 -12.619  -1.190  1.00  0.00     0.034 A 
HETATM   21 CL   UNL     1      42.179 -11.758  -2.672  1.00  0.00    -0.084 Cl
HETATM   22  C   UNL     1      42.121 -11.939   0.021  1.00  0.00     0.024 A 
HETATM   23  C   UNL     1      41.996 -12.641   1.220  1.00  0.00     0.002 A 
HETATM   24  C   UNL     1      41.768 -14.019   1.203  1.00  0.00     0.009 A 
ENDBRANCH  17  18
ENDBRANCH   3  17
TORSDOF 4
ENDMDL
MODEL 7
REMARK VINA RESULT:      -7.1      4.022      7.160
REMARK  4 active torsions:
REMARK  status: ('A' for Active; 'I' for Inactive)
REMARK    1  A    between atoms: C_6  and  C_7 
REMARK    2  A    between atoms: C_10  and  N_11 
REMARK       I    between atoms: N_11  and  C_12 
REMARK       I    between atoms: C_12  and  N_13 
REMARK    3  A    between atoms: N_13  and  C_14 
REMARK    4  A    between atoms: C_14  and  C_15 
ROOT
HETATM    1  N   UNL     1      43.459 -17.076   4.185  1.00  0.00    -0.305 N 
HETATM    2  C   UNL     1      42.158 -16.725   4.447  1.00  0.00     0.322 C 
HETATM    3  N   UNL     1      41.898 -15.356   4.440  1.00  0.00    -0.334 N 
HETATM    4  C   UNL     1      42.891 -14.315   4.203  1.00  0.00     0.155 C 
HETATM    5  O   UNL     1      41.269 -17.543   4.671  1.00  0.00    -0.247 OA
HETATM    6  H   UNL     1      44.074 -16.364   3.834  1.00  0.00     0.171 HD
ENDROOT
BRANCH   1   7
HETATM    7  C   UNL     1      44.001 -18.355   4.219  1.00  0.00     0.092 A 
HETATM    8  C   UNL     1      44.742 -18.781   5.307  1.00  0.00     0.053 A 
HETATM    9  C   UNL     1      45.121 -18.124   6.581  1.00  0.00     0.072 C 
HETATM   10  N   UNL     1      45.139 -20.052   5.015  1.00  0.00    -0.280 N 
HETATM   11  H   UNL     1      45.706 -20.678   5.578  1.00  0.00     0.189 HD
HETATM   12  N   UNL     1      44.706 -20.495   3.835  1.00  0.00    -0.171 NA
HETATM   13  C   UNL     1      43.968 -19.480   3.334  1.00  0.00     0.147 A 
BRANCH  13  14
HETATM   14  C   UNL     1      43.232 -19.663   2.035  1.00  0.00     0.409 C 
HETATM   15  F   UNL     1      43.575 -18.713   1.108  1.00  0.00    -0.207 F 
HETATM   16  F   UNL     1      43.551 -20.853   1.447  1.00  0.00    -0.207 F 
ENDBRANCH  13  14
ENDBRANCH   1   7
BRANCH   3  17
HETATM   17  C   UNL     1      40.603 -14.911   4.958  1.00  0.00     0.165 C 
BRANCH  17  18
HETATM   18  C   UNL     1      39.888 -13.990   3.995  1.00  0.00    -0.039 A 
HETATM   19  C   UNL     1      39.531 -14.434   2.713  1.00  0.00     0.032 A 
HETATM   20  C   UNL     1      38.893 -13.569   1.823  1.00  0.00     0.034 A 
HETATM   21 CL   UNL     1      38.472 -14.126   0.249  1.00  0.00    -0.084 Cl
HETATM   22  C   UNL     1      38.601 -12.258   2.195  1.00  0.00     0.024 A 
HETATM   23  C   UNL     1      38.950 -11.809   3.468  1.00  0.00     0.002 A 
HETATM   24  C   UNL     1      39.591 -12.669   4.362  1.00  0.00     0.009 A 
ENDBRANCH  17  18
ENDBRANCH   3  17
TORSDOF 4
ENDMDL
MODEL 8
REMARK VINA RESULT:      -7.1      4.344      7.619
REMARK  4 active torsions:
REMARK  status: ('A' for Active; 'I' for Inactive)
REMARK    1  A    between atoms: C_6  and  C_7 
REMARK    2  A    between atoms: C_10  and  N_11 
REMARK       I    between atoms: N_11  and  C_12 
REMARK       I    between atoms: C_12  and  N_13 
REMARK    3  A    between atoms: N_13  and  C_14 
REMARK    4  A    between atoms: C_14  and  C_15 
ROOT
HETATM    1  N   UNL     1      43.504 -17.432   4.488  1.00  0.00    -0.305 N 
HETATM    2  C   UNL     1      42.210 -17.055   4.747  1.00  0.00     0.322 C 
HETATM    3  N   UNL     1      42.068 -15.855   5.443  1.00  0.00    -0.334 N 
HETATM    4  C   UNL     1      43.169 -15.023   5.913  1.00  0.00     0.155 C 
HETATM    5  O   UNL     1      41.232 -17.710   4.397  1.00  0.00    -0.247 OA
HETATM    6  H   UNL     1      44.229 -16.755   4.644  1.00  0.00     0.171 HD
ENDROOT
BRANCH   1   7
HETATM    7  C   UNL     1      43.926 -18.616   3.896  1.00  0.00     0.092 A 
HETATM    8  C   UNL     1      44.105 -18.697   2.526  1.00  0.00     0.053 A 
HETATM    9  C   UNL     1      43.945 -17.708   1.434  1.00  0.00     0.072 C 
HETATM   10  N   UNL     1      44.493 -19.979   2.275  1.00  0.00    -0.280 N 
HETATM   11  H   UNL     1      44.707 -20.407   1.379  1.00  0.00     0.189 HD
HETATM   12  N   UNL     1      44.597 -20.735   3.367  1.00  0.00    -0.171 NA
HETATM   13  C   UNL     1      44.287 -19.910   4.390  1.00  0.00     0.147 A 
BRANCH  13  14
HETATM   14  C   UNL     1      44.393 -20.405   5.807  1.00  0.00     0.409 C 
HETATM   15  F   UNL     1      43.330 -20.008   6.575  1.00  0.00    -0.207 F 
HETATM   16  F   UNL     1      44.371 -21.769   5.859  1.00  0.00    -0.207 F 
ENDBRANCH  13  14
ENDBRANCH   1   7
BRANCH   3  17
HETATM   17  C   UNL     1      40.740 -15.531   5.967  1.00  0.00     0.165 C 
BRANCH  17  18
HETATM   18  C   UNL     1      40.159 -14.292   5.325  1.00  0.00    -0.039 A 
HETATM   19  C   UNL     1      40.027 -14.203   3.931  1.00  0.00     0.032 A 
HETATM   20  C   UNL     1      39.512 -13.044   3.347  1.00  0.00     0.034 A 
HETATM   21 CL   UNL     1      39.367 -12.948   1.634  1.00  0.00    -0.084 Cl
HETATM   22  C   UNL     1      39.122 -11.966   4.137  1.00  0.00     0.024 A 
HETATM   23  C   UNL     1      39.248 -12.045   5.524  1.00  0.00     0.002 A 
HETATM   24  C   UNL     1      39.764 -13.200   6.115  1.00  0.00     0.009 A 
ENDBRANCH  17  18
ENDBRANCH   3  17
TORSDOF 4
ENDMDL
MODEL 9
REMARK VINA RESULT:      -7.0      2.141      2.976
REMARK  4 active torsions:
REMARK  status: ('A' for Active; 'I' for Inactive)
REMARK    1  A    between atoms: C_6  and  C_7 
REMARK    2  A    between atoms: C_10  and  N_11 
REMARK       I    between atoms: N_11  and  C_12 
REMARK       I    between atoms: C_12  and  N_13 
REMARK    3  A    between atoms: N_13  and  C_14 
REMARK    4  A    between atoms: C_14  and  C_15 
ROOT
HETATM    1  N   UNL     1      40.532 -15.323   2.585  1.00  0.00    -0.305 N 
HETATM    2  C   UNL     1      41.821 -15.599   2.200  1.00  0.00     0.322 C 
HETATM    3  N   UNL     1      41.987 -16.785   1.486  1.00  0.00    -0.334 N 
HETATM    4  C   UNL     1      40.920 -17.723   1.158  1.00  0.00     0.155 C 
HETATM    5  O   UNL     1      42.773 -14.865   2.451  1.00  0.00    -0.247 OA
HETATM    6  H   UNL     1      39.795 -15.873   2.182  1.00  0.00     0.171 HD
ENDROOT
BRANCH   1   7
HETATM    7  C   UNL     1      40.107 -14.262   3.375  1.00  0.00     0.092 A 
HETATM    8  C   UNL     1      39.441 -13.186   2.816  1.00  0.00     0.053 A 
HETATM    9  C   UNL     1      39.024 -12.876   1.428  1.00  0.00     0.072 C 
HETATM   10  N   UNL     1      39.189 -12.327   3.844  1.00  0.00    -0.280 N 
HETATM   11  H   UNL     1      38.722 -11.425   3.810  1.00  0.00     0.189 HD
HETATM   12  N   UNL     1      39.621 -12.761   5.028  1.00  0.00    -0.171 NA
HETATM   13  C   UNL     1      40.161 -13.973   4.776  1.00  0.00     0.147 A 
BRANCH  13  14
HETATM   14  C   UNL     1      40.674 -14.813   5.914  1.00  0.00     0.409 C 
HETATM   15  F   UNL     1      40.098 -16.057   5.938  1.00  0.00    -0.207 F 
HETATM   16  F   UNL     1      42.012 -15.051   5.792  1.00  0.00    -0.207 F 
ENDBRANCH  13  14
ENDBRANCH   1   7
BRANCH   3  17
HETATM   17  C   UNL     1      43.356 -17.258   1.272  1.00  0.00     0.165 C 
BRANCH  17  18
HETATM   18  C   UNL     1      43.744 -18.344   2.250  1.00  0.00    -0.039 A 
HETATM   19  C   UNL     1      43.999 -18.038   3.595  1.00  0.00     0.032 A 
HETATM   20  C   UNL     1      44.381 -19.044   4.484  1.00  0.00     0.034 A 
HETATM   21 CL   UNL     1      44.700 -18.649   6.129  1.00  0.00    -0.084 Cl
HETATM   22  C   UNL     1      44.510 -20.362   4.050  1.00  0.00     0.024 A 
HETATM   23  C   UNL     1      44.257 -20.676   2.715  1.00  0.00     0.002 A 
HETATM   24  C   UNL     1      43.878 -19.674   1.820  1.00  0.00     0.009 A 
ENDBRANCH  17  18
ENDBRANCH   3  17
TORSDOF 4
ENDMDL
MODEL 10
REMARK VINA RESULT:      -7.0      4.521      7.391
REMARK  4 active torsions:
REMARK  status: ('A' for Active; 'I' for Inactive)
REMARK    1  A    between atoms: C_6  and  C_7 
REMARK    2  A    between atoms: C_10  and  N_11 
REMARK       I    between atoms: N_11  and  C_12 
REMARK       I    between atoms: C_12  and  N_13 
REMARK    3  A    between atoms: N_13  and  C_14 
REMARK    4  A    between atoms: C_14  and  C_15 
ROOT
HETATM    1  N   UNL     1      43.373 -17.473   3.763  1.00  0.00    -0.305 N 
HETATM    2  C   UNL     1      42.151 -16.970   4.136  1.00  0.00     0.322 C 
HETATM    3  N   UNL     1      41.897 -15.661   3.729  1.00  0.00    -0.334 N 
HETATM    4  C   UNL     1      42.825 -14.821   2.982  1.00  0.00     0.155 C 
HETATM    5  O   UNL     1      41.323 -17.612   4.778  1.00  0.00    -0.247 OA
HETATM    6  H   UNL     1      43.907 -16.954   3.089  1.00  0.00     0.171 HD
ENDROOT
BRANCH   1   7
HETATM    7  C   UNL     1      43.909 -18.706   4.112  1.00  0.00     0.092 A 
HETATM    8  C   UNL     1      43.988 -19.731   3.185  1.00  0.00     0.053 A 
HETATM    9  C   UNL     1      43.603 -19.822   1.756  1.00  0.00     0.072 C 
HETATM   10  N   UNL     1      44.532 -20.792   3.845  1.00  0.00    -0.280 N 
HETATM   11  H   UNL     1      44.733 -21.720   3.486  1.00  0.00     0.189 HD
HETATM   12  N   UNL     1      44.829 -20.539   5.119  1.00  0.00    -0.171 NA
HETATM   13  C   UNL     1      44.489 -19.245   5.304  1.00  0.00     0.147 A 
BRANCH  13  14
HETATM   14  C   UNL     1      44.777 -18.579   6.622  1.00  0.00     0.409 C 
HETATM   15  F   UNL     1      45.842 -17.720   6.546  1.00  0.00    -0.207 F 
HETATM   16  F   UNL     1      43.729 -17.800   7.023  1.00  0.00    -0.207 F 
ENDBRANCH  13  14
ENDBRANCH   1   7
BRANCH   3  17
HETATM   17  C   UNL     1      40.733 -14.988   4.307  1.00  0.00     0.165 C 
BRANCH  17  18
HETATM   18  C   UNL     1      39.857 -14.353   3.250  1.00  0.00    -0.039 A 
HETATM   19  C   UNL     1      39.543 -12.987   3.307  1.00  0.00     0.032 A 
HETATM   20  C   UNL     1      38.714 -12.416   2.339  1.00  0.00     0.034 A 
HETATM   21 CL   UNL     1      38.331 -10.740   2.429  1.00  0.00    -0.084 Cl
HETATM   22  C   UNL     1      38.190 -13.192   1.308  1.00  0.00     0.024 A 
HETATM   23  C   UNL     1      38.497 -14.551   1.243  1.00  0.00     0.002 A 
HETATM   24  C   UNL     1      39.324 -15.129   2.208  1.00  0.00     0.009 A 
ENDBRANCH  17  18
ENDBRANCH   3  17
TORSDOF 4
ENDMDL
