MODEL 1
REMARK VINA RESULT:      -7.6      0.000      0.000
REMARK  6 active torsions:
REMARK  status: ('A' for Active; 'I' for Inactive)
REMARK    1  A    between atoms: C_2  and  C_3 
REMARK    2  A    between atoms: C_5  and  N_6 
REMARK       I    between atoms: N_6  and  C_7 
REMARK       I    between atoms: C_7  and  N_8 
REMARK    3  A    between atoms: N_8  and  C_9 
REMARK    4  A    between atoms: C_9  and  C_10 
REMARK    5  A    between atoms: C_11  and  N_12 
REMARK    6  A    between atoms: C_19  and  O_20 
ROOT
HETATM    1  N   UNL     1      43.095 -16.511   6.246  1.00  0.00    -0.306 N 
HETATM    2  C   UNL     1      43.465 -17.809   6.326  1.00  0.00     0.321 C 
HETATM    3  N   UNL     1      44.259 -18.308   5.341  1.00  0.00    -0.338 N 
HETATM    4  O   UNL     1      43.219 -18.449   7.347  1.00  0.00    -0.247 OA
HETATM    5  H   UNL     1      42.842 -16.108   7.142  1.00  0.00     0.171 HD
HETATM    6  H   UNL     1      44.642 -17.645   4.680  1.00  0.00     0.164 HD
ENDROOT
BRANCH   1   7
HETATM    7  C   UNL     1      42.890 -15.636   5.165  1.00  0.00     0.070 A 
HETATM    8  C   UNL     1      42.291 -16.029   3.961  1.00  0.00     0.040 A 
HETATM    9  C   UNL     1      41.996 -15.090   2.952  1.00  0.00    -0.048 A 
HETATM   10  C   UNL     1      42.341 -13.748   3.198  1.00  0.00     0.011 A 
HETATM   11  C   UNL     1      42.937 -13.346   4.398  1.00  0.00     0.039 A 
HETATM   12  C   UNL     1      43.195 -14.281   5.394  1.00  0.00     0.095 A 
BRANCH   9  13
HETATM   13  C   UNL     1      41.214 -15.486   1.682  1.00  0.00    -0.024 C 
HETATM   14  C   UNL     1      39.725 -15.159   1.919  1.00  0.00     0.019 C 
HETATM   15  C   UNL     1      41.342 -16.989   1.349  1.00  0.00     0.019 C 
HETATM   16  C   UNL     1      41.687 -14.716   0.426  1.00  0.00     0.019 C 
ENDBRANCH   9  13
BRANCH  12  17
HETATM   17  O   UNL     1      43.740 -14.002   6.625  1.00  0.00    -0.354 OA
HETATM   18  C   UNL     1      45.159 -13.905   6.698  1.00  0.00     0.210 C 
ENDBRANCH  12  17
ENDBRANCH   1   7
BRANCH   3  19
HETATM   19  C   UNL     1      44.785 -19.661   5.390  1.00  0.00     0.166 C 
BRANCH  19  20
HETATM   20  C   UNL     1      44.536 -20.464   4.127  1.00  0.00     0.003 A 
HETATM   21  C   UNL     1      44.809 -21.842   4.024  1.00  0.00     0.106 A 
HETATM   22  N   UNL     1      44.520 -22.471   2.874  1.00  0.00    -0.352 N 
HETATM   23  H   UNL     1      44.694 -23.470   2.847  1.00  0.00     0.166 HD
HETATM   24  C   UNL     1      43.972 -21.876   1.811  1.00  0.00     0.089 A 
HETATM   25  C   UNL     1      43.672 -20.528   1.853  1.00  0.00     0.018 A 
HETATM   26  C   UNL     1      43.969 -19.817   3.012  1.00  0.00     0.014 A 
BRANCH  21  27
HETATM   27  N   UNL     1      45.183 -22.645   5.072  1.00  0.00    -0.385 N 
HETATM   28  H   UNL     1      44.653 -23.521   5.192  1.00  0.00     0.157 HD
HETATM   29  H   UNL     1      45.469 -22.279   5.969  1.00  0.00     0.157 HD
ENDBRANCH  21  27
ENDBRANCH  19  20
ENDBRANCH   3  19
TORSDOF 6
ENDMDL
MODEL 2
REMARK VINA RESULT:      -7.6      4.614      7.225
REMARK  6 active torsions:
REMARK  status: ('A' for Active; 'I' for Inactive)
REMARK    1  A    between atoms: C_2  and  C_3 
REMARK    2  A    between atoms: C_5  and  N_6 
REMARK       I    between atoms: N_6  and  C_7 
REMARK       I    between atoms: C_7  and  N_8 
REMARK    3  A    between atoms: N_8  and  C_9 
REMARK    4  A    between atoms: C_9  and  C_10 
REMARK    5  A    between atoms: C_11  and  N_12 
REMARK    6  A    between atoms: C_19  and  O_20 
ROOT
HETATM    1  N   UNL     1      39.179 -15.625   2.266  1.00  0.00    -0.306 N 
HETATM    2  C   UNL     1      38.944 -14.747   1.265  1.00  0.00     0.321 C 
HETATM    3  N   UNL     1      39.935 -14.535   0.358  1.00  0.00    -0.338 N 
HETATM    4  O   UNL     1      37.812 -14.297   1.106  1.00  0.00    -0.247 OA
HETATM    5  H   UNL     1      38.333 -16.017   2.667  1.00  0.00     0.171 HD
HETATM    6  H   UNL     1      40.738 -15.148   0.403  1.00  0.00     0.164 HD
ENDROOT
BRANCH   1   7
HETATM    7  C   UNL     1      40.348 -16.030   2.935  1.00  0.00     0.070 A 
HETATM    8  C   UNL     1      41.185 -17.052   2.468  1.00  0.00     0.040 A 
HETATM    9  C   UNL     1      42.409 -17.340   3.105  1.00  0.00    -0.048 A 
HETATM   10  C   UNL     1      42.746 -16.571   4.234  1.00  0.00     0.011 A 
HETATM   11  C   UNL     1      41.918 -15.548   4.706  1.00  0.00     0.039 A 
HETATM   12  C   UNL     1      40.728 -15.257   4.049  1.00  0.00     0.095 A 
BRANCH   9  13
HETATM   13  C   UNL     1      43.402 -18.368   2.522  1.00  0.00    -0.024 C 
HETATM   14  C   UNL     1      44.290 -17.639   1.492  1.00  0.00     0.019 C 
HETATM   15  C   UNL     1      42.693 -19.546   1.816  1.00  0.00     0.019 C 
HETATM   16  C   UNL     1      44.319 -18.990   3.601  1.00  0.00     0.019 C 
ENDBRANCH   9  13
BRANCH  12  17
HETATM   17  O   UNL     1      39.853 -14.254   4.394  1.00  0.00    -0.354 OA
HETATM   18  C   UNL     1      39.945 -13.743   5.720  1.00  0.00     0.210 C 
ENDBRANCH  12  17
ENDBRANCH   1   7
BRANCH   3  19
HETATM   19  C   UNL     1      39.743 -13.684  -0.803  1.00  0.00     0.166 C 
BRANCH  19  20
HETATM   20  C   UNL     1      39.315 -14.432  -2.051  1.00  0.00     0.003 A 
HETATM   21  C   UNL     1      40.202 -15.204  -2.828  1.00  0.00     0.106 A 
HETATM   22  N   UNL     1      39.719 -15.859  -3.896  1.00  0.00    -0.352 N 
HETATM   23  H   UNL     1      40.376 -16.435  -4.410  1.00  0.00     0.166 HD
HETATM   24  C   UNL     1      38.436 -15.840  -4.270  1.00  0.00     0.089 A 
HETATM   25  C   UNL     1      37.516 -15.110  -3.543  1.00  0.00     0.018 A 
HETATM   26  C   UNL     1      37.962 -14.392  -2.437  1.00  0.00     0.014 A 
BRANCH  21  27
HETATM   27  N   UNL     1      41.498 -15.493  -2.481  1.00  0.00    -0.385 N 
HETATM   28  H   UNL     1      42.143 -14.692  -2.407  1.00  0.00     0.157 HD
HETATM   29  H   UNL     1      41.986 -16.311  -2.815  1.00  0.00     0.157 HD
ENDBRANCH  21  27
ENDBRANCH  19  20
ENDBRANCH   3  19
TORSDOF 6
ENDMDL
MODEL 3
REMARK VINA RESULT:      -7.4      3.043      7.210
REMARK  6 active torsions:
REMARK  status: ('A' for Active; 'I' for Inactive)
REMARK    1  A    between atoms: C_2  and  C_3 
REMARK    2  A    between atoms: C_5  and  N_6 
REMARK       I    between atoms: N_6  and  C_7 
REMARK       I    between atoms: C_7  and  N_8 
REMARK    3  A    between atoms: N_8  and  C_9 
REMARK    4  A    between atoms: C_9  and  C_10 
REMARK    5  A    between atoms: C_11  and  N_12 
REMARK    6  A    between atoms: C_19  and  O_20 
ROOT
HETATM    1  N   UNL     1      42.367 -18.773   2.137  1.00  0.00    -0.306 N 
HETATM    2  C   UNL     1      41.777 -17.734   1.505  1.00  0.00     0.321 C 
HETATM    3  N   UNL     1      42.413 -16.531   1.526  1.00  0.00    -0.338 N 
HETATM    4  O   UNL     1      40.787 -17.931   0.804  1.00  0.00    -0.247 OA
HETATM    5  H   UNL     1      42.069 -19.679   1.788  1.00  0.00     0.171 HD
HETATM    6  H   UNL     1      43.356 -16.517   1.892  1.00  0.00     0.164 HD
ENDROOT
BRANCH   1   7
HETATM    7  C   UNL     1      43.229 -18.861   3.244  1.00  0.00     0.070 A 
HETATM    8  C   UNL     1      43.073 -18.089   4.403  1.00  0.00     0.040 A 
HETATM    9  C   UNL     1      43.887 -18.297   5.534  1.00  0.00    -0.048 A 
HETATM   10  C   UNL     1      44.871 -19.300   5.446  1.00  0.00     0.011 A 
HETATM   11  C   UNL     1      45.032 -20.077   4.294  1.00  0.00     0.039 A 
HETATM   12  C   UNL     1      44.201 -19.878   3.197  1.00  0.00     0.095 A 
BRANCH   9  13
HETATM   13  C   UNL     1      43.636 -17.550   6.860  1.00  0.00    -0.024 C 
HETATM   14  C   UNL     1      44.395 -16.208   6.801  1.00  0.00     0.019 C 
HETATM   15  C   UNL     1      44.130 -18.342   8.092  1.00  0.00     0.019 C 
HETATM   16  C   UNL     1      42.138 -17.251   7.102  1.00  0.00     0.019 C 
ENDBRANCH   9  13
BRANCH  12  17
HETATM   17  O   UNL     1      44.239 -20.602   2.029  1.00  0.00    -0.354 OA
HETATM   18  C   UNL     1      44.215 -22.021   2.145  1.00  0.00     0.210 C 
ENDBRANCH  12  17
ENDBRANCH   1   7
BRANCH   3  19
HETATM   19  C   UNL     1      41.906 -15.382   0.797  1.00  0.00     0.166 C 
BRANCH  19  20
HETATM   20  C   UNL     1      41.224 -14.349   1.675  1.00  0.00     0.003 A 
HETATM   21  C   UNL     1      39.880 -14.451   2.082  1.00  0.00     0.106 A 
HETATM   22  N   UNL     1      39.378 -13.504   2.890  1.00  0.00    -0.352 N 
HETATM   23  H   UNL     1      38.419 -13.628   3.195  1.00  0.00     0.166 HD
HETATM   24  C   UNL     1      40.078 -12.463   3.350  1.00  0.00     0.089 A 
HETATM   25  C   UNL     1      41.405 -12.312   2.994  1.00  0.00     0.018 A 
HETATM   26  C   UNL     1      41.975 -13.253   2.142  1.00  0.00     0.014 A 
BRANCH  21  27
HETATM   27  N   UNL     1      39.079 -15.546   1.869  1.00  0.00    -0.385 N 
HETATM   28  H   UNL     1      39.552 -16.460   1.828  1.00  0.00     0.157 HD
HETATM   29  H   UNL     1      38.284 -15.530   1.246  1.00  0.00     0.157 HD
ENDBRANCH  21  27
ENDBRANCH  19  20
ENDBRANCH   3  19
TORSDOF 6
ENDMDL
MODEL 4
REMARK VINA RESULT:      -7.4      3.146      7.285
REMARK  6 active torsions:
REMARK  status: ('A' for Active; 'I' for Inactive)
REMARK    1  A    between atoms: C_2  and  C_3 
REMARK    2  A    between atoms: C_5  and  N_6 
REMARK       I    between atoms: N_6  and  C_7 
REMARK       I    between atoms: C_7  and  N_8 
REMARK    3  A    between atoms: N_8  and  C_9 
REMARK    4  A    between atoms: C_9  and  C_10 
REMARK    5  A    between atoms: C_11  and  N_12 
REMARK    6  A    between atoms: C_19  and  O_20 
ROOT
HETATM    1  N   UNL     1      40.805 -16.394   3.971  1.00  0.00    -0.306 N 
HETATM    2  C   UNL     1      40.819 -15.197   4.601  1.00  0.00     0.321 C 
HETATM    3  N   UNL     1      41.948 -14.444   4.513  1.00  0.00    -0.338 N 
HETATM    4  O   UNL     1      39.781 -14.755   5.088  1.00  0.00    -0.247 OA
HETATM    5  H   UNL     1      39.871 -16.724   3.754  1.00  0.00     0.171 HD
HETATM    6  H   UNL     1      42.660 -14.757   3.867  1.00  0.00     0.164 HD
ENDROOT
BRANCH   1   7
HETATM    7  C   UNL     1      41.811 -17.321   3.647  1.00  0.00     0.070 A 
HETATM    8  C   UNL     1      42.672 -17.884   4.598  1.00  0.00     0.040 A 
HETATM    9  C   UNL     1      43.584 -18.900   4.246  1.00  0.00    -0.048 A 
HETATM   10  C   UNL     1      43.604 -19.312   2.900  1.00  0.00     0.011 A 
HETATM   11  C   UNL     1      42.747 -18.756   1.945  1.00  0.00     0.039 A 
HETATM   12  C   UNL     1      41.833 -17.776   2.315  1.00  0.00     0.095 A 
BRANCH   9  13
HETATM   13  C   UNL     1      44.439 -19.623   5.307  1.00  0.00    -0.024 C 
HETATM   14  C   UNL     1      45.462 -18.611   5.864  1.00  0.00     0.019 C 
HETATM   15  C   UNL     1      45.208 -20.833   4.729  1.00  0.00     0.019 C 
HETATM   16  C   UNL     1      43.596 -20.161   6.486  1.00  0.00     0.019 C 
ENDBRANCH   9  13
BRANCH  12  17
HETATM   17  O   UNL     1      40.917 -17.184   1.477  1.00  0.00    -0.354 OA
HETATM   18  C   UNL     1      41.427 -16.527   0.322  1.00  0.00     0.210 C 
ENDBRANCH  12  17
ENDBRANCH   1   7
BRANCH   3  19
HETATM   19  C   UNL     1      42.025 -13.107   5.075  1.00  0.00     0.166 C 
BRANCH  19  20
HETATM   20  C   UNL     1      42.976 -12.987   6.250  1.00  0.00     0.003 A 
HETATM   21  C   UNL     1      42.753 -12.119   7.337  1.00  0.00     0.106 A 
HETATM   22  N   UNL     1      43.637 -12.112   8.347  1.00  0.00    -0.352 N 
HETATM   23  H   UNL     1      43.425 -11.504   9.131  1.00  0.00     0.166 HD
HETATM   24  C   UNL     1      44.721 -12.891   8.401  1.00  0.00     0.089 A 
HETATM   25  C   UNL     1      44.990 -13.770   7.370  1.00  0.00     0.018 A 
HETATM   26  C   UNL     1      44.120 -13.808   6.284  1.00  0.00     0.014 A 
BRANCH  21  27
HETATM   27  N   UNL     1      41.601 -11.401   7.540  1.00  0.00    -0.385 N 
HETATM   28  H   UNL     1      41.663 -10.382   7.396  1.00  0.00     0.157 HD
HETATM   29  H   UNL     1      40.944 -11.615   8.276  1.00  0.00     0.157 HD
ENDBRANCH  21  27
ENDBRANCH  19  20
ENDBRANCH   3  19
TORSDOF 6
ENDMDL
MODEL 5
REMARK VINA RESULT:      -7.3      2.936      6.242
REMARK  6 active torsions:
REMARK  status: ('A' for Active; 'I' for Inactive)
REMARK    1  A    between atoms: C_2  and  C_3 
REMARK    2  A    between atoms: C_5  and  N_6 
REMARK       I    between atoms: N_6  and  C_7 
REMARK       I    between atoms: C_7  and  N_8 
REMARK    3  A    between atoms: N_8  and  C_9 
REMARK    4  A    between atoms: C_9  and  C_10 
REMARK    5  A    between atoms: C_11  and  N_12 
REMARK    6  A    between atoms: C_19  and  O_20 
ROOT
HETATM    1  N   UNL     1      40.976 -16.758   5.565  1.00  0.00    -0.306 N 
HETATM    2  C   UNL     1      40.755 -15.514   5.082  1.00  0.00     0.321 C 
HETATM    3  N   UNL     1      41.228 -15.219   3.841  1.00  0.00    -0.338 N 
HETATM    4  O   UNL     1      40.007 -14.751   5.689  1.00  0.00    -0.247 OA
HETATM    5  H   UNL     1      40.314 -17.036   6.281  1.00  0.00     0.171 HD
HETATM    6  H   UNL     1      41.596 -15.986   3.295  1.00  0.00     0.164 HD
ENDROOT
BRANCH   1   7
HETATM    7  C   UNL     1      41.995 -17.704   5.352  1.00  0.00     0.070 A 
HETATM    8  C   UNL     1      42.315 -18.217   4.088  1.00  0.00     0.040 A 
HETATM    9  C   UNL     1      43.422 -19.071   3.907  1.00  0.00    -0.048 A 
HETATM   10  C   UNL     1      44.181 -19.395   5.046  1.00  0.00     0.011 A 
HETATM   11  C   UNL     1      43.869 -18.886   6.311  1.00  0.00     0.039 A 
HETATM   12  C   UNL     1      42.791 -18.023   6.468  1.00  0.00     0.095 A 
BRANCH   9  13
HETATM   13  C   UNL     1      43.866 -19.532   2.502  1.00  0.00    -0.024 C 
HETATM   14  C   UNL     1      45.219 -20.258   2.647  1.00  0.00     0.019 C 
HETATM   15  C   UNL     1      44.041 -18.354   1.517  1.00  0.00     0.019 C 
HETATM   16  C   UNL     1      42.858 -20.505   1.848  1.00  0.00     0.019 C 
ENDBRANCH   9  13
BRANCH  12  17
HETATM   17  O   UNL     1      42.412 -17.430   7.649  1.00  0.00    -0.354 OA
HETATM   18  C   UNL     1      43.450 -17.071   8.556  1.00  0.00     0.210 C 
ENDBRANCH  12  17
ENDBRANCH   1   7
BRANCH   3  19
HETATM   19  C   UNL     1      40.959 -13.943   3.201  1.00  0.00     0.166 C 
BRANCH  19  20
HETATM   20  C   UNL     1      40.777 -14.035   1.698  1.00  0.00     0.003 A 
HETATM   21  C   UNL     1      39.739 -14.770   1.091  1.00  0.00     0.106 A 
HETATM   22  N   UNL     1      39.640 -14.760  -0.247  1.00  0.00    -0.352 N 
HETATM   23  H   UNL     1      38.859 -15.268  -0.648  1.00  0.00     0.166 HD
HETATM   24  C   UNL     1      40.460 -14.082  -1.054  1.00  0.00     0.089 A 
HETATM   25  C   UNL     1      41.492 -13.334  -0.520  1.00  0.00     0.018 A 
HETATM   26  C   UNL     1      41.658 -13.323   0.862  1.00  0.00     0.014 A 
BRANCH  21  27
HETATM   27  N   UNL     1      38.698 -15.358   1.768  1.00  0.00    -0.385 N 
HETATM   28  H   UNL     1      38.832 -16.338   2.054  1.00  0.00     0.157 HD
HETATM   29  H   UNL     1      37.730 -15.183   1.542  1.00  0.00     0.157 HD
ENDBRANCH  21  27
ENDBRANCH  19  20
ENDBRANCH   3  19
TORSDOF 6
ENDMDL
MODEL 6
REMARK VINA RESULT:      -7.3      4.419      7.274
REMARK  6 active torsions:
REMARK  status: ('A' for Active; 'I' for Inactive)
REMARK    1  A    between atoms: C_2  and  C_3 
REMARK    2  A    between atoms: C_5  and  N_6 
REMARK       I    between atoms: N_6  and  C_7 
REMARK       I    between atoms: C_7  and  N_8 
REMARK    3  A    between atoms: N_8  and  C_9 
REMARK    4  A    between atoms: C_9  and  C_10 
REMARK    5  A    between atoms: C_11  and  N_12 
REMARK    6  A    between atoms: C_19  and  O_20 
ROOT
HETATM    1  N   UNL     1      39.027 -15.439   2.300  1.00  0.00    -0.306 N 
HETATM    2  C   UNL     1      38.709 -14.735   1.190  1.00  0.00     0.321 C 
HETATM    3  N   UNL     1      39.623 -14.684   0.184  1.00  0.00    -0.338 N 
HETATM    4  O   UNL     1      37.565 -14.307   1.049  1.00  0.00    -0.247 OA
HETATM    5  H   UNL     1      38.217 -15.752   2.825  1.00  0.00     0.171 HD
HETATM    6  H   UNL     1      40.430 -15.288   0.265  1.00  0.00     0.164 HD
ENDROOT
BRANCH   1   7
HETATM    7  C   UNL     1      40.247 -15.738   2.931  1.00  0.00     0.070 A 
HETATM    8  C   UNL     1      41.092 -16.776   2.516  1.00  0.00     0.040 A 
HETATM    9  C   UNL     1      42.362 -16.961   3.101  1.00  0.00    -0.048 A 
HETATM   10  C   UNL     1      42.737 -16.072   4.125  1.00  0.00     0.011 A 
HETATM   11  C   UNL     1      41.900 -15.033   4.544  1.00  0.00     0.039 A 
HETATM   12  C   UNL     1      40.664 -14.846   3.937  1.00  0.00     0.095 A 
BRANCH   9  13
HETATM   13  C   UNL     1      43.355 -18.012   2.561  1.00  0.00    -0.024 C 
HETATM   14  C   UNL     1      42.539 -19.146   1.908  1.00  0.00     0.019 C 
HETATM   15  C   UNL     1      44.242 -18.618   3.672  1.00  0.00     0.019 C 
HETATM   16  C   UNL     1      44.318 -17.431   1.499  1.00  0.00     0.019 C 
ENDBRANCH   9  13
BRANCH  12  17
HETATM   17  O   UNL     1      39.775 -13.841   4.236  1.00  0.00    -0.354 OA
HETATM   18  C   UNL     1      39.669 -13.454   5.602  1.00  0.00     0.210 C 
ENDBRANCH  12  17
ENDBRANCH   1   7
BRANCH   3  19
HETATM   19  C   UNL     1      39.335 -14.033  -1.082  1.00  0.00     0.166 C 
BRANCH  19  20
HETATM   20  C   UNL     1      40.560 -13.471  -1.777  1.00  0.00     0.003 A 
HETATM   21  C   UNL     1      41.477 -14.269  -2.489  1.00  0.00     0.106 A 
HETATM   22  N   UNL     1      42.511 -13.672  -3.102  1.00  0.00    -0.352 N 
HETATM   23  H   UNL     1      43.130 -14.272  -3.637  1.00  0.00     0.166 HD
HETATM   24  C   UNL     1      42.727 -12.354  -3.094  1.00  0.00     0.089 A 
HETATM   25  C   UNL     1      41.858 -11.516  -2.422  1.00  0.00     0.018 A 
HETATM   26  C   UNL     1      40.778 -12.080  -1.750  1.00  0.00     0.014 A 
BRANCH  21  27
HETATM   27  N   UNL     1      41.303 -15.603  -2.765  1.00  0.00    -0.385 N 
HETATM   28  H   UNL     1      40.368 -15.993  -2.574  1.00  0.00     0.157 HD
HETATM   29  H   UNL     1      42.017 -16.296  -2.595  1.00  0.00     0.157 HD
ENDBRANCH  21  27
ENDBRANCH  19  20
ENDBRANCH   3  19
TORSDOF 6
ENDMDL
MODEL 7
REMARK VINA RESULT:      -7.2      3.261      7.470
REMARK  6 active torsions:
REMARK  status: ('A' for Active; 'I' for Inactive)
REMARK    1  A    between atoms: C_2  and  C_3 
REMARK    2  A    between atoms: C_5  and  N_6 
REMARK       I    between atoms: N_6  and  C_7 
REMARK       I    between atoms: C_7  and  N_8 
REMARK    3  A    between atoms: N_8  and  C_9 
REMARK    4  A    between atoms: C_9  and  C_10 
REMARK    5  A    between atoms: C_11  and  N_12 
REMARK    6  A    between atoms: C_19  and  O_20 
ROOT
HETATM    1  N   UNL     1      42.501 -18.279   1.955  1.00  0.00    -0.306 N 
HETATM    2  C   UNL     1      41.466 -17.439   1.728  1.00  0.00     0.321 C 
HETATM    3  N   UNL     1      41.365 -16.326   2.504  1.00  0.00    -0.338 N 
HETATM    4  O   UNL     1      40.752 -17.608   0.742  1.00  0.00    -0.247 OA
HETATM    5  H   UNL     1      42.739 -18.852   1.153  1.00  0.00     0.171 HD
HETATM    6  H   UNL     1      42.146 -16.119   3.113  1.00  0.00     0.164 HD
ENDROOT
BRANCH   1   7
HETATM    7  C   UNL     1      43.248 -18.594   3.104  1.00  0.00     0.070 A 
HETATM    8  C   UNL     1      43.177 -17.855   4.293  1.00  0.00     0.040 A 
HETATM    9  C   UNL     1      43.851 -18.280   5.457  1.00  0.00    -0.048 A 
HETATM   10  C   UNL     1      44.607 -19.463   5.370  1.00  0.00     0.011 A 
HETATM   11  C   UNL     1      44.681 -20.207   4.188  1.00  0.00     0.039 A 
HETATM   12  C   UNL     1      43.988 -19.791   3.058  1.00  0.00     0.095 A 
BRANCH   9  13
HETATM   13  C   UNL     1      43.671 -17.553   6.806  1.00  0.00    -0.024 C 
HETATM   14  C   UNL     1      44.209 -18.476   7.919  1.00  0.00     0.019 C 
HETATM   15  C   UNL     1      42.192 -17.223   7.111  1.00  0.00     0.019 C 
HETATM   16  C   UNL     1      44.442 -16.214   6.869  1.00  0.00     0.019 C 
ENDBRANCH   9  13
BRANCH  12  17
HETATM   17  O   UNL     1      43.953 -20.456   1.855  1.00  0.00    -0.354 OA
HETATM   18  C   UNL     1      44.082 -21.873   1.895  1.00  0.00     0.210 C 
ENDBRANCH  12  17
ENDBRANCH   1   7
BRANCH   3  19
HETATM   19  C   UNL     1      40.344 -15.320   2.274  1.00  0.00     0.166 C 
BRANCH  19  20
HETATM   20  C   UNL     1      40.106 -14.402   3.458  1.00  0.00     0.003 A 
HETATM   21  C   UNL     1      39.495 -13.138   3.342  1.00  0.00     0.106 A 
HETATM   22  N   UNL     1      39.295 -12.415   4.455  1.00  0.00    -0.352 N 
HETATM   23  H   UNL     1      38.819 -11.527   4.341  1.00  0.00     0.166 HD
HETATM   24  C   UNL     1      39.628 -12.822   5.683  1.00  0.00     0.089 A 
HETATM   25  C   UNL     1      40.221 -14.057   5.864  1.00  0.00     0.018 A 
HETATM   26  C   UNL     1      40.473 -14.843   4.744  1.00  0.00     0.014 A 
BRANCH  21  27
HETATM   27  N   UNL     1      38.916 -12.651   2.196  1.00  0.00    -0.385 N 
HETATM   28  H   UNL     1      38.055 -12.098   2.316  1.00  0.00     0.157 HD
HETATM   29  H   UNL     1      38.883 -13.175   1.334  1.00  0.00     0.157 HD
ENDBRANCH  21  27
ENDBRANCH  19  20
ENDBRANCH   3  19
TORSDOF 6
ENDMDL
MODEL 8
REMARK VINA RESULT:      -7.0      3.681      7.621
REMARK  6 active torsions:
REMARK  status: ('A' for Active; 'I' for Inactive)
REMARK    1  A    between atoms: C_2  and  C_3 
REMARK    2  A    between atoms: C_5  and  N_6 
REMARK       I    between atoms: N_6  and  C_7 
REMARK       I    between atoms: C_7  and  N_8 
REMARK    3  A    between atoms: N_8  and  C_9 
REMARK    4  A    between atoms: C_9  and  C_10 
REMARK    5  A    between atoms: C_11  and  N_12 
REMARK    6  A    between atoms: C_19  and  O_20 
ROOT
HETATM    1  N   UNL     1      43.437 -14.780   2.617  1.00  0.00    -0.306 N 
HETATM    2  C   UNL     1      42.448 -13.859   2.565  1.00  0.00     0.321 C 
HETATM    3  N   UNL     1      41.417 -13.980   3.444  1.00  0.00    -0.338 N 
HETATM    4  O   UNL     1      42.580 -12.866   1.853  1.00  0.00    -0.247 OA
HETATM    5  H   UNL     1      44.316 -14.450   2.232  1.00  0.00     0.171 HD
HETATM    6  H   UNL     1      41.518 -14.668   4.178  1.00  0.00     0.164 HD
ENDROOT
BRANCH   1   7
HETATM    7  C   UNL     1      43.472 -16.131   3.003  1.00  0.00     0.070 A 
HETATM    8  C   UNL     1      43.767 -16.551   4.307  1.00  0.00     0.040 A 
HETATM    9  C   UNL     1      43.671 -17.909   4.676  1.00  0.00    -0.048 A 
HETATM   10  C   UNL     1      43.282 -18.823   3.679  1.00  0.00     0.011 A 
HETATM   11  C   UNL     1      42.984 -18.412   2.376  1.00  0.00     0.039 A 
HETATM   12  C   UNL     1      43.056 -17.066   2.036  1.00  0.00     0.095 A 
BRANCH   9  13
HETATM   13  C   UNL     1      43.859 -18.365   6.138  1.00  0.00    -0.024 C 
HETATM   14  C   UNL     1      43.689 -19.897   6.183  1.00  0.00     0.019 C 
HETATM   15  C   UNL     1      42.830 -17.726   7.097  1.00  0.00     0.019 C 
HETATM   16  C   UNL     1      45.258 -18.013   6.697  1.00  0.00     0.019 C 
ENDBRANCH   9  13
BRANCH  12  17
HETATM   17  O   UNL     1      42.751 -16.539   0.803  1.00  0.00    -0.354 OA
HETATM   18  C   UNL     1      41.414 -16.704   0.341  1.00  0.00     0.210 C 
ENDBRANCH  12  17
ENDBRANCH   1   7
BRANCH   3  19
HETATM   19  C   UNL     1      40.359 -12.989   3.527  1.00  0.00     0.166 C 
BRANCH  19  20
HETATM   20  C   UNL     1      40.038 -12.547   4.942  1.00  0.00     0.003 A 
HETATM   21  C   UNL     1      39.582 -13.430   5.940  1.00  0.00     0.106 A 
HETATM   22  N   UNL     1      39.361 -12.949   7.173  1.00  0.00    -0.352 N 
HETATM   23  H   UNL     1      39.070 -13.619   7.877  1.00  0.00     0.166 HD
HETATM   24  C   UNL     1      39.558 -11.676   7.528  1.00  0.00     0.089 A 
HETATM   25  C   UNL     1      40.014 -10.763   6.596  1.00  0.00     0.018 A 
HETATM   26  C   UNL     1      40.242 -11.199   5.295  1.00  0.00     0.014 A 
BRANCH  21  27
HETATM   27  N   UNL     1      39.515 -14.795   5.806  1.00  0.00    -0.385 N 
HETATM   28  H   UNL     1      40.407 -15.285   5.646  1.00  0.00     0.157 HD
HETATM   29  H   UNL     1      38.763 -15.262   5.320  1.00  0.00     0.157 HD
ENDBRANCH  21  27
ENDBRANCH  19  20
ENDBRANCH   3  19
TORSDOF 6
ENDMDL
MODEL 9
REMARK VINA RESULT:      -7.0      3.566      7.833
REMARK  6 active torsions:
REMARK  status: ('A' for Active; 'I' for Inactive)
REMARK    1  A    between atoms: C_2  and  C_3 
REMARK    2  A    between atoms: C_5  and  N_6 
REMARK       I    between atoms: N_6  and  C_7 
REMARK       I    between atoms: C_7  and  N_8 
REMARK    3  A    between atoms: N_8  and  C_9 
REMARK    4  A    between atoms: C_9  and  C_10 
REMARK    5  A    between atoms: C_11  and  N_12 
REMARK    6  A    between atoms: C_19  and  O_20 
ROOT
HETATM    1  N   UNL     1      40.583 -16.197   4.393  1.00  0.00    -0.306 N 
HETATM    2  C   UNL     1      40.451 -14.853   4.457  1.00  0.00     0.321 C 
HETATM    3  N   UNL     1      41.149 -14.100   3.565  1.00  0.00    -0.338 N 
HETATM    4  O   UNL     1      39.597 -14.361   5.191  1.00  0.00    -0.247 OA
HETATM    5  H   UNL     1      39.799 -16.700   4.795  1.00  0.00     0.171 HD
HETATM    6  H   UNL     1      41.619 -14.593   2.816  1.00  0.00     0.164 HD
ENDROOT
BRANCH   1   7
HETATM    7  C   UNL     1      41.629 -17.041   3.978  1.00  0.00     0.070 A 
HETATM    8  C   UNL     1      42.544 -17.624   4.865  1.00  0.00     0.040 A 
HETATM    9  C   UNL     1      43.499 -18.559   4.417  1.00  0.00    -0.048 A 
HETATM   10  C   UNL     1      43.506 -18.869   3.044  1.00  0.00     0.011 A 
HETATM   11  C   UNL     1      42.596 -18.292   2.153  1.00  0.00     0.039 A 
HETATM   12  C   UNL     1      41.641 -17.394   2.615  1.00  0.00     0.095 A 
BRANCH   9  13
HETATM   13  C   UNL     1      44.419 -19.310   5.402  1.00  0.00    -0.024 C 
HETATM   14  C   UNL     1      45.212 -20.365   4.603  1.00  0.00     0.019 C 
HETATM   15  C   UNL     1      43.632 -20.029   6.521  1.00  0.00     0.019 C 
HETATM   16  C   UNL     1      45.428 -18.374   6.107  1.00  0.00     0.019 C 
ENDBRANCH   9  13
BRANCH  12  17
HETATM   17  O   UNL     1      40.673 -16.794   1.844  1.00  0.00    -0.354 OA
HETATM   18  C   UNL     1      41.097 -16.194   0.624  1.00  0.00     0.210 C 
ENDBRANCH  12  17
ENDBRANCH   1   7
BRANCH   3  19
HETATM   19  C   UNL     1      40.999 -12.658   3.494  1.00  0.00     0.166 C 
BRANCH  19  20
HETATM   20  C   UNL     1      39.849 -12.201   2.618  1.00  0.00     0.003 A 
HETATM   21  C   UNL     1      38.625 -11.732   3.135  1.00  0.00     0.106 A 
HETATM   22  N   UNL     1      37.680 -11.316   2.278  1.00  0.00    -0.352 N 
HETATM   23  H   UNL     1      36.827 -10.949   2.685  1.00  0.00     0.166 HD
HETATM   24  C   UNL     1      37.827 -11.302   0.950  1.00  0.00     0.089 A 
HETATM   25  C   UNL     1      39.008 -11.739   0.381  1.00  0.00     0.018 A 
HETATM   26  C   UNL     1      40.017 -12.203   1.220  1.00  0.00     0.014 A 
BRANCH  21  27
HETATM   27  N   UNL     1      38.378 -11.494   4.465  1.00  0.00    -0.385 N 
HETATM   28  H   UNL     1      38.270 -10.507   4.742  1.00  0.00     0.157 HD
HETATM   29  H   UNL     1      38.812 -12.024   5.206  1.00  0.00     0.157 HD
ENDBRANCH  21  27
ENDBRANCH  19  20
ENDBRANCH   3  19
TORSDOF 6
ENDMDL
MODEL 10
REMARK VINA RESULT:      -6.9      2.659      3.386
REMARK  6 active torsions:
REMARK  status: ('A' for Active; 'I' for Inactive)
REMARK    1  A    between atoms: C_2  and  C_3 
REMARK    2  A    between atoms: C_5  and  N_6 
REMARK       I    between atoms: N_6  and  C_7 
REMARK       I    between atoms: C_7  and  N_8 
REMARK    3  A    between atoms: N_8  and  C_9 
REMARK    4  A    between atoms: C_9  and  C_10 
REMARK    5  A    between atoms: C_11  and  N_12 
REMARK    6  A    between atoms: C_19  and  O_20 
ROOT
HETATM    1  N   UNL     1      40.012 -15.181   5.846  1.00  0.00    -0.306 N 
HETATM    2  C   UNL     1      40.991 -16.103   5.984  1.00  0.00     0.321 C 
HETATM    3  N   UNL     1      42.229 -15.793   5.512  1.00  0.00    -0.338 N 
HETATM    4  O   UNL     1      40.789 -17.108   6.663  1.00  0.00    -0.247 OA
HETATM    5  H   UNL     1      39.256 -15.292   6.515  1.00  0.00     0.171 HD
HETATM    6  H   UNL     1      42.380 -14.840   5.211  1.00  0.00     0.164 HD
ENDROOT
BRANCH   1   7
HETATM    7  C   UNL     1      39.774 -14.165   4.904  1.00  0.00     0.070 A 
HETATM    8  C   UNL     1      39.749 -14.389   3.522  1.00  0.00     0.040 A 
HETATM    9  C   UNL     1      39.387 -13.365   2.623  1.00  0.00    -0.048 A 
HETATM   10  C   UNL     1      39.068 -12.109   3.170  1.00  0.00     0.011 A 
HETATM   11  C   UNL     1      39.089 -11.876   4.549  1.00  0.00     0.039 A 
HETATM   12  C   UNL     1      39.420 -12.905   5.423  1.00  0.00     0.095 A 
BRANCH   9  13
HETATM   13  C   UNL     1      39.222 -13.636   1.112  1.00  0.00    -0.024 C 
HETATM   14  C   UNL     1      37.783 -14.138   0.874  1.00  0.00     0.019 C 
HETATM   15  C   UNL     1      40.209 -14.702   0.588  1.00  0.00     0.019 C 
HETATM   16  C   UNL     1      39.444 -12.370   0.252  1.00  0.00     0.019 C 
ENDBRANCH   9  13
BRANCH  12  17
HETATM   17  O   UNL     1      39.438 -12.808   6.795  1.00  0.00    -0.354 OA
HETATM   18  C   UNL     1      39.698 -11.523   7.350  1.00  0.00     0.210 C 
ENDBRANCH  12  17
ENDBRANCH   1   7
BRANCH   3  19
HETATM   19  C   UNL     1      43.365 -16.679   5.697  1.00  0.00     0.166 C 
BRANCH  19  20
HETATM   20  C   UNL     1      43.638 -17.586   4.513  1.00  0.00     0.003 A 
HETATM   21  C   UNL     1      44.075 -18.919   4.649  1.00  0.00     0.106 A 
HETATM   22  N   UNL     1      44.254 -19.654   3.540  1.00  0.00    -0.352 N 
HETATM   23  H   UNL     1      44.532 -20.620   3.675  1.00  0.00     0.166 HD
HETATM   24  C   UNL     1      44.031 -19.207   2.301  1.00  0.00     0.089 A 
HETATM   25  C   UNL     1      43.592 -17.912   2.102  1.00  0.00     0.018 A 
HETATM   26  C   UNL     1      43.408 -17.095   3.214  1.00  0.00     0.014 A 
BRANCH  21  27
HETATM   27  N   UNL     1      44.162 -19.596   5.840  1.00  0.00    -0.385 N 
HETATM   28  H   UNL     1      44.879 -19.268   6.503  1.00  0.00     0.157 HD
HETATM   29  H   UNL     1      44.043 -20.596   5.912  1.00  0.00     0.157 HD
ENDBRANCH  21  27
ENDBRANCH  19  20
ENDBRANCH   3  19
TORSDOF 6
ENDMDL
