MODEL 1
REMARK VINA RESULT:      -8.4      0.000      0.000
REMARK  6 active torsions:
REMARK  status: ('A' for Active; 'I' for Inactive)
REMARK    1  A    between atoms: O_1  and  C_2 
REMARK    2  A    between atoms: C_2  and  CA_3 
REMARK    3  A    between atoms: CA_3  and  N_4 
REMARK    4  A    between atoms: CA_3  and  C_20 
REMARK       I    between atoms: N_4  and  C_5 
REMARK       I    between atoms: C_5  and  N_7 
REMARK    5  A    between atoms: N_7  and  C_8 
REMARK    6  A    between atoms: C_11  and  C_14 
ROOT
HETATM    1  N   UNL     1      44.530 -13.606   8.223  1.00  0.00    -0.332 N 
HETATM    2  C   UNL     1      43.974 -14.174   7.129  1.00  0.00     0.322 C 
HETATM    3  O   UNL     1      43.801 -13.732   6.011  1.00  0.00    -0.247 OA
HETATM    4  N   UNL     1      43.521 -15.460   7.437  1.00  0.00    -0.289 N 
HETATM    5  H   UNL     1      44.649 -14.117   9.084  1.00  0.00     0.165 HD
HETATM    6  H   UNL     1      43.511 -15.852   8.360  1.00  0.00     0.172 HD
ENDROOT
BRANCH   1   7
HETATM    7  CA  UNL     1      45.104 -12.263   8.189  1.00  0.00     0.143 C 
BRANCH   7   8
HETATM    8  C   UNL     1      46.647 -12.274   8.322  1.00  0.00     0.194 C 
BRANCH   8   9
HETATM    9  O   UNL     1      47.206 -11.048   7.855  1.00  0.00    -0.398 OA
HETATM   10  H   UNL     1      46.619 -10.332   8.162  1.00  0.00     0.209 HD
ENDBRANCH   8   9
ENDBRANCH   7   8
BRANCH   7  11
HETATM   11  C   UNL     1      44.429 -11.435   9.270  1.00  0.00    -0.033 A 
HETATM   12  C   UNL     1      43.146 -10.914   9.048  1.00  0.00     0.009 A 
HETATM   13  C   UNL     1      42.483 -10.198  10.047  1.00  0.00     0.001 A 
HETATM   14  C   UNL     1      43.092  -9.997  11.284  1.00  0.00     0.000 A 
HETATM   15  C   UNL     1      44.361 -10.513  11.524  1.00  0.00     0.001 A 
HETATM   16  C   UNL     1      45.026 -11.232  10.528  1.00  0.00     0.009 A 
ENDBRANCH   7  11
ENDBRANCH   1   7
BRANCH   4  17
HETATM   17  C   UNL     1      43.032 -16.258   6.503  1.00  0.00     0.153 A 
HETATM   18  N   UNL     1      43.727 -17.089   5.723  1.00  0.00    -0.335 N 
HETATM   19  H   UNL     1      44.746 -17.086   5.808  1.00  0.00     0.168 HD
HETATM   20  C   UNL     1      42.951 -17.887   4.898  1.00  0.00     0.051 A 
HETATM   21  C   UNL     1      41.612 -17.578   5.019  1.00  0.00     0.083 A 
HETATM   22  S   UNL     1      41.337 -16.348   6.196  1.00  0.00    -0.063 SA
BRANCH  20  23
HETATM   23  C   UNL     1      43.500 -18.929   4.029  1.00  0.00    -0.006 A 
HETATM   24  C   UNL     1      43.077 -19.076   2.701  1.00  0.00     0.033 A 
HETATM   25  C   UNL     1      43.608 -20.104   1.937  1.00  0.00     0.117 A 
HETATM   26  N   UNL     1      44.515 -20.983   2.400  1.00  0.00    -0.273 NA
HETATM   27  C   UNL     1      44.917 -20.834   3.674  1.00  0.00     0.117 A 
HETATM   28  C   UNL     1      44.448 -19.836   4.517  1.00  0.00     0.033 A 
ENDBRANCH  20  23
ENDBRANCH   4  17
TORSDOF 6
ENDMDL
MODEL 2
REMARK VINA RESULT:      -8.2      2.454      9.374
REMARK  6 active torsions:
REMARK  status: ('A' for Active; 'I' for Inactive)
REMARK    1  A    between atoms: O_1  and  C_2 
REMARK    2  A    between atoms: C_2  and  CA_3 
REMARK    3  A    between atoms: CA_3  and  N_4 
REMARK    4  A    between atoms: CA_3  and  C_20 
REMARK       I    between atoms: N_4  and  C_5 
REMARK       I    between atoms: C_5  and  N_7 
REMARK    5  A    between atoms: N_7  and  C_8 
REMARK    6  A    between atoms: C_11  and  C_14 
ROOT
HETATM    1  N   UNL     1      43.495 -15.721   5.723  1.00  0.00    -0.332 N 
HETATM    2  C   UNL     1      43.526 -14.491   6.285  1.00  0.00     0.322 C 
HETATM    3  O   UNL     1      42.777 -13.544   6.156  1.00  0.00    -0.247 OA
HETATM    4  N   UNL     1      44.656 -14.366   7.099  1.00  0.00    -0.289 N 
HETATM    5  H   UNL     1      44.169 -16.431   5.962  1.00  0.00     0.165 HD
HETATM    6  H   UNL     1      45.388 -15.050   7.162  1.00  0.00     0.172 HD
ENDROOT
BRANCH   1   7
HETATM    7  CA  UNL     1      42.413 -16.136   4.834  1.00  0.00     0.143 C 
BRANCH   7   8
HETATM    8  C   UNL     1      41.236 -16.792   5.598  1.00  0.00     0.194 C 
BRANCH   8   9
HETATM    9  O   UNL     1      40.181 -15.855   5.807  1.00  0.00    -0.398 OA
HETATM   10  H   UNL     1      39.775 -15.683   4.936  1.00  0.00     0.209 HD
ENDBRANCH   8   9
ENDBRANCH   7   8
BRANCH   7  11
HETATM   11  C   UNL     1      43.001 -17.048   3.771  1.00  0.00    -0.033 A 
HETATM   12  C   UNL     1      43.054 -18.432   3.994  1.00  0.00     0.009 A 
HETATM   13  C   UNL     1      43.538 -19.296   3.010  1.00  0.00     0.001 A 
HETATM   14  C   UNL     1      43.971 -18.789   1.786  1.00  0.00     0.000 A 
HETATM   15  C   UNL     1      43.918 -17.420   1.544  1.00  0.00     0.001 A 
HETATM   16  C   UNL     1      43.431 -16.554   2.526  1.00  0.00     0.009 A 
ENDBRANCH   7  11
ENDBRANCH   1   7
BRANCH   4  17
HETATM   17  C   UNL     1      44.855 -13.289   7.840  1.00  0.00     0.153 A 
HETATM   18  N   UNL     1      43.951 -12.672   8.603  1.00  0.00    -0.335 N 
HETATM   19  H   UNL     1      42.991 -13.023   8.589  1.00  0.00     0.168 HD
HETATM   20  C   UNL     1      44.454 -11.624   9.356  1.00  0.00     0.051 A 
HETATM   21  C   UNL     1      45.788 -11.405   9.079  1.00  0.00     0.083 A 
HETATM   22  S   UNL     1      46.405 -12.540   7.937  1.00  0.00    -0.063 SA
BRANCH  20  23
HETATM   23  C   UNL     1      43.661 -10.869  10.327  1.00  0.00    -0.006 A 
HETATM   24  C   UNL     1      44.192 -10.474  11.563  1.00  0.00     0.033 A 
HETATM   25  C   UNL     1      43.381  -9.791  12.456  1.00  0.00     0.117 A 
HETATM   26  N   UNL     1      42.096  -9.481  12.206  1.00  0.00    -0.273 NA
HETATM   27  C   UNL     1      41.594  -9.862  11.018  1.00  0.00     0.117 A 
HETATM   28  C   UNL     1      42.325 -10.546  10.057  1.00  0.00     0.033 A 
ENDBRANCH  20  23
ENDBRANCH   4  17
TORSDOF 6
ENDMDL
MODEL 3
REMARK VINA RESULT:      -7.9      5.733      9.461
REMARK  6 active torsions:
REMARK  status: ('A' for Active; 'I' for Inactive)
REMARK    1  A    between atoms: O_1  and  C_2 
REMARK    2  A    between atoms: C_2  and  CA_3 
REMARK    3  A    between atoms: CA_3  and  N_4 
REMARK    4  A    between atoms: CA_3  and  C_20 
REMARK       I    between atoms: N_4  and  C_5 
REMARK       I    between atoms: C_5  and  N_7 
REMARK    5  A    between atoms: N_7  and  C_8 
REMARK    6  A    between atoms: C_11  and  C_14 
ROOT
HETATM    1  N   UNL     1      43.319 -17.286   2.615  1.00  0.00    -0.332 N 
HETATM    2  C   UNL     1      42.280 -16.754   1.932  1.00  0.00     0.322 C 
HETATM    3  O   UNL     1      41.084 -16.926   2.053  1.00  0.00    -0.247 OA
HETATM    4  N   UNL     1      42.753 -15.912   0.921  1.00  0.00    -0.289 N 
HETATM    5  H   UNL     1      44.271 -17.012   2.430  1.00  0.00     0.165 HD
HETATM    6  H   UNL     1      43.720 -15.813   0.673  1.00  0.00     0.172 HD
ENDROOT
BRANCH   1   7
HETATM    7  CA  UNL     1      43.119 -18.195   3.741  1.00  0.00     0.143 C 
BRANCH   7   8
HETATM    8  C   UNL     1      43.756 -17.667   5.050  1.00  0.00     0.194 C 
BRANCH   8   9
HETATM    9  O   UNL     1      43.577 -16.257   5.169  1.00  0.00    -0.398 OA
HETATM   10  H   UNL     1      42.659 -16.110   5.465  1.00  0.00     0.209 HD
ENDBRANCH   8   9
ENDBRANCH   7   8
BRANCH   7  11
HETATM   11  C   UNL     1      43.649 -19.562   3.343  1.00  0.00    -0.033 A 
HETATM   12  C   UNL     1      44.421 -20.301   4.253  1.00  0.00     0.009 A 
HETATM   13  C   UNL     1      44.872 -21.582   3.930  1.00  0.00     0.001 A 
HETATM   14  C   UNL     1      44.554 -22.146   2.696  1.00  0.00     0.000 A 
HETATM   15  C   UNL     1      43.783 -21.431   1.785  1.00  0.00     0.001 A 
HETATM   16  C   UNL     1      43.328 -20.150   2.106  1.00  0.00     0.009 A 
ENDBRANCH   7  11
ENDBRANCH   1   7
BRANCH   4  17
HETATM   17  C   UNL     1      41.926 -15.193   0.183  1.00  0.00     0.153 A 
HETATM   18  N   UNL     1      41.223 -15.619  -0.868  1.00  0.00    -0.335 N 
HETATM   19  H   UNL     1      41.362 -16.583  -1.180  1.00  0.00     0.168 HD
HETATM   20  C   UNL     1      40.353 -14.679  -1.397  1.00  0.00     0.051 A 
HETATM   21  C   UNL     1      40.473 -13.467  -0.749  1.00  0.00     0.083 A 
HETATM   22  S   UNL     1      41.615 -13.534   0.540  1.00  0.00    -0.063 SA
BRANCH  20  23
HETATM   23  C   UNL     1      39.424 -14.960  -2.493  1.00  0.00    -0.006 A 
HETATM   24  C   UNL     1      39.722 -15.903  -3.486  1.00  0.00     0.033 A 
HETATM   25  C   UNL     1      38.817 -16.101  -4.518  1.00  0.00     0.117 A 
HETATM   26  N   UNL     1      37.655 -15.433  -4.626  1.00  0.00    -0.273 NA
HETATM   27  C   UNL     1      37.374 -14.533  -3.667  1.00  0.00     0.117 A 
HETATM   28  C   UNL     1      38.213 -14.265  -2.595  1.00  0.00     0.033 A 
ENDBRANCH  20  23
ENDBRANCH   4  17
TORSDOF 6
ENDMDL
MODEL 4
REMARK VINA RESULT:      -7.8      1.899      2.334
REMARK  6 active torsions:
REMARK  status: ('A' for Active; 'I' for Inactive)
REMARK    1  A    between atoms: O_1  and  C_2 
REMARK    2  A    between atoms: C_2  and  CA_3 
REMARK    3  A    between atoms: CA_3  and  N_4 
REMARK    4  A    between atoms: CA_3  and  C_20 
REMARK       I    between atoms: N_4  and  C_5 
REMARK       I    between atoms: C_5  and  N_7 
REMARK    5  A    between atoms: N_7  and  C_8 
REMARK    6  A    between atoms: C_11  and  C_14 
ROOT
HETATM    1  N   UNL     1      44.253 -13.601   8.590  1.00  0.00    -0.332 N 
HETATM    2  C   UNL     1      44.178 -14.212   7.385  1.00  0.00     0.322 C 
HETATM    3  O   UNL     1      44.354 -13.776   6.266  1.00  0.00    -0.247 OA
HETATM    4  N   UNL     1      43.794 -15.546   7.550  1.00  0.00    -0.289 N 
HETATM    5  H   UNL     1      44.123 -14.108   9.451  1.00  0.00     0.165 HD
HETATM    6  H   UNL     1      43.510 -15.951   8.422  1.00  0.00     0.172 HD
ENDROOT
BRANCH   1   7
HETATM    7  CA  UNL     1      44.648 -12.201   8.722  1.00  0.00     0.143 C 
BRANCH   7   8
HETATM    8  C   UNL     1      46.186 -12.017   8.730  1.00  0.00     0.194 C 
BRANCH   8   9
HETATM    9  O   UNL     1      46.533 -10.649   8.939  1.00  0.00    -0.398 OA
HETATM   10  H   UNL     1      47.410 -10.512   8.534  1.00  0.00     0.209 HD
ENDBRANCH   8   9
ENDBRANCH   7   8
BRANCH   7  11
HETATM   11  C   UNL     1      43.985 -11.640   9.969  1.00  0.00    -0.033 A 
HETATM   12  C   UNL     1      43.169 -10.503   9.872  1.00  0.00     0.009 A 
HETATM   13  C   UNL     1      42.506 -10.003  10.994  1.00  0.00     0.001 A 
HETATM   14  C   UNL     1      42.643 -10.636  12.227  1.00  0.00     0.000 A 
HETATM   15  C   UNL     1      43.441 -11.769  12.340  1.00  0.00     0.001 A 
HETATM   16  C   UNL     1      44.104 -12.274  11.219  1.00  0.00     0.009 A 
ENDBRANCH   7  11
ENDBRANCH   1   7
BRANCH   4  17
HETATM   17  C   UNL     1      43.753 -16.381   6.525  1.00  0.00     0.153 A 
HETATM   18  N   UNL     1      43.054 -16.222   5.399  1.00  0.00    -0.335 N 
HETATM   19  H   UNL     1      42.446 -15.404   5.322  1.00  0.00     0.168 HD
HETATM   20  C   UNL     1      43.273 -17.202   4.444  1.00  0.00     0.051 A 
HETATM   21  C   UNL     1      44.123 -18.181   4.918  1.00  0.00     0.083 A 
HETATM   22  S   UNL     1      44.681 -17.835   6.512  1.00  0.00    -0.063 SA
BRANCH  20  23
HETATM   23  C   UNL     1      42.682 -17.177   3.105  1.00  0.00    -0.006 A 
HETATM   24  C   UNL     1      41.293 -17.146   2.916  1.00  0.00     0.033 A 
HETATM   25  C   UNL     1      40.791 -17.158   1.623  1.00  0.00     0.117 A 
HETATM   26  N   UNL     1      41.566 -17.200   0.525  1.00  0.00    -0.273 NA
HETATM   27  C   UNL     1      42.898 -17.226   0.715  1.00  0.00     0.117 A 
HETATM   28  C   UNL     1      43.496 -17.214   1.967  1.00  0.00     0.033 A 
ENDBRANCH  20  23
ENDBRANCH   4  17
TORSDOF 6
ENDMDL
MODEL 5
REMARK VINA RESULT:      -7.7      6.845     10.082
REMARK  6 active torsions:
REMARK  status: ('A' for Active; 'I' for Inactive)
REMARK    1  A    between atoms: O_1  and  C_2 
REMARK    2  A    between atoms: C_2  and  CA_3 
REMARK    3  A    between atoms: CA_3  and  N_4 
REMARK    4  A    between atoms: CA_3  and  C_20 
REMARK       I    between atoms: N_4  and  C_5 
REMARK       I    between atoms: C_5  and  N_7 
REMARK    5  A    between atoms: N_7  and  C_8 
REMARK    6  A    between atoms: C_11  and  C_14 
ROOT
HETATM    1  N   UNL     1      42.277 -16.991   1.553  1.00  0.00    -0.332 N 
HETATM    2  C   UNL     1      41.387 -16.146   0.984  1.00  0.00     0.322 C 
HETATM    3  O   UNL     1      40.263 -15.837   1.325  1.00  0.00    -0.247 OA
HETATM    4  N   UNL     1      41.915 -15.621  -0.199  1.00  0.00    -0.289 N 
HETATM    5  H   UNL     1      43.204 -17.117   1.176  1.00  0.00     0.165 HD
HETATM    6  H   UNL     1      42.778 -15.917  -0.615  1.00  0.00     0.172 HD
ENDROOT
BRANCH   1   7
HETATM    7  CA  UNL     1      41.997 -17.675   2.812  1.00  0.00     0.143 C 
BRANCH   7   8
HETATM    8  C   UNL     1      42.017 -16.714   4.027  1.00  0.00     0.194 C 
BRANCH   8   9
HETATM    9  O   UNL     1      40.693 -16.326   4.390  1.00  0.00    -0.398 OA
HETATM   10  H   UNL     1      40.651 -15.354   4.317  1.00  0.00     0.209 HD
ENDBRANCH   8   9
ENDBRANCH   7   8
BRANCH   7  11
HETATM   11  C   UNL     1      42.985 -18.820   2.956  1.00  0.00    -0.033 A 
HETATM   12  C   UNL     1      43.729 -18.952   4.138  1.00  0.00     0.009 A 
HETATM   13  C   UNL     1      44.602 -20.028   4.316  1.00  0.00     0.001 A 
HETATM   14  C   UNL     1      44.739 -20.989   3.317  1.00  0.00     0.000 A 
HETATM   15  C   UNL     1      44.003 -20.879   2.142  1.00  0.00     0.001 A 
HETATM   16  C   UNL     1      43.127 -19.806   1.962  1.00  0.00     0.009 A 
ENDBRANCH   7  11
ENDBRANCH   1   7
BRANCH   4  17
HETATM   17  C   UNL     1      41.273 -14.689  -0.884  1.00  0.00     0.153 A 
HETATM   18  N   UNL     1      40.212 -14.871  -1.672  1.00  0.00    -0.335 N 
HETATM   19  H   UNL     1      39.877 -15.826  -1.812  1.00  0.00     0.168 HD
HETATM   20  C   UNL     1      39.674 -13.704  -2.189  1.00  0.00     0.051 A 
HETATM   21  C   UNL     1      40.423 -12.603  -1.824  1.00  0.00     0.083 A 
HETATM   22  S   UNL     1      41.741 -13.031  -0.799  1.00  0.00    -0.063 SA
BRANCH  20  23
HETATM   23  C   UNL     1      38.458 -13.662  -3.003  1.00  0.00    -0.006 A 
HETATM   24  C   UNL     1      37.798 -12.457  -3.278  1.00  0.00     0.033 A 
HETATM   25  C   UNL     1      36.630 -12.485  -4.025  1.00  0.00     0.117 A 
HETATM   26  N   UNL     1      36.084 -13.616  -4.508  1.00  0.00    -0.273 NA
HETATM   27  C   UNL     1      36.724 -14.768  -4.242  1.00  0.00     0.117 A 
HETATM   28  C   UNL     1      37.898 -14.843  -3.507  1.00  0.00     0.033 A 
ENDBRANCH  20  23
ENDBRANCH   4  17
TORSDOF 6
ENDMDL
MODEL 6
REMARK VINA RESULT:      -7.7      5.921      8.878
REMARK  6 active torsions:
REMARK  status: ('A' for Active; 'I' for Inactive)
REMARK    1  A    between atoms: O_1  and  C_2 
REMARK    2  A    between atoms: C_2  and  CA_3 
REMARK    3  A    between atoms: CA_3  and  N_4 
REMARK    4  A    between atoms: CA_3  and  C_20 
REMARK       I    between atoms: N_4  and  C_5 
REMARK       I    between atoms: C_5  and  N_7 
REMARK    5  A    between atoms: N_7  and  C_8 
REMARK    6  A    between atoms: C_11  and  C_14 
ROOT
HETATM    1  N   UNL     1      41.724 -16.090   3.639  1.00  0.00    -0.332 N 
HETATM    2  C   UNL     1      40.969 -15.849   2.542  1.00  0.00     0.322 C 
HETATM    3  O   UNL     1      40.033 -16.465   2.076  1.00  0.00    -0.247 OA
HETATM    4  N   UNL     1      41.440 -14.710   1.880  1.00  0.00    -0.289 N 
HETATM    5  H   UNL     1      42.451 -15.457   3.932  1.00  0.00     0.165 HD
HETATM    6  H   UNL     1      42.279 -14.219   2.124  1.00  0.00     0.172 HD
ENDROOT
BRANCH   1   7
HETATM    7  CA  UNL     1      41.450 -17.213   4.532  1.00  0.00     0.143 C 
BRANCH   7   8
HETATM    8  C   UNL     1      41.322 -16.774   6.013  1.00  0.00     0.194 C 
BRANCH   8   9
HETATM    9  O   UNL     1      39.955 -16.747   6.418  1.00  0.00    -0.398 OA
HETATM   10  H   UNL     1      39.416 -16.817   5.607  1.00  0.00     0.209 HD
ENDBRANCH   8   9
ENDBRANCH   7   8
BRANCH   7  11
HETATM   11  C   UNL     1      42.534 -18.256   4.323  1.00  0.00    -0.033 A 
HETATM   12  C   UNL     1      42.875 -18.653   3.021  1.00  0.00     0.009 A 
HETATM   13  C   UNL     1      43.906 -19.569   2.802  1.00  0.00     0.001 A 
HETATM   14  C   UNL     1      44.615 -20.096   3.879  1.00  0.00     0.000 A 
HETATM   15  C   UNL     1      44.296 -19.707   5.176  1.00  0.00     0.001 A 
HETATM   16  C   UNL     1      43.266 -18.789   5.399  1.00  0.00     0.009 A 
ENDBRANCH   7  11
ENDBRANCH   1   7
BRANCH   4  17
HETATM   17  C   UNL     1      40.802 -14.211   0.835  1.00  0.00     0.153 A 
HETATM   18  N   UNL     1      40.406 -14.880  -0.249  1.00  0.00    -0.335 N 
HETATM   19  H   UNL     1      40.655 -15.869  -0.320  1.00  0.00     0.168 HD
HETATM   20  C   UNL     1      39.666 -14.130  -1.149  1.00  0.00     0.051 A 
HETATM   21  C   UNL     1      39.571 -12.814  -0.744  1.00  0.00     0.083 A 
HETATM   22  S   UNL     1      40.350 -12.547   0.771  1.00  0.00    -0.063 SA
BRANCH  20  23
HETATM   23  C   UNL     1      39.057 -14.684  -2.359  1.00  0.00    -0.006 A 
HETATM   24  C   UNL     1      39.745 -15.589  -3.180  1.00  0.00     0.033 A 
HETATM   25  C   UNL     1      39.129 -16.053  -4.332  1.00  0.00     0.117 A 
HETATM   26  N   UNL     1      37.895 -15.682  -4.717  1.00  0.00    -0.273 NA
HETATM   27  C   UNL     1      37.240 -14.816  -3.923  1.00  0.00     0.117 A 
HETATM   28  C   UNL     1      37.769 -14.297  -2.749  1.00  0.00     0.033 A 
ENDBRANCH  20  23
ENDBRANCH   4  17
TORSDOF 6
ENDMDL
MODEL 7
REMARK VINA RESULT:      -7.5      6.245     10.094
REMARK  6 active torsions:
REMARK  status: ('A' for Active; 'I' for Inactive)
REMARK    1  A    between atoms: O_1  and  C_2 
REMARK    2  A    between atoms: C_2  and  CA_3 
REMARK    3  A    between atoms: CA_3  and  N_4 
REMARK    4  A    between atoms: CA_3  and  C_20 
REMARK       I    between atoms: N_4  and  C_5 
REMARK       I    between atoms: C_5  and  N_7 
REMARK    5  A    between atoms: N_7  and  C_8 
REMARK    6  A    between atoms: C_11  and  C_14 
ROOT
HETATM    1  N   UNL     1      42.705 -17.243   1.633  1.00  0.00    -0.332 N 
HETATM    2  C   UNL     1      41.582 -16.723   1.087  1.00  0.00     0.322 C 
HETATM    3  O   UNL     1      40.443 -16.688   1.506  1.00  0.00    -0.247 OA
HETATM    4  N   UNL     1      41.865 -16.196  -0.176  1.00  0.00    -0.289 N 
HETATM    5  H   UNL     1      43.603 -17.157   1.183  1.00  0.00     0.165 HD
HETATM    6  H   UNL     1      42.746 -16.295  -0.647  1.00  0.00     0.172 HD
ENDROOT
BRANCH   1   7
HETATM    7  CA  UNL     1      42.707 -17.850   2.962  1.00  0.00     0.143 C 
BRANCH   7   8
HETATM    8  C   UNL     1      43.360 -16.937   4.030  1.00  0.00     0.194 C 
BRANCH   8   9
HETATM    9  O   UNL     1      42.368 -16.197   4.739  1.00  0.00    -0.398 OA
HETATM   10  H   UNL     1      41.930 -15.614   4.091  1.00  0.00     0.209 HD
ENDBRANCH   8   9
ENDBRANCH   7   8
BRANCH   7  11
HETATM   11  C   UNL     1      43.386 -19.206   2.859  1.00  0.00    -0.033 A 
HETATM   12  C   UNL     1      44.255 -19.628   3.876  1.00  0.00     0.009 A 
HETATM   13  C   UNL     1      44.846 -20.892   3.831  1.00  0.00     0.001 A 
HETATM   14  C   UNL     1      44.573 -21.755   2.772  1.00  0.00     0.000 A 
HETATM   15  C   UNL     1      43.706 -21.356   1.759  1.00  0.00     0.001 A 
HETATM   16  C   UNL     1      43.111 -20.093   1.802  1.00  0.00     0.009 A 
ENDBRANCH   7  11
ENDBRANCH   1   7
BRANCH   4  17
HETATM   17  C   UNL     1      40.950 -15.538  -0.868  1.00  0.00     0.153 A 
HETATM   18  N   UNL     1      40.001 -14.742  -0.373  1.00  0.00    -0.335 N 
HETATM   19  H   UNL     1      39.926 -14.658   0.643  1.00  0.00     0.168 HD
HETATM   20  C   UNL     1      39.237 -14.095  -1.331  1.00  0.00     0.051 A 
HETATM   21  C   UNL     1      39.591 -14.491  -2.604  1.00  0.00     0.083 A 
HETATM   22  S   UNL     1      40.903 -15.610  -2.590  1.00  0.00    -0.063 SA
BRANCH  20  23
HETATM   23  C   UNL     1      38.203 -13.109  -1.013  1.00  0.00    -0.006 A 
HETATM   24  C   UNL     1      37.683 -12.980   0.282  1.00  0.00     0.033 A 
HETATM   25  C   UNL     1      36.680 -12.052   0.515  1.00  0.00     0.117 A 
HETATM   26  N   UNL     1      36.166 -11.258  -0.441  1.00  0.00    -0.273 NA
HETATM   27  C   UNL     1      36.671 -11.385  -1.680  1.00  0.00     0.117 A 
HETATM   28  C   UNL     1      37.677 -12.281  -2.012  1.00  0.00     0.033 A 
ENDBRANCH  20  23
ENDBRANCH   4  17
TORSDOF 6
ENDMDL
MODEL 8
REMARK VINA RESULT:      -7.5      6.279      8.322
REMARK  6 active torsions:
REMARK  status: ('A' for Active; 'I' for Inactive)
REMARK    1  A    between atoms: O_1  and  C_2 
REMARK    2  A    between atoms: C_2  and  CA_3 
REMARK    3  A    between atoms: CA_3  and  N_4 
REMARK    4  A    between atoms: CA_3  and  C_20 
REMARK       I    between atoms: N_4  and  C_5 
REMARK       I    between atoms: C_5  and  N_7 
REMARK    5  A    between atoms: N_7  and  C_8 
REMARK    6  A    between atoms: C_11  and  C_14 
ROOT
HETATM    1  N   UNL     1      41.692 -14.635  -0.240  1.00  0.00    -0.332 N 
HETATM    2  C   UNL     1      41.762 -15.741   0.537  1.00  0.00     0.322 C 
HETATM    3  O   UNL     1      41.179 -16.803   0.453  1.00  0.00    -0.247 OA
HETATM    4  N   UNL     1      42.639 -15.521   1.603  1.00  0.00    -0.289 N 
HETATM    5  H   UNL     1      42.277 -13.831  -0.072  1.00  0.00     0.165 HD
HETATM    6  H   UNL     1      43.062 -14.637   1.816  1.00  0.00     0.172 HD
ENDROOT
BRANCH   1   7
HETATM    7  CA  UNL     1      40.859 -14.585  -1.439  1.00  0.00     0.143 C 
BRANCH   7   8
HETATM    8  C   UNL     1      41.617 -14.015  -2.664  1.00  0.00     0.194 C 
BRANCH   8   9
HETATM    9  O   UNL     1      42.035 -15.064  -3.535  1.00  0.00    -0.398 OA
HETATM   10  H   UNL     1      42.635 -15.638  -3.023  1.00  0.00     0.209 HD
ENDBRANCH   8   9
ENDBRANCH   7   8
BRANCH   7  11
HETATM   11  C   UNL     1      39.605 -13.795  -1.108  1.00  0.00    -0.033 A 
HETATM   12  C   UNL     1      38.924 -14.042   0.094  1.00  0.00     0.009 A 
HETATM   13  C   UNL     1      37.801 -13.290   0.446  1.00  0.00     0.001 A 
HETATM   14  C   UNL     1      37.346 -12.276  -0.395  1.00  0.00     0.000 A 
HETATM   15  C   UNL     1      38.014 -12.012  -1.587  1.00  0.00     0.001 A 
HETATM   16  C   UNL     1      39.139 -12.761  -1.940  1.00  0.00     0.009 A 
ENDBRANCH   7  11
ENDBRANCH   1   7
BRANCH   4  17
HETATM   17  C   UNL     1      42.955 -16.491   2.444  1.00  0.00     0.153 A 
HETATM   18  N   UNL     1      43.174 -17.770   2.136  1.00  0.00    -0.335 N 
HETATM   19  H   UNL     1      43.041 -18.060   1.164  1.00  0.00     0.168 HD
HETATM   20  C   UNL     1      43.591 -18.554   3.200  1.00  0.00     0.051 A 
HETATM   21  C   UNL     1      43.609 -17.833   4.376  1.00  0.00     0.083 A 
HETATM   22  S   UNL     1      43.169 -16.185   4.128  1.00  0.00    -0.063 SA
BRANCH  20  23
HETATM   23  C   UNL     1      43.973 -19.962   3.069  1.00  0.00    -0.006 A 
HETATM   24  C   UNL     1      43.759 -20.674   1.881  1.00  0.00     0.033 A 
HETATM   25  C   UNL     1      44.110 -22.014   1.829  1.00  0.00     0.117 A 
HETATM   26  N   UNL     1      44.649 -22.683   2.864  1.00  0.00    -0.273 NA
HETATM   27  C   UNL     1      44.854 -21.992   3.999  1.00  0.00     0.117 A 
HETATM   28  C   UNL     1      44.539 -20.649   4.149  1.00  0.00     0.033 A 
ENDBRANCH  20  23
ENDBRANCH   4  17
TORSDOF 6
ENDMDL
MODEL 9
REMARK VINA RESULT:      -7.3      5.720      9.213
REMARK  6 active torsions:
REMARK  status: ('A' for Active; 'I' for Inactive)
REMARK    1  A    between atoms: O_1  and  C_2 
REMARK    2  A    between atoms: C_2  and  CA_3 
REMARK    3  A    between atoms: CA_3  and  N_4 
REMARK    4  A    between atoms: CA_3  and  C_20 
REMARK       I    between atoms: N_4  and  C_5 
REMARK       I    between atoms: C_5  and  N_7 
REMARK    5  A    between atoms: N_7  and  C_8 
REMARK    6  A    between atoms: C_11  and  C_14 
ROOT
HETATM    1  N   UNL     1      39.165 -14.349   0.475  1.00  0.00    -0.332 N 
HETATM    2  C   UNL     1      40.220 -14.911   1.108  1.00  0.00     0.322 C 
HETATM    3  O   UNL     1      41.404 -14.898   0.835  1.00  0.00    -0.247 OA
HETATM    4  N   UNL     1      39.780 -15.634   2.221  1.00  0.00    -0.289 N 
HETATM    5  H   UNL     1      38.231 -14.407   0.848  1.00  0.00     0.165 HD
HETATM    6  H   UNL     1      38.816 -15.799   2.444  1.00  0.00     0.172 HD
ENDROOT
BRANCH   1   7
HETATM    7  CA  UNL     1      39.332 -13.521  -0.717  1.00  0.00     0.143 C 
BRANCH   7   8
HETATM    8  C   UNL     1      38.396 -12.287  -0.717  1.00  0.00     0.194 C 
BRANCH   8   9
HETATM    9  O   UNL     1      37.385 -12.416   0.281  1.00  0.00    -0.398 OA
HETATM   10  H   UNL     1      36.940 -13.271   0.127  1.00  0.00     0.209 HD
ENDBRANCH   8   9
ENDBRANCH   7   8
BRANCH   7  11
HETATM   11  C   UNL     1      39.133 -14.406  -1.936  1.00  0.00    -0.033 A 
HETATM   12  C   UNL     1      37.886 -14.431  -2.581  1.00  0.00     0.009 A 
HETATM   13  C   UNL     1      37.696 -15.193  -3.735  1.00  0.00     0.001 A 
HETATM   14  C   UNL     1      38.749 -15.936  -4.265  1.00  0.00     0.000 A 
HETATM   15  C   UNL     1      39.993 -15.916  -3.644  1.00  0.00     0.001 A 
HETATM   16  C   UNL     1      40.188 -15.152  -2.490  1.00  0.00     0.009 A 
ENDBRANCH   7  11
ENDBRANCH   1   7
BRANCH   4  17
HETATM   17  C   UNL     1      40.635 -16.189   3.062  1.00  0.00     0.153 A 
HETATM   18  N   UNL     1      41.385 -17.270   2.836  1.00  0.00    -0.335 N 
HETATM   19  H   UNL     1      41.264 -17.760   1.947  1.00  0.00     0.168 HD
HETATM   20  C   UNL     1      42.273 -17.576   3.855  1.00  0.00     0.051 A 
HETATM   21  C   UNL     1      42.120 -16.720   4.926  1.00  0.00     0.083 A 
HETATM   22  S   UNL     1      40.923 -15.517   4.624  1.00  0.00    -0.063 SA
BRANCH  20  23
HETATM   23  C   UNL     1      43.251 -18.663   3.778  1.00  0.00    -0.006 A 
HETATM   24  C   UNL     1      43.424 -19.414   2.607  1.00  0.00     0.033 A 
HETATM   25  C   UNL     1      44.341 -20.454   2.606  1.00  0.00     0.117 A 
HETATM   26  N   UNL     1      45.083 -20.793   3.676  1.00  0.00    -0.273 NA
HETATM   27  C   UNL     1      44.912 -20.066   4.795  1.00  0.00     0.117 A 
HETATM   28  C   UNL     1      44.023 -19.006   4.894  1.00  0.00     0.033 A 
ENDBRANCH  20  23
ENDBRANCH   4  17
TORSDOF 6
ENDMDL
MODEL 10
REMARK VINA RESULT:      -7.3      6.331      8.854
REMARK  6 active torsions:
REMARK  status: ('A' for Active; 'I' for Inactive)
REMARK    1  A    between atoms: O_1  and  C_2 
REMARK    2  A    between atoms: C_2  and  CA_3 
REMARK    3  A    between atoms: CA_3  and  N_4 
REMARK    4  A    between atoms: CA_3  and  C_20 
REMARK       I    between atoms: N_4  and  C_5 
REMARK       I    between atoms: C_5  and  N_7 
REMARK    5  A    between atoms: N_7  and  C_8 
REMARK    6  A    between atoms: C_11  and  C_14 
ROOT
HETATM    1  N   UNL     1      41.786 -14.565  -0.587  1.00  0.00    -0.332 N 
HETATM    2  C   UNL     1      41.790 -15.635   0.240  1.00  0.00     0.322 C 
HETATM    3  O   UNL     1      41.134 -16.657   0.212  1.00  0.00    -0.247 OA
HETATM    4  N   UNL     1      42.695 -15.428   1.285  1.00  0.00    -0.289 N 
HETATM    5  H   UNL     1      42.427 -13.797  -0.463  1.00  0.00     0.165 HD
HETATM    6  H   UNL     1      43.180 -14.566   1.452  1.00  0.00     0.172 HD
ENDROOT
BRANCH   1   7
HETATM    7  CA  UNL     1      40.943 -14.512  -1.778  1.00  0.00     0.143 C 
BRANCH   7   8
HETATM    8  C   UNL     1      41.237 -15.670  -2.764  1.00  0.00     0.194 C 
BRANCH   8   9
HETATM    9  O   UNL     1      40.152 -16.596  -2.798  1.00  0.00    -0.398 OA
HETATM   10  H   UNL     1      40.057 -16.956  -1.895  1.00  0.00     0.209 HD
ENDBRANCH   8   9
ENDBRANCH   7   8
BRANCH   7  11
HETATM   11  C   UNL     1      41.113 -13.144  -2.416  1.00  0.00    -0.033 A 
HETATM   12  C   UNL     1      39.996 -12.479  -2.945  1.00  0.00     0.009 A 
HETATM   13  C   UNL     1      40.119 -11.197  -3.486  1.00  0.00     0.001 A 
HETATM   14  C   UNL     1      41.357 -10.560  -3.500  1.00  0.00     0.000 A 
HETATM   15  C   UNL     1      42.474 -11.200  -2.973  1.00  0.00     0.001 A 
HETATM   16  C   UNL     1      42.354 -12.482  -2.429  1.00  0.00     0.009 A 
ENDBRANCH   7  11
ENDBRANCH   1   7
BRANCH   4  17
HETATM   17  C   UNL     1      42.954 -16.378   2.168  1.00  0.00     0.153 A 
HETATM   18  N   UNL     1      43.175 -17.667   1.906  1.00  0.00    -0.335 N 
HETATM   19  H   UNL     1      43.093 -17.981   0.937  1.00  0.00     0.168 HD
HETATM   20  C   UNL     1      43.525 -18.426   3.012  1.00  0.00     0.051 A 
HETATM   21  C   UNL     1      43.488 -17.673   4.167  1.00  0.00     0.083 A 
HETATM   22  S   UNL     1      43.079 -16.028   3.853  1.00  0.00    -0.063 SA
BRANCH  20  23
HETATM   23  C   UNL     1      43.899 -19.840   2.939  1.00  0.00    -0.006 A 
HETATM   24  C   UNL     1      43.649 -20.608   1.794  1.00  0.00     0.033 A 
HETATM   25  C   UNL     1      43.994 -21.951   1.798  1.00  0.00     0.117 A 
HETATM   26  N   UNL     1      44.560 -22.570   2.849  1.00  0.00    -0.273 NA
HETATM   27  C   UNL     1      44.800 -21.826   3.943  1.00  0.00     0.117 A 
HETATM   28  C   UNL     1      44.494 -20.475   4.036  1.00  0.00     0.033 A 
ENDBRANCH  20  23
ENDBRANCH   4  17
TORSDOF 6
ENDMDL
