MODEL 1
REMARK VINA RESULT:      -7.8      0.000      0.000
REMARK  9 active torsions:
REMARK  status: ('A' for Active; 'I' for Inactive)
REMARK    1  A    between atoms: C_2  and  O_3 
REMARK    2  A    between atoms: O_3  and  C_4 
REMARK    3  A    between atoms: C_4  and  C_5 
REMARK    4  A    between atoms: C_11  and  O_12 
REMARK    5  A    between atoms: C_13  and  C_14 
REMARK    6  A    between atoms: C_14  and  N_15 
REMARK    7  A    between atoms: N_22  and  C_23 
REMARK    8  A    between atoms: C_29  and  C_30 
REMARK    9  A    between atoms: C_30  and  N_31 
ROOT
HETATM    1  C   UNL     1      41.603 -13.987   4.106  1.00  0.00     0.077 C 
HETATM    2  C   UNL     1      40.481 -13.103   3.851  1.00  0.00     0.020 A 
HETATM    3  C   UNL     1      40.387 -12.987   2.456  1.00  0.00     0.053 A 
HETATM    4  C   UNL     1      39.423 -12.165   1.838  1.00  0.00     0.053 A 
HETATM    5  C   UNL     1      38.593 -11.392   2.638  1.00  0.00     0.047 A 
HETATM    6 BR   UNL     1      37.354 -10.227   1.804  1.00  0.00    -0.048 Br
HETATM    7  C   UNL     1      38.655 -11.495   4.022  1.00  0.00     0.092 A 
HETATM    8  C   UNL     1      39.534 -12.394   4.677  1.00  0.00     0.016 A 
HETATM    9  N   UNL     1      41.310 -13.858   1.882  1.00  0.00    -0.312 N 
HETATM   10  C   UNL     1      42.136 -14.377   2.869  1.00  0.00     0.060 C 
ENDROOT
BRANCH   8  11
HETATM   11  C   UNL     1      39.485 -12.521   6.193  1.00  0.00     0.277 C 
BRANCH  11  12
HETATM   12  N   UNL     1      39.803 -11.273   6.981  1.00  0.00    -0.063 N 
HETATM   13  H   UNL     1      39.273 -10.522   6.504  1.00  0.00     0.280 HD
HETATM   14  C   UNL     1      39.319 -11.318   8.421  1.00  0.00     0.261 C 
HETATM   15  C   UNL     1      39.651  -9.993   9.114  1.00  0.00     0.195 C 
HETATM   16  O   UNL     1      41.057  -9.730   9.054  1.00  0.00    -0.388 OA
HETATM   17  C   UNL     1      41.516  -9.610   7.703  1.00  0.00     0.195 C 
HETATM   18  C   UNL     1      41.277 -10.908   6.924  1.00  0.00     0.261 C 
ENDBRANCH  11  12
ENDBRANCH   8  11
BRANCH   7  19
HETATM   19  O   UNL     1      37.823 -10.717   4.801  1.00  0.00    -0.359 OA
HETATM   20  H   UNL     1      37.035 -11.269   5.015  1.00  0.00     0.218 HD
ENDBRANCH   7  19
BRANCH   1  21
HETATM   21  C   UNL     1      42.147 -14.365   5.415  1.00  0.00     0.296 C 
HETATM   22  O   UNL     1      41.663 -15.261   6.091  1.00  0.00    -0.259 OA
BRANCH  21  23
HETATM   23  O   UNL     1      43.241 -13.634   5.758  1.00  0.00    -0.318 OA
BRANCH  23  24
HETATM   24  C   UNL     1      44.298 -14.351   6.426  1.00  0.00     0.174 C 
HETATM   25  C   UNL     1      44.753 -13.585   7.653  1.00  0.00     0.034 C 
ENDBRANCH  23  24
ENDBRANCH  21  23
ENDBRANCH   1  21
BRANCH  10  26
HETATM   26  C   UNL     1      43.380 -15.184   2.588  1.00  0.00     0.293 C 
BRANCH  26  27
HETATM   27  N   UNL     1      43.226 -16.691   2.589  1.00  0.00    -0.066 N 
HETATM   28  H   UNL     1      42.225 -16.906   2.500  1.00  0.00     0.280 HD
HETATM   29  C   UNL     1      43.938 -17.378   1.448  1.00  0.00     0.235 C 
HETATM   30  C   UNL     1      43.603 -18.864   1.468  1.00  0.00     0.028 C 
HETATM   31  C   UNL     1      43.953 -19.506   2.805  1.00  0.00     0.003 C 
HETATM   32  C   UNL     1      43.304 -18.757   3.963  1.00  0.00     0.028 C 
HETATM   33  C   UNL     1      43.638 -17.273   3.929  1.00  0.00     0.235 C 
ENDBRANCH  26  27
ENDBRANCH  10  26
BRANCH   9  34
HETATM   34  C   UNL     1      41.436 -14.116   0.492  1.00  0.00     0.040 A 
HETATM   35  C   UNL     1      40.971 -15.325  -0.037  1.00  0.00     0.030 A 
HETATM   36  C   UNL     1      41.020 -15.535  -1.415  1.00  0.00     0.002 A 
HETATM   37  C   UNL     1      41.535 -14.547  -2.256  1.00  0.00     0.000 A 
HETATM   38  C   UNL     1      42.009 -13.348  -1.724  1.00  0.00     0.002 A 
HETATM   39  C   UNL     1      41.960 -13.125  -0.349  1.00  0.00     0.030 A 
ENDBRANCH   9  34
TORSDOF 9
ENDMDL
MODEL 2
REMARK VINA RESULT:      -7.6      2.905      5.944
REMARK  9 active torsions:
REMARK  status: ('A' for Active; 'I' for Inactive)
REMARK    1  A    between atoms: C_2  and  O_3 
REMARK    2  A    between atoms: O_3  and  C_4 
REMARK    3  A    between atoms: C_4  and  C_5 
REMARK    4  A    between atoms: C_11  and  O_12 
REMARK    5  A    between atoms: C_13  and  C_14 
REMARK    6  A    between atoms: C_14  and  N_15 
REMARK    7  A    between atoms: N_22  and  C_23 
REMARK    8  A    between atoms: C_29  and  C_30 
REMARK    9  A    between atoms: C_30  and  N_31 
ROOT
HETATM    1  C   UNL     1      40.971 -15.385   1.575  1.00  0.00     0.077 C 
HETATM    2  C   UNL     1      40.610 -14.975   2.919  1.00  0.00     0.020 A 
HETATM    3  C   UNL     1      40.048 -13.695   2.797  1.00  0.00     0.053 A 
HETATM    4  C   UNL     1      39.614 -12.959   3.918  1.00  0.00     0.053 A 
HETATM    5  C   UNL     1      39.817 -13.490   5.184  1.00  0.00     0.047 A 
HETATM    6 BR   UNL     1      39.307 -12.464   6.693  1.00  0.00    -0.048 Br
HETATM    7  C   UNL     1      40.359 -14.760   5.336  1.00  0.00     0.092 A 
HETATM    8  C   UNL     1      40.704 -15.574   4.227  1.00  0.00     0.016 A 
HETATM    9  N   UNL     1      39.942 -13.391   1.441  1.00  0.00    -0.312 N 
HETATM   10  C   UNL     1      40.610 -14.353   0.696  1.00  0.00     0.060 C 
ENDROOT
BRANCH   8  11
HETATM   11  C   UNL     1      41.209 -16.991   4.465  1.00  0.00     0.277 C 
BRANCH  11  12
HETATM   12  N   UNL     1      42.286 -17.152   5.511  1.00  0.00    -0.063 N 
HETATM   13  H   UNL     1      41.840 -16.844   6.393  1.00  0.00     0.280 HD
HETATM   14  C   UNL     1      42.732 -18.591   5.712  1.00  0.00     0.261 C 
HETATM   15  C   UNL     1      43.790 -18.648   6.819  1.00  0.00     0.195 C 
HETATM   16  O   UNL     1      44.902 -17.806   6.499  1.00  0.00    -0.388 OA
HETATM   17  C   UNL     1      44.511 -16.434   6.380  1.00  0.00     0.195 C 
HETATM   18  C   UNL     1      43.483 -16.252   5.258  1.00  0.00     0.261 C 
ENDBRANCH  11  12
ENDBRANCH   8  11
BRANCH   7  19
HETATM   19  O   UNL     1      40.556 -15.270   6.603  1.00  0.00    -0.359 OA
HETATM   20  H   UNL     1      40.739 -14.503   7.193  1.00  0.00     0.218 HD
ENDBRANCH   7  19
BRANCH   1  21
HETATM   21  C   UNL     1      41.655 -16.622   1.185  1.00  0.00     0.296 C 
HETATM   22  O   UNL     1      41.050 -17.608   0.788  1.00  0.00    -0.259 OA
BRANCH  21  23
HETATM   23  O   UNL     1      43.007 -16.528   1.293  1.00  0.00    -0.318 OA
BRANCH  23  24
HETATM   24  C   UNL     1      43.752 -17.722   0.980  1.00  0.00     0.174 C 
HETATM   25  C   UNL     1      44.046 -18.500   2.249  1.00  0.00     0.034 C 
ENDBRANCH  23  24
ENDBRANCH  21  23
ENDBRANCH   1  21
BRANCH  10  26
HETATM   26  C   UNL     1      40.884 -14.231  -0.783  1.00  0.00     0.293 C 
BRANCH  26  27
HETATM   27  N   UNL     1      39.911 -14.926  -1.713  1.00  0.00    -0.066 N 
HETATM   28  H   UNL     1      39.385 -15.616  -1.162  1.00  0.00     0.280 HD
HETATM   29  C   UNL     1      38.905 -13.997  -2.349  1.00  0.00     0.235 C 
HETATM   30  C   UNL     1      37.898 -14.814  -3.147  1.00  0.00     0.028 C 
HETATM   31  C   UNL     1      38.580 -15.689  -4.193  1.00  0.00     0.003 C 
HETATM   32  C   UNL     1      39.657 -16.563  -3.561  1.00  0.00     0.028 C 
HETATM   33  C   UNL     1      40.652 -15.738  -2.759  1.00  0.00     0.235 C 
ENDBRANCH  26  27
ENDBRANCH  10  26
BRANCH   9  34
HETATM   34  C   UNL     1      39.315 -12.235   0.909  1.00  0.00     0.040 A 
HETATM   35  C   UNL     1      40.078 -11.099   0.619  1.00  0.00     0.030 A 
HETATM   36  C   UNL     1      39.469  -9.998   0.017  1.00  0.00     0.002 A 
HETATM   37  C   UNL     1      38.108 -10.031  -0.288  1.00  0.00     0.000 A 
HETATM   38  C   UNL     1      37.347 -11.160   0.013  1.00  0.00     0.002 A 
HETATM   39  C   UNL     1      37.946 -12.268   0.610  1.00  0.00     0.030 A 
ENDBRANCH   9  34
TORSDOF 9
ENDMDL
MODEL 3
REMARK VINA RESULT:      -7.5      2.705      5.721
REMARK  9 active torsions:
REMARK  status: ('A' for Active; 'I' for Inactive)
REMARK    1  A    between atoms: C_2  and  O_3 
REMARK    2  A    between atoms: O_3  and  C_4 
REMARK    3  A    between atoms: C_4  and  C_5 
REMARK    4  A    between atoms: C_11  and  O_12 
REMARK    5  A    between atoms: C_13  and  C_14 
REMARK    6  A    between atoms: C_14  and  N_15 
REMARK    7  A    between atoms: N_22  and  C_23 
REMARK    8  A    between atoms: C_29  and  C_30 
REMARK    9  A    between atoms: C_30  and  N_31 
ROOT
HETATM    1  C   UNL     1      39.694 -14.198   2.862  1.00  0.00     0.077 C 
HETATM    2  C   UNL     1      39.607 -13.098   3.803  1.00  0.00     0.020 A 
HETATM    3  C   UNL     1      40.264 -13.528   4.966  1.00  0.00     0.053 A 
HETATM    4  C   UNL     1      40.343 -12.724   6.120  1.00  0.00     0.053 A 
HETATM    5  C   UNL     1      39.687 -11.502   6.130  1.00  0.00     0.047 A 
HETATM    6 BR   UNL     1      39.726 -10.459   7.711  1.00  0.00    -0.048 Br
HETATM    7  C   UNL     1      39.038 -11.043   4.989  1.00  0.00     0.092 A 
HETATM    8  C   UNL     1      39.033 -11.774   3.775  1.00  0.00     0.016 A 
HETATM    9  N   UNL     1      40.844 -14.768   4.706  1.00  0.00    -0.312 N 
HETATM   10  C   UNL     1      40.403 -15.240   3.477  1.00  0.00     0.060 C 
ENDROOT
BRANCH   8  11
HETATM   11  C   UNL     1      38.380 -11.172   2.539  1.00  0.00     0.277 C 
BRANCH  11  12
HETATM   12  N   UNL     1      39.288 -10.914   1.359  1.00  0.00    -0.063 N 
HETATM   13  H   UNL     1      39.645 -11.850   1.097  1.00  0.00     0.280 HD
HETATM   14  C   UNL     1      38.568 -10.352   0.145  1.00  0.00     0.261 C 
HETATM   15  C   UNL     1      39.566 -10.170  -1.003  1.00  0.00     0.195 C 
HETATM   16  O   UNL     1      40.644  -9.316  -0.604  1.00  0.00    -0.388 OA
HETATM   17  C   UNL     1      41.380  -9.868   0.493  1.00  0.00     0.195 C 
HETATM   18  C   UNL     1      40.481 -10.047   1.722  1.00  0.00     0.261 C 
ENDBRANCH  11  12
ENDBRANCH   8  11
BRANCH   7  19
HETATM   19  O   UNL     1      38.389  -9.826   5.018  1.00  0.00    -0.359 OA
HETATM   20  H   UNL     1      37.992  -9.736   5.915  1.00  0.00     0.218 HD
ENDBRANCH   7  19
BRANCH   1  21
HETATM   21  C   UNL     1      39.097 -14.261   1.523  1.00  0.00     0.296 C 
HETATM   22  O   UNL     1      37.980 -14.717   1.325  1.00  0.00    -0.259 OA
BRANCH  21  23
HETATM   23  O   UNL     1      39.907 -13.740   0.564  1.00  0.00    -0.318 OA
BRANCH  23  24
HETATM   24  C   UNL     1      39.618 -14.134  -0.792  1.00  0.00     0.174 C 
HETATM   25  C   UNL     1      40.773 -14.935  -1.361  1.00  0.00     0.034 C 
ENDBRANCH  23  24
ENDBRANCH  21  23
ENDBRANCH   1  21
BRANCH  10  26
HETATM   26  C   UNL     1      40.655 -16.639   2.973  1.00  0.00     0.293 C 
BRANCH  26  27
HETATM   27  N   UNL     1      42.103 -17.049   2.803  1.00  0.00    -0.066 N 
HETATM   28  H   UNL     1      42.691 -16.287   3.165  1.00  0.00     0.280 HD
HETATM   29  C   UNL     1      42.475 -18.303   3.558  1.00  0.00     0.235 C 
HETATM   30  C   UNL     1      43.974 -18.541   3.430  1.00  0.00     0.028 C 
HETATM   31  C   UNL     1      44.413 -18.623   1.972  1.00  0.00     0.003 C 
HETATM   32  C   UNL     1      43.958 -17.396   1.191  1.00  0.00     0.028 C 
HETATM   33  C   UNL     1      42.462 -17.161   1.332  1.00  0.00     0.235 C 
ENDBRANCH  26  27
ENDBRANCH  10  26
BRANCH   9  34
HETATM   34  C   UNL     1      41.694 -15.475   5.596  1.00  0.00     0.040 A 
HETATM   35  C   UNL     1      41.171 -16.504   6.389  1.00  0.00     0.030 A 
HETATM   36  C   UNL     1      42.029 -17.250   7.196  1.00  0.00     0.002 A 
HETATM   37  C   UNL     1      43.396 -16.968   7.215  1.00  0.00     0.000 A 
HETATM   38  C   UNL     1      43.912 -15.935   6.433  1.00  0.00     0.002 A 
HETATM   39  C   UNL     1      43.065 -15.185   5.619  1.00  0.00     0.030 A 
ENDBRANCH   9  34
TORSDOF 9
ENDMDL
MODEL 4
REMARK VINA RESULT:      -7.5      1.806      2.224
REMARK  9 active torsions:
REMARK  status: ('A' for Active; 'I' for Inactive)
REMARK    1  A    between atoms: C_2  and  O_3 
REMARK    2  A    between atoms: O_3  and  C_4 
REMARK    3  A    between atoms: C_4  and  C_5 
REMARK    4  A    between atoms: C_11  and  O_12 
REMARK    5  A    between atoms: C_13  and  C_14 
REMARK    6  A    between atoms: C_14  and  N_15 
REMARK    7  A    between atoms: N_22  and  C_23 
REMARK    8  A    between atoms: C_29  and  C_30 
REMARK    9  A    between atoms: C_30  and  N_31 
ROOT
HETATM    1  C   UNL     1      41.095 -14.157   4.365  1.00  0.00     0.077 C 
HETATM    2  C   UNL     1      40.995 -12.712   4.280  1.00  0.00     0.020 A 
HETATM    3  C   UNL     1      40.507 -12.431   2.994  1.00  0.00     0.053 A 
HETATM    4  C   UNL     1      40.319 -11.111   2.539  1.00  0.00     0.053 A 
HETATM    5  C   UNL     1      40.697 -10.060   3.362  1.00  0.00     0.047 A 
HETATM    6 BR   UNL     1      40.518  -8.288   2.716  1.00  0.00    -0.048 Br
HETATM    7  C   UNL     1      41.171 -10.307   4.645  1.00  0.00     0.092 A 
HETATM    8  C   UNL     1      41.268 -11.617   5.178  1.00  0.00     0.016 A 
HETATM    9  N   UNL     1      40.195 -13.638   2.372  1.00  0.00    -0.312 N 
HETATM   10  C   UNL     1      40.661 -14.694   3.144  1.00  0.00     0.060 C 
ENDROOT
BRANCH   8  11
HETATM   11  C   UNL     1      41.710 -11.808   6.622  1.00  0.00     0.277 C 
BRANCH  11  12
HETATM   12  N   UNL     1      41.003 -10.965   7.656  1.00  0.00    -0.063 N 
HETATM   13  H   UNL     1      40.842 -10.057   7.186  1.00  0.00     0.280 HD
HETATM   14  C   UNL     1      39.643 -11.508   8.061  1.00  0.00     0.261 C 
HETATM   15  C   UNL     1      38.996 -10.560   9.077  1.00  0.00     0.195 C 
HETATM   16  O   UNL     1      39.841 -10.390  10.220  1.00  0.00    -0.388 OA
HETATM   17  C   UNL     1      41.101  -9.809   9.865  1.00  0.00     0.195 C 
HETATM   18  C   UNL     1      41.862 -10.707   8.883  1.00  0.00     0.261 C 
ENDBRANCH  11  12
ENDBRANCH   8  11
BRANCH   7  19
HETATM   19  O   UNL     1      41.544  -9.248   5.448  1.00  0.00    -0.359 OA
HETATM   20  H   UNL     1      42.339  -8.841   5.031  1.00  0.00     0.218 HD
ENDBRANCH   7  19
BRANCH   1  21
HETATM   21  C   UNL     1      41.620 -14.939   5.489  1.00  0.00     0.296 C 
HETATM   22  O   UNL     1      40.900 -15.380   6.373  1.00  0.00    -0.259 OA
BRANCH  21  23
HETATM   23  O   UNL     1      42.964 -15.129   5.412  1.00  0.00    -0.318 OA
BRANCH  23  24
HETATM   24  C   UNL     1      43.630 -15.452   6.649  1.00  0.00     0.174 C 
HETATM   25  C   UNL     1      44.634 -14.370   6.998  1.00  0.00     0.034 C 
ENDBRANCH  23  24
ENDBRANCH  21  23
ENDBRANCH   1  21
BRANCH  10  26
HETATM   26  C   UNL     1      40.689 -16.128   2.678  1.00  0.00     0.293 C 
BRANCH  26  27
HETATM   27  N   UNL     1      42.047 -16.795   2.614  1.00  0.00    -0.066 N 
HETATM   28  H   UNL     1      42.752 -16.103   2.901  1.00  0.00     0.280 HD
HETATM   29  C   UNL     1      42.187 -17.986   3.532  1.00  0.00     0.235 C 
HETATM   30  C   UNL     1      43.624 -18.489   3.490  1.00  0.00     0.028 C 
HETATM   31  C   UNL     1      44.065 -18.829   2.071  1.00  0.00     0.003 C 
HETATM   32  C   UNL     1      43.841 -17.654   1.128  1.00  0.00     0.028 C 
HETATM   33  C   UNL     1      42.405 -17.154   1.183  1.00  0.00     0.235 C 
ENDBRANCH  26  27
ENDBRANCH  10  26
BRANCH   9  34
HETATM   34  C   UNL     1      39.565 -13.767   1.107  1.00  0.00     0.040 A 
HETATM   35  C   UNL     1      38.168 -13.821   1.026  1.00  0.00     0.030 A 
HETATM   36  C   UNL     1      37.555 -13.861  -0.226  1.00  0.00     0.002 A 
HETATM   37  C   UNL     1      38.330 -13.852  -1.386  1.00  0.00     0.000 A 
HETATM   38  C   UNL     1      39.722 -13.810  -1.302  1.00  0.00     0.002 A 
HETATM   39  C   UNL     1      40.346 -13.765  -0.057  1.00  0.00     0.030 A 
ENDBRANCH   9  34
TORSDOF 9
ENDMDL
MODEL 5
REMARK VINA RESULT:      -7.3      3.062      6.249
REMARK  9 active torsions:
REMARK  status: ('A' for Active; 'I' for Inactive)
REMARK    1  A    between atoms: C_2  and  O_3 
REMARK    2  A    between atoms: O_3  and  C_4 
REMARK    3  A    between atoms: C_4  and  C_5 
REMARK    4  A    between atoms: C_11  and  O_12 
REMARK    5  A    between atoms: C_13  and  C_14 
REMARK    6  A    between atoms: C_14  and  N_15 
REMARK    7  A    between atoms: N_22  and  C_23 
REMARK    8  A    between atoms: C_29  and  C_30 
REMARK    9  A    between atoms: C_30  and  N_31 
ROOT
HETATM    1  C   UNL     1      40.411 -14.003   1.559  1.00  0.00     0.077 C 
HETATM    2  C   UNL     1      40.623 -12.763   2.281  1.00  0.00     0.020 A 
HETATM    3  C   UNL     1      40.958 -13.130   3.593  1.00  0.00     0.053 A 
HETATM    4  C   UNL     1      41.196 -12.172   4.599  1.00  0.00     0.053 A 
HETATM    5  C   UNL     1      41.022 -10.829   4.297  1.00  0.00     0.047 A 
HETATM    6 BR   UNL     1      41.265  -9.548   5.672  1.00  0.00    -0.048 Br
HETATM    7  C   UNL     1      40.703 -10.435   3.003  1.00  0.00     0.092 A 
HETATM    8  C   UNL     1      40.566 -11.363   1.941  1.00  0.00     0.016 A 
HETATM    9  N   UNL     1      41.080 -14.517   3.641  1.00  0.00    -0.312 N 
HETATM   10  C   UNL     1      40.632 -15.065   2.447  1.00  0.00     0.060 C 
ENDROOT
BRANCH   8  11
HETATM   11  C   UNL     1      40.305 -10.854   0.529  1.00  0.00     0.277 C 
BRANCH  11  12
HETATM   12  N   UNL     1      41.446 -10.983  -0.451  1.00  0.00    -0.063 N 
HETATM   13  H   UNL     1      41.892 -11.887  -0.214  1.00  0.00     0.280 HD
HETATM   14  C   UNL     1      40.999 -11.070  -1.901  1.00  0.00     0.261 C 
HETATM   15  C   UNL     1      42.225 -11.241  -2.804  1.00  0.00     0.195 C 
HETATM   16  O   UNL     1      43.147 -10.163  -2.615  1.00  0.00    -0.388 OA
HETATM   17  C   UNL     1      43.636 -10.113  -1.270  1.00  0.00     0.195 C 
HETATM   18  C   UNL     1      42.489  -9.892  -0.278  1.00  0.00     0.261 C 
ENDBRANCH  11  12
ENDBRANCH   8  11
BRANCH   7  19
HETATM   19  O   UNL     1      40.532  -9.094   2.723  1.00  0.00    -0.359 OA
HETATM   20  H   UNL     1      40.725  -8.978   1.763  1.00  0.00     0.218 HD
ENDBRANCH   7  19
BRANCH   1  21
HETATM   21  C   UNL     1      39.975 -14.148   0.166  1.00  0.00     0.296 C 
HETATM   22  O   UNL     1      38.795 -14.128  -0.157  1.00  0.00    -0.259 OA
BRANCH  21  23
HETATM   23  O   UNL     1      41.017 -14.275  -0.699  1.00  0.00    -0.318 OA
BRANCH  23  24
HETATM   24  C   UNL     1      40.988 -15.428  -1.561  1.00  0.00     0.174 C 
HETATM   25  C   UNL     1      41.005 -14.994  -3.014  1.00  0.00     0.034 C 
ENDBRANCH  23  24
ENDBRANCH  21  23
ENDBRANCH   1  21
BRANCH  10  26
HETATM   26  C   UNL     1      40.419 -16.543   2.227  1.00  0.00     0.293 C 
BRANCH  26  27
HETATM   27  N   UNL     1      41.650 -17.365   1.904  1.00  0.00    -0.066 N 
HETATM   28  H   UNL     1      41.411 -17.998   1.130  1.00  0.00     0.280 HD
HETATM   29  C   UNL     1      42.836 -16.541   1.462  1.00  0.00     0.235 C 
HETATM   30  C   UNL     1      43.963 -17.470   1.032  1.00  0.00     0.028 C 
HETATM   31  C   UNL     1      44.348 -18.445   2.139  1.00  0.00     0.003 C 
HETATM   32  C   UNL     1      43.133 -19.212   2.645  1.00  0.00     0.028 C 
HETATM   33  C   UNL     1      42.010 -18.275   3.064  1.00  0.00     0.235 C 
ENDBRANCH  26  27
ENDBRANCH  10  26
BRANCH   9  34
HETATM   34  C   UNL     1      41.523 -15.260   4.766  1.00  0.00     0.040 A 
HETATM   35  C   UNL     1      40.588 -15.863   5.615  1.00  0.00     0.030 A 
HETATM   36  C   UNL     1      41.033 -16.662   6.668  1.00  0.00     0.002 A 
HETATM   37  C   UNL     1      42.399 -16.853   6.874  1.00  0.00     0.000 A 
HETATM   38  C   UNL     1      43.329 -16.241   6.034  1.00  0.00     0.002 A 
HETATM   39  C   UNL     1      42.897 -15.444   4.975  1.00  0.00     0.030 A 
ENDBRANCH   9  34
TORSDOF 9
ENDMDL
MODEL 6
REMARK VINA RESULT:      -7.2      2.576      6.569
REMARK  9 active torsions:
REMARK  status: ('A' for Active; 'I' for Inactive)
REMARK    1  A    between atoms: C_2  and  O_3 
REMARK    2  A    between atoms: O_3  and  C_4 
REMARK    3  A    between atoms: C_4  and  C_5 
REMARK    4  A    between atoms: C_11  and  O_12 
REMARK    5  A    between atoms: C_13  and  C_14 
REMARK    6  A    between atoms: C_14  and  N_15 
REMARK    7  A    between atoms: N_22  and  C_23 
REMARK    8  A    between atoms: C_29  and  C_30 
REMARK    9  A    between atoms: C_30  and  N_31 
ROOT
HETATM    1  C   UNL     1      40.365 -14.741   3.176  1.00  0.00     0.077 C 
HETATM    2  C   UNL     1      39.834 -13.544   2.553  1.00  0.00     0.020 A 
HETATM    3  C   UNL     1      39.672 -12.608   3.585  1.00  0.00     0.053 A 
HETATM    4  C   UNL     1      39.132 -11.326   3.353  1.00  0.00     0.053 A 
HETATM    5  C   UNL     1      38.681 -11.012   2.079  1.00  0.00     0.047 A 
HETATM    6 BR   UNL     1      37.883  -9.319   1.788  1.00  0.00    -0.048 Br
HETATM    7  C   UNL     1      38.841 -11.914   1.034  1.00  0.00     0.092 A 
HETATM    8  C   UNL     1      39.480 -13.167   1.206  1.00  0.00     0.016 A 
HETATM    9  N   UNL     1      40.202 -13.149   4.754  1.00  0.00    -0.312 N 
HETATM   10  C   UNL     1      40.513 -14.487   4.547  1.00  0.00     0.060 C 
ENDROOT
BRANCH   8  11
HETATM   11  C   UNL     1      39.702 -14.069  -0.001  1.00  0.00     0.277 C 
BRANCH  11  12
HETATM   12  N   UNL     1      40.516 -13.486  -1.131  1.00  0.00    -0.063 N 
HETATM   13  H   UNL     1      39.969 -12.668  -1.452  1.00  0.00     0.280 HD
HETATM   14  C   UNL     1      41.880 -12.973  -0.701  1.00  0.00     0.261 C 
HETATM   15  C   UNL     1      42.603 -12.367  -1.908  1.00  0.00     0.195 C 
HETATM   16  O   UNL     1      42.726 -13.331  -2.960  1.00  0.00    -0.388 OA
HETATM   17  C   UNL     1      41.446 -13.769  -3.429  1.00  0.00     0.195 C 
HETATM   18  C   UNL     1      40.651 -14.443  -2.305  1.00  0.00     0.261 C 
ENDBRANCH  11  12
ENDBRANCH   8  11
BRANCH   7  19
HETATM   19  O   UNL     1      38.384 -11.584  -0.226  1.00  0.00    -0.359 OA
HETATM   20  H   UNL     1      37.622 -12.179  -0.417  1.00  0.00     0.218 HD
ENDBRANCH   7  19
BRANCH   1  21
HETATM   21  C   UNL     1      40.642 -16.026   2.524  1.00  0.00     0.296 C 
HETATM   22  O   UNL     1      39.753 -16.800   2.198  1.00  0.00    -0.259 OA
BRANCH  21  23
HETATM   23  O   UNL     1      41.969 -16.229   2.309  1.00  0.00    -0.318 OA
BRANCH  23  24
HETATM   24  C   UNL     1      42.312 -17.361   1.488  1.00  0.00     0.174 C 
HETATM   25  C   UNL     1      43.819 -17.479   1.365  1.00  0.00     0.034 C 
ENDBRANCH  23  24
ENDBRANCH  21  23
ENDBRANCH   1  21
BRANCH  10  26
HETATM   26  C   UNL     1      40.905 -15.439   5.650  1.00  0.00     0.293 C 
BRANCH  26  27
HETATM   27  N   UNL     1      42.299 -16.027   5.576  1.00  0.00    -0.066 N 
HETATM   28  H   UNL     1      42.744 -15.677   4.718  1.00  0.00     0.280 HD
HETATM   29  C   UNL     1      43.187 -15.640   6.734  1.00  0.00     0.235 C 
HETATM   30  C   UNL     1      44.594 -16.166   6.487  1.00  0.00     0.028 C 
HETATM   31  C   UNL     1      44.604 -17.674   6.263  1.00  0.00     0.003 C 
HETATM   32  C   UNL     1      43.640 -18.072   5.152  1.00  0.00     0.028 C 
HETATM   33  C   UNL     1      42.240 -17.534   5.403  1.00  0.00     0.235 C 
ENDBRANCH  26  27
ENDBRANCH  10  26
BRANCH   9  34
HETATM   34  C   UNL     1      40.332 -12.461   5.988  1.00  0.00     0.040 A 
HETATM   35  C   UNL     1      41.502 -11.745   6.266  1.00  0.00     0.030 A 
HETATM   36  C   UNL     1      41.588 -11.002   7.443  1.00  0.00     0.002 A 
HETATM   37  C   UNL     1      40.517 -10.979   8.337  1.00  0.00     0.000 A 
HETATM   38  C   UNL     1      39.356 -11.703   8.062  1.00  0.00     0.002 A 
HETATM   39  C   UNL     1      39.257 -12.446   6.887  1.00  0.00     0.030 A 
ENDBRANCH   9  34
TORSDOF 9
ENDMDL
MODEL 7
REMARK VINA RESULT:      -7.1      2.472      5.337
REMARK  9 active torsions:
REMARK  status: ('A' for Active; 'I' for Inactive)
REMARK    1  A    between atoms: C_2  and  O_3 
REMARK    2  A    between atoms: O_3  and  C_4 
REMARK    3  A    between atoms: C_4  and  C_5 
REMARK    4  A    between atoms: C_11  and  O_12 
REMARK    5  A    between atoms: C_13  and  C_14 
REMARK    6  A    between atoms: C_14  and  N_15 
REMARK    7  A    between atoms: N_22  and  C_23 
REMARK    8  A    between atoms: C_29  and  C_30 
REMARK    9  A    between atoms: C_30  and  N_31 
ROOT
HETATM    1  C   UNL     1      39.938 -14.643   2.195  1.00  0.00     0.077 C 
HETATM    2  C   UNL     1      39.792 -13.829   3.387  1.00  0.00     0.020 A 
HETATM    3  C   UNL     1      39.219 -12.620   2.965  1.00  0.00     0.053 A 
HETATM    4  C   UNL     1      38.966 -11.561   3.859  1.00  0.00     0.053 A 
HETATM    5  C   UNL     1      39.365 -11.693   5.181  1.00  0.00     0.047 A 
HETATM    6 BR   UNL     1      39.097 -10.237   6.363  1.00  0.00    -0.048 Br
HETATM    7  C   UNL     1      39.923 -12.883   5.632  1.00  0.00     0.092 A 
HETATM    8  C   UNL     1      40.090 -14.010   4.787  1.00  0.00     0.016 A 
HETATM    9  N   UNL     1      38.902 -12.735   1.613  1.00  0.00    -0.312 N 
HETATM   10  C   UNL     1      39.444 -13.909   1.106  1.00  0.00     0.060 C 
ENDROOT
BRANCH   8  11
HETATM   11  C   UNL     1      40.624 -15.311   5.368  1.00  0.00     0.277 C 
BRANCH  11  12
HETATM   12  N   UNL     1      41.896 -15.212   6.176  1.00  0.00    -0.063 N 
HETATM   13  H   UNL     1      41.653 -14.592   6.969  1.00  0.00     0.280 HD
HETATM   14  C   UNL     1      42.351 -16.537   6.765  1.00  0.00     0.261 C 
HETATM   15  C   UNL     1      43.618 -16.317   7.598  1.00  0.00     0.195 C 
HETATM   16  O   UNL     1      44.652 -15.729   6.800  1.00  0.00    -0.388 OA
HETATM   17  C   UNL     1      44.266 -14.445   6.299  1.00  0.00     0.195 C 
HETATM   18  C   UNL     1      43.027 -14.554   5.404  1.00  0.00     0.261 C 
ENDBRANCH  11  12
ENDBRANCH   8  11
BRANCH   7  19
HETATM   19  O   UNL     1      40.315 -12.996   6.950  1.00  0.00    -0.359 OA
HETATM   20  H   UNL     1      39.504 -13.198   7.472  1.00  0.00     0.218 HD
ENDBRANCH   7  19
BRANCH   1  21
HETATM   21  C   UNL     1      40.552 -15.972   2.105  1.00  0.00     0.296 C 
HETATM   22  O   UNL     1      39.889 -16.998   2.048  1.00  0.00    -0.259 OA
BRANCH  21  23
HETATM   23  O   UNL     1      41.910 -15.919   2.066  1.00  0.00    -0.318 OA
BRANCH  23  24
HETATM   24  C   UNL     1      42.603 -17.100   2.515  1.00  0.00     0.174 C 
HETATM   25  C   UNL     1      43.554 -17.588   1.439  1.00  0.00     0.034 C 
ENDBRANCH  23  24
ENDBRANCH  21  23
ENDBRANCH   1  21
BRANCH  10  26
HETATM   26  C   UNL     1      39.484 -14.252  -0.362  1.00  0.00     0.293 C 
BRANCH  26  27
HETATM   27  N   UNL     1      40.449 -13.459  -1.219  1.00  0.00    -0.066 N 
HETATM   28  H   UNL     1      39.988 -12.578  -1.479  1.00  0.00     0.280 HD
HETATM   29  C   UNL     1      41.738 -13.104  -0.518  1.00  0.00     0.235 C 
HETATM   30  C   UNL     1      42.567 -12.196  -1.417  1.00  0.00     0.028 C 
HETATM   31  C   UNL     1      42.833 -12.833  -2.776  1.00  0.00     0.003 C 
HETATM   32  C   UNL     1      41.535 -13.271  -3.443  1.00  0.00     0.028 C 
HETATM   33  C   UNL     1      40.711 -14.171  -2.534  1.00  0.00     0.235 C 
ENDBRANCH  26  27
ENDBRANCH  10  26
BRANCH   9  34
HETATM   34  C   UNL     1      38.200 -11.765   0.852  1.00  0.00     0.040 A 
HETATM   35  C   UNL     1      38.891 -10.683   0.294  1.00  0.00     0.030 A 
HETATM   36  C   UNL     1      38.209  -9.782  -0.523  1.00  0.00     0.002 A 
HETATM   37  C   UNL     1      36.848  -9.956  -0.776  1.00  0.00     0.000 A 
HETATM   38  C   UNL     1      36.159 -11.028  -0.208  1.00  0.00     0.002 A 
HETATM   39  C   UNL     1      36.831 -11.938   0.606  1.00  0.00     0.030 A 
ENDBRANCH   9  34
TORSDOF 9
ENDMDL
MODEL 8
REMARK VINA RESULT:      -7.1      2.624      5.134
REMARK  9 active torsions:
REMARK  status: ('A' for Active; 'I' for Inactive)
REMARK    1  A    between atoms: C_2  and  O_3 
REMARK    2  A    between atoms: O_3  and  C_4 
REMARK    3  A    between atoms: C_4  and  C_5 
REMARK    4  A    between atoms: C_11  and  O_12 
REMARK    5  A    between atoms: C_13  and  C_14 
REMARK    6  A    between atoms: C_14  and  N_15 
REMARK    7  A    between atoms: N_22  and  C_23 
REMARK    8  A    between atoms: C_29  and  C_30 
REMARK    9  A    between atoms: C_30  and  N_31 
ROOT
HETATM    1  C   UNL     1      41.144 -14.682   2.259  1.00  0.00     0.077 C 
HETATM    2  C   UNL     1      41.049 -13.688   3.311  1.00  0.00     0.020 A 
HETATM    3  C   UNL     1      41.212 -12.443   2.686  1.00  0.00     0.053 A 
HETATM    4  C   UNL     1      41.217 -11.236   3.414  1.00  0.00     0.053 A 
HETATM    5  C   UNL     1      41.132 -11.291   4.798  1.00  0.00     0.047 A 
HETATM    6 BR   UNL     1      41.221  -9.673   5.780  1.00  0.00    -0.048 Br
HETATM    7  C   UNL     1      40.957 -12.508   5.445  1.00  0.00     0.092 A 
HETATM    8  C   UNL     1      40.834 -13.731   4.737  1.00  0.00     0.016 A 
HETATM    9  N   UNL     1      41.266 -12.649   1.309  1.00  0.00    -0.312 N 
HETATM   10  C   UNL     1      41.350 -14.010   1.046  1.00  0.00     0.060 C 
ENDROOT
BRANCH   8  11
HETATM   11  C   UNL     1      40.553 -15.016   5.504  1.00  0.00     0.277 C 
BRANCH  11  12
HETATM   12  N   UNL     1      41.662 -15.521   6.396  1.00  0.00    -0.063 N 
HETATM   13  H   UNL     1      41.493 -15.060   7.307  1.00  0.00     0.280 HD
HETATM   14  C   UNL     1      41.618 -17.021   6.637  1.00  0.00     0.261 C 
HETATM   15  C   UNL     1      42.754 -17.420   7.584  1.00  0.00     0.195 C 
HETATM   16  O   UNL     1      44.021 -17.024   7.049  1.00  0.00    -0.388 OA
HETATM   17  C   UNL     1      44.106 -15.604   6.886  1.00  0.00     0.195 C 
HETATM   18  C   UNL     1      43.038 -15.098   5.910  1.00  0.00     0.261 C 
ENDBRANCH  11  12
ENDBRANCH   8  11
BRANCH   7  19
HETATM   19  O   UNL     1      40.876 -12.543   6.822  1.00  0.00    -0.359 OA
HETATM   20  H   UNL     1      41.498 -11.859   7.161  1.00  0.00     0.218 HD
ENDBRANCH   7  19
BRANCH   1  21
HETATM   21  C   UNL     1      41.105 -16.140   2.418  1.00  0.00     0.296 C 
HETATM   22  O   UNL     1      40.115 -16.803   2.138  1.00  0.00    -0.259 OA
BRANCH  21  23
HETATM   23  O   UNL     1      42.280 -16.649   2.874  1.00  0.00    -0.318 OA
BRANCH  23  24
HETATM   24  C   UNL     1      42.809 -17.773   2.145  1.00  0.00     0.174 C 
HETATM   25  C   UNL     1      43.983 -17.335   1.290  1.00  0.00     0.034 C 
ENDBRANCH  23  24
ENDBRANCH  21  23
ENDBRANCH   1  21
BRANCH  10  26
HETATM   26  C   UNL     1      41.638 -14.586  -0.318  1.00  0.00     0.293 C 
BRANCH  26  27
HETATM   27  N   UNL     1      40.605 -14.332  -1.396  1.00  0.00    -0.066 N 
HETATM   28  H   UNL     1      40.728 -13.368  -1.730  1.00  0.00     0.280 HD
HETATM   29  C   UNL     1      40.733 -15.244  -2.592  1.00  0.00     0.235 C 
HETATM   30  C   UNL     1      39.741 -14.811  -3.664  1.00  0.00     0.028 C 
HETATM   31  C   UNL     1      38.311 -14.788  -3.137  1.00  0.00     0.003 C 
HETATM   32  C   UNL     1      38.202 -13.937  -1.878  1.00  0.00     0.028 C 
HETATM   33  C   UNL     1      39.202 -14.372  -0.817  1.00  0.00     0.235 C 
ENDBRANCH  26  27
ENDBRANCH  10  26
BRANCH   9  34
HETATM   34  C   UNL     1      41.308 -11.623   0.330  1.00  0.00     0.040 A 
HETATM   35  C   UNL     1      40.122 -11.004  -0.081  1.00  0.00     0.030 A 
HETATM   36  C   UNL     1      40.180  -9.939  -0.979  1.00  0.00     0.002 A 
HETATM   37  C   UNL     1      41.411  -9.500  -1.467  1.00  0.00     0.000 A 
HETATM   38  C   UNL     1      42.591 -10.127  -1.065  1.00  0.00     0.002 A 
HETATM   39  C   UNL     1      42.545 -11.189  -0.164  1.00  0.00     0.030 A 
ENDBRANCH   9  34
TORSDOF 9
ENDMDL
MODEL 9
REMARK VINA RESULT:      -6.9      2.803      5.856
REMARK  9 active torsions:
REMARK  status: ('A' for Active; 'I' for Inactive)
REMARK    1  A    between atoms: C_2  and  O_3 
REMARK    2  A    between atoms: O_3  and  C_4 
REMARK    3  A    between atoms: C_4  and  C_5 
REMARK    4  A    between atoms: C_11  and  O_12 
REMARK    5  A    between atoms: C_13  and  C_14 
REMARK    6  A    between atoms: C_14  and  N_15 
REMARK    7  A    between atoms: N_22  and  C_23 
REMARK    8  A    between atoms: C_29  and  C_30 
REMARK    9  A    between atoms: C_30  and  N_31 
ROOT
HETATM    1  C   UNL     1      39.601 -13.855   2.484  1.00  0.00     0.077 C 
HETATM    2  C   UNL     1      39.504 -12.803   3.478  1.00  0.00     0.020 A 
HETATM    3  C   UNL     1      40.076 -13.321   4.650  1.00  0.00     0.053 A 
HETATM    4  C   UNL     1      40.122 -12.581   5.849  1.00  0.00     0.053 A 
HETATM    5  C   UNL     1      39.516 -11.334   5.888  1.00  0.00     0.047 A 
HETATM    6 BR   UNL     1      39.508 -10.377   7.523  1.00  0.00    -0.048 Br
HETATM    7  C   UNL     1      38.952 -10.789   4.740  1.00  0.00     0.092 A 
HETATM    8  C   UNL     1      38.987 -11.456   3.490  1.00  0.00     0.016 A 
HETATM    9  N   UNL     1      40.619 -14.570   4.356  1.00  0.00    -0.312 N 
HETATM   10  C   UNL     1      40.230 -14.957   3.081  1.00  0.00     0.060 C 
ENDROOT
BRANCH   8  11
HETATM   11  C   UNL     1      38.431 -10.762   2.254  1.00  0.00     0.277 C 
BRANCH  11  12
HETATM   12  N   UNL     1      36.927 -10.691   2.145  1.00  0.00    -0.063 N 
HETATM   13  H   UNL     1      36.582 -11.340   2.874  1.00  0.00     0.280 HD
HETATM   14  C   UNL     1      36.355  -9.319   2.460  1.00  0.00     0.261 C 
HETATM   15  C   UNL     1      34.826  -9.368   2.363  1.00  0.00     0.195 C 
HETATM   16  O   UNL     1      34.416  -9.809   1.064  1.00  0.00    -0.388 OA
HETATM   17  C   UNL     1      34.885 -11.132   0.782  1.00  0.00     0.195 C 
HETATM   18  C   UNL     1      36.416 -11.188   0.803  1.00  0.00     0.261 C 
ENDBRANCH  11  12
ENDBRANCH   8  11
BRANCH   7  19
HETATM   19  O   UNL     1      38.353  -9.548   4.799  1.00  0.00    -0.359 OA
HETATM   20  H   UNL     1      39.051  -8.884   4.592  1.00  0.00     0.218 HD
ENDBRANCH   7  19
BRANCH   1  21
HETATM   21  C   UNL     1      39.079 -13.823   1.114  1.00  0.00     0.296 C 
HETATM   22  O   UNL     1      37.973 -14.258   0.823  1.00  0.00    -0.259 OA
BRANCH  21  23
HETATM   23  O   UNL     1      39.942 -13.242   0.239  1.00  0.00    -0.318 OA
BRANCH  23  24
HETATM   24  C   UNL     1      39.558 -13.279  -1.150  1.00  0.00     0.174 C 
HETATM   25  C   UNL     1      40.777 -13.505  -2.022  1.00  0.00     0.034 C 
ENDBRANCH  23  24
ENDBRANCH  21  23
ENDBRANCH   1  21
BRANCH  10  26
HETATM   26  C   UNL     1      40.453 -16.338   2.516  1.00  0.00     0.293 C 
BRANCH  26  27
HETATM   27  N   UNL     1      41.880 -16.847   2.511  1.00  0.00    -0.066 N 
HETATM   28  H   UNL     1      42.475 -16.122   2.930  1.00  0.00     0.280 HD
HETATM   29  C   UNL     1      42.080 -18.112   3.312  1.00  0.00     0.235 C 
HETATM   30  C   UNL     1      43.564 -18.453   3.353  1.00  0.00     0.028 C 
HETATM   31  C   UNL     1      44.154 -18.585   1.954  1.00  0.00     0.003 C 
HETATM   32  C   UNL     1      43.874 -17.342   1.118  1.00  0.00     0.028 C 
HETATM   33  C   UNL     1      42.390 -17.005   1.090  1.00  0.00     0.235 C 
ENDBRANCH  26  27
ENDBRANCH  10  26
BRANCH   9  34
HETATM   34  C   UNL     1      41.387 -15.359   5.251  1.00  0.00     0.040 A 
HETATM   35  C   UNL     1      42.763 -15.131   5.376  1.00  0.00     0.030 A 
HETATM   36  C   UNL     1      43.494 -15.852   6.319  1.00  0.00     0.002 A 
HETATM   37  C   UNL     1      42.858 -16.796   7.126  1.00  0.00     0.000 A 
HETATM   38  C   UNL     1      41.490 -17.029   6.991  1.00  0.00     0.002 A 
HETATM   39  C   UNL     1      40.748 -16.311   6.055  1.00  0.00     0.030 A 
ENDBRANCH   9  34
TORSDOF 9
ENDMDL
MODEL 10
REMARK VINA RESULT:      -6.9      2.427      5.324
REMARK  9 active torsions:
REMARK  status: ('A' for Active; 'I' for Inactive)
REMARK    1  A    between atoms: C_2  and  O_3 
REMARK    2  A    between atoms: O_3  and  C_4 
REMARK    3  A    between atoms: C_4  and  C_5 
REMARK    4  A    between atoms: C_11  and  O_12 
REMARK    5  A    between atoms: C_13  and  C_14 
REMARK    6  A    between atoms: C_14  and  N_15 
REMARK    7  A    between atoms: N_22  and  C_23 
REMARK    8  A    between atoms: C_29  and  C_30 
REMARK    9  A    between atoms: C_30  and  N_31 
ROOT
HETATM    1  C   UNL     1      40.539 -13.409   2.995  1.00  0.00     0.077 C 
HETATM    2  C   UNL     1      41.466 -13.387   4.110  1.00  0.00     0.020 A 
HETATM    3  C   UNL     1      42.165 -14.603   4.058  1.00  0.00     0.053 A 
HETATM    4  C   UNL     1      43.132 -14.950   5.022  1.00  0.00     0.053 A 
HETATM    5  C   UNL     1      43.344 -14.095   6.094  1.00  0.00     0.047 A 
HETATM    6 BR   UNL     1      44.586 -14.603   7.432  1.00  0.00    -0.048 Br
HETATM    7  C   UNL     1      42.676 -12.878   6.166  1.00  0.00     0.092 A 
HETATM    8  C   UNL     1      41.780 -12.445   5.157  1.00  0.00     0.016 A 
HETATM    9  N   UNL     1      41.787 -15.274   2.897  1.00  0.00    -0.312 N 
HETATM   10  C   UNL     1      40.714 -14.619   2.309  1.00  0.00     0.060 C 
ENDROOT
BRANCH   8  11
HETATM   11  C   UNL     1      41.152 -11.062   5.254  1.00  0.00     0.277 C 
BRANCH  11  12
HETATM   12  N   UNL     1      40.573 -10.681   6.595  1.00  0.00    -0.063 N 
HETATM   13  H   UNL     1      41.388 -10.659   7.234  1.00  0.00     0.280 HD
HETATM   14  C   UNL     1      39.946  -9.297   6.620  1.00  0.00     0.261 C 
HETATM   15  C   UNL     1      39.431  -8.994   8.031  1.00  0.00     0.195 C 
HETATM   16  O   UNL     1      38.492  -9.990   8.450  1.00  0.00    -0.388 OA
HETATM   17  C   UNL     1      39.088 -11.291   8.505  1.00  0.00     0.195 C 
HETATM   18  C   UNL     1      39.597 -11.719   7.124  1.00  0.00     0.261 C 
ENDBRANCH  11  12
ENDBRANCH   8  11
BRANCH   7  19
HETATM   19  O   UNL     1      42.899 -12.042   7.241  1.00  0.00    -0.359 OA
HETATM   20  H   UNL     1      43.376 -11.253   6.893  1.00  0.00     0.218 HD
ENDBRANCH   7  19
BRANCH   1  21
HETATM   21  C   UNL     1      39.537 -12.390   2.662  1.00  0.00     0.296 C 
HETATM   22  O   UNL     1      38.556 -12.181   3.362  1.00  0.00    -0.259 OA
BRANCH  21  23
HETATM   23  O   UNL     1      39.842 -11.707   1.526  1.00  0.00    -0.318 OA
BRANCH  23  24
HETATM   24  C   UNL     1      39.292 -10.380   1.416  1.00  0.00     0.174 C 
HETATM   25  C   UNL     1      38.288 -10.324   0.280  1.00  0.00     0.034 C 
ENDBRANCH  23  24
ENDBRANCH  21  23
ENDBRANCH   1  21
BRANCH  10  26
HETATM   26  C   UNL     1      39.912 -15.181   1.161  1.00  0.00     0.293 C 
BRANCH  26  27
HETATM   27  N   UNL     1      40.097 -14.515  -0.186  1.00  0.00    -0.066 N 
HETATM   28  H   UNL     1      40.624 -13.645  -0.039  1.00  0.00     0.280 HD
HETATM   29  C   UNL     1      40.872 -15.348  -1.178  1.00  0.00     0.235 C 
HETATM   30  C   UNL     1      41.117 -14.532  -2.440  1.00  0.00     0.028 C 
HETATM   31  C   UNL     1      39.815 -14.020  -3.046  1.00  0.00     0.003 C 
HETATM   32  C   UNL     1      38.993 -13.254  -2.018  1.00  0.00     0.028 C 
HETATM   33  C   UNL     1      38.761 -14.075  -0.758  1.00  0.00     0.235 C 
ENDBRANCH  26  27
ENDBRANCH  10  26
BRANCH   9  34
HETATM   34  C   UNL     1      42.361 -16.485   2.430  1.00  0.00     0.040 A 
HETATM   35  C   UNL     1      43.319 -16.454   1.409  1.00  0.00     0.030 A 
HETATM   36  C   UNL     1      43.940 -17.638   1.016  1.00  0.00     0.002 A 
HETATM   37  C   UNL     1      43.604 -18.844   1.631  1.00  0.00     0.000 A 
HETATM   38  C   UNL     1      42.641 -18.874   2.640  1.00  0.00     0.002 A 
HETATM   39  C   UNL     1      42.016 -17.696   3.045  1.00  0.00     0.030 A 
ENDBRANCH   9  34
TORSDOF 9
ENDMDL
