MODEL 1
REMARK VINA RESULT:      -8.4      0.000      0.000
REMARK  3 active torsions:
REMARK  status: ('A' for Active; 'I' for Inactive)
REMARK    1  A    between atoms: C_3  and  N_4 
REMARK       I    between atoms: N_4  and  C_5 
REMARK    2  A    between atoms: C_5  and  C_6 
REMARK    3  A    between atoms: C_6  and  C_7 
ROOT
HETATM    1  C   UNL     1      41.782 -17.737   5.020  1.00  0.00     0.286 C 
HETATM    2  N   UNL     1      42.635 -16.922   4.051  1.00  0.00    -0.056 N 
HETATM    3  H   UNL     1      43.344 -16.442   4.647  1.00  0.00     0.278 HD
HETATM    4  H   UNL     1      43.168 -17.538   3.425  1.00  0.00     0.278 HD
HETATM    5  C   UNL     1      41.889 -15.867   3.284  1.00  0.00     0.209 C 
HETATM    6  C   UNL     1      41.119 -14.963   4.277  1.00  0.00     0.115 C 
HETATM    7  N   UNL     1      40.327 -15.727   5.241  1.00  0.00    -0.353 N 
HETATM    8  C   UNL     1      40.777 -16.885   5.825  1.00  0.00     0.249 C 
HETATM    9  O   UNL     1      40.313 -17.248   6.900  1.00  0.00    -0.271 OA
HETATM   10  C   UNL     1      40.983 -16.519   2.236  1.00  0.00     0.035 C 
HETATM   11  C   UNL     1      40.140 -15.471   1.513  1.00  0.00     0.002 C 
HETATM   12  C   UNL     1      39.337 -14.622   2.495  1.00  0.00     0.002 C 
HETATM   13  C   UNL     1      40.240 -13.954   3.532  1.00  0.00     0.027 C 
HETATM   14  H   UNL     1      39.702 -15.207   5.856  1.00  0.00     0.163 HD
ENDROOT
BRANCH   1  15
HETATM   15  C   UNL     1      42.665 -18.566   5.959  1.00  0.00     0.146 C 
BRANCH  15  16
HETATM   16  C   UNL     1      44.118 -18.231   5.720  1.00  0.00     0.224 C 
HETATM   17  N   UNL     1      44.921 -18.985   4.926  1.00  0.00    -0.325 N 
HETATM   18  H   UNL     1      45.906 -18.771   5.050  1.00  0.00     0.169 HD
HETATM   19  O   UNL     1      44.592 -17.253   6.318  1.00  0.00    -0.273 OA
BRANCH  17  20
HETATM   20  C   UNL     1      44.638 -20.042   4.035  1.00  0.00     0.073 A 
HETATM   21  C   UNL     1      44.114 -19.682   2.786  1.00  0.00     0.033 A 
HETATM   22  C   UNL     1      43.818 -20.656   1.826  1.00  0.00     0.002 A 
HETATM   23  C   UNL     1      44.014 -22.005   2.114  1.00  0.00     0.003 A 
HETATM   24  C   UNL     1      44.491 -22.379   3.366  1.00  0.00     0.044 A 
HETATM   25  C   UNL     1      44.790 -21.404   4.317  1.00  0.00     0.143 A 
HETATM   26  F   UNL     1      45.155 -21.822   5.537  1.00  0.00    -0.204 F 
ENDBRANCH  17  20
ENDBRANCH  15  16
ENDBRANCH   1  15
TORSDOF 3
ENDMDL
MODEL 2
REMARK VINA RESULT:      -8.3      2.086      2.855
REMARK  3 active torsions:
REMARK  status: ('A' for Active; 'I' for Inactive)
REMARK    1  A    between atoms: C_3  and  N_4 
REMARK       I    between atoms: N_4  and  C_5 
REMARK    2  A    between atoms: C_5  and  C_6 
REMARK    3  A    between atoms: C_6  and  C_7 
ROOT
HETATM    1  C   UNL     1      41.518 -16.578   3.269  1.00  0.00     0.286 C 
HETATM    2  N   UNL     1      40.550 -15.723   4.084  1.00  0.00    -0.056 N 
HETATM    3  H   UNL     1      39.845 -16.393   4.462  1.00  0.00     0.278 HD
HETATM    4  H   UNL     1      41.019 -15.319   4.903  1.00  0.00     0.278 HD
HETATM    5  C   UNL     1      39.814 -14.677   3.296  1.00  0.00     0.209 C 
HETATM    6  C   UNL     1      39.117 -15.344   2.086  1.00  0.00     0.115 C 
HETATM    7  N   UNL     1      40.018 -16.201   1.316  1.00  0.00    -0.353 N 
HETATM    8  C   UNL     1      40.952 -17.019   1.902  1.00  0.00     0.249 C 
HETATM    9  O   UNL     1      41.367 -18.003   1.299  1.00  0.00    -0.271 OA
HETATM   10  C   UNL     1      40.769 -13.550   2.895  1.00  0.00     0.035 C 
HETATM   11  C   UNL     1      40.066 -12.525   2.008  1.00  0.00     0.002 C 
HETATM   12  C   UNL     1      39.432 -13.181   0.785  1.00  0.00     0.002 C 
HETATM   13  C   UNL     1      38.462 -14.295   1.183  1.00  0.00     0.027 C 
HETATM   14  H   UNL     1      39.669 -16.587   0.440  1.00  0.00     0.163 HD
ENDROOT
BRANCH   1  15
HETATM   15  C   UNL     1      41.987 -17.791   4.079  1.00  0.00     0.146 C 
BRANCH  15  16
HETATM   16  C   UNL     1      43.361 -17.525   4.647  1.00  0.00     0.224 C 
HETATM   17  N   UNL     1      44.322 -18.481   4.712  1.00  0.00    -0.325 N 
HETATM   18  H   UNL     1      45.094 -18.220   5.320  1.00  0.00     0.169 HD
HETATM   19  O   UNL     1      43.586 -16.397   5.112  1.00  0.00    -0.273 OA
BRANCH  17  20
HETATM   20  C   UNL     1      44.402 -19.776   4.155  1.00  0.00     0.073 A 
HETATM   21  C   UNL     1      44.653 -20.826   5.048  1.00  0.00     0.033 A 
HETATM   22  C   UNL     1      44.732 -22.147   4.596  1.00  0.00     0.002 A 
HETATM   23  C   UNL     1      44.591 -22.433   3.240  1.00  0.00     0.003 A 
HETATM   24  C   UNL     1      44.387 -21.395   2.336  1.00  0.00     0.044 A 
HETATM   25  C   UNL     1      44.303 -20.080   2.793  1.00  0.00     0.143 A 
HETATM   26  F   UNL     1      44.201 -19.112   1.872  1.00  0.00    -0.204 F 
ENDBRANCH  17  20
ENDBRANCH  15  16
ENDBRANCH   1  15
TORSDOF 3
ENDMDL
MODEL 3
REMARK VINA RESULT:      -8.0      1.810      2.470
REMARK  3 active torsions:
REMARK  status: ('A' for Active; 'I' for Inactive)
REMARK    1  A    between atoms: C_3  and  N_4 
REMARK       I    between atoms: N_4  and  C_5 
REMARK    2  A    between atoms: C_5  and  C_6 
REMARK    3  A    between atoms: C_6  and  C_7 
ROOT
HETATM    1  C   UNL     1      42.540 -16.731   5.188  1.00  0.00     0.286 C 
HETATM    2  N   UNL     1      42.210 -15.748   6.309  1.00  0.00    -0.056 N 
HETATM    3  H   UNL     1      41.516 -16.243   6.911  1.00  0.00     0.278 HD
HETATM    4  H   UNL     1      43.030 -15.584   6.905  1.00  0.00     0.278 HD
HETATM    5  C   UNL     1      41.588 -14.458   5.855  1.00  0.00     0.209 C 
HETATM    6  C   UNL     1      40.352 -14.767   4.976  1.00  0.00     0.115 C 
HETATM    7  N   UNL     1      40.638 -15.739   3.921  1.00  0.00    -0.353 N 
HETATM    8  C   UNL     1      41.433 -16.841   4.116  1.00  0.00     0.249 C 
HETATM    9  O   UNL     1      41.307 -17.823   3.393  1.00  0.00    -0.271 OA
HETATM   10  C   UNL     1      42.630 -13.591   5.145  1.00  0.00     0.035 C 
HETATM   11  C   UNL     1      41.997 -12.318   4.588  1.00  0.00     0.002 C 
HETATM   12  C   UNL     1      40.816 -12.632   3.673  1.00  0.00     0.002 C 
HETATM   13  C   UNL     1      39.763 -13.483   4.385  1.00  0.00     0.027 C 
HETATM   14  H   UNL     1      39.910 -15.912   3.229  1.00  0.00     0.163 HD
ENDROOT
BRANCH   1  15
HETATM   15  C   UNL     1      42.883 -18.111   5.757  1.00  0.00     0.146 C 
BRANCH  15  16
HETATM   16  C   UNL     1      44.382 -18.258   5.870  1.00  0.00     0.224 C 
HETATM   17  N   UNL     1      45.078 -19.195   5.176  1.00  0.00    -0.325 N 
HETATM   18  H   UNL     1      46.023 -19.321   5.528  1.00  0.00     0.169 HD
HETATM   19  O   UNL     1      44.977 -17.518   6.667  1.00  0.00    -0.273 OA
BRANCH  17  20
HETATM   20  C   UNL     1      44.705 -20.058   4.124  1.00  0.00     0.073 A 
HETATM   21  C   UNL     1      44.836 -21.432   4.365  1.00  0.00     0.033 A 
HETATM   22  C   UNL     1      44.475 -22.368   3.391  1.00  0.00     0.002 A 
HETATM   23  C   UNL     1      44.006 -21.942   2.150  1.00  0.00     0.003 A 
HETATM   24  C   UNL     1      43.914 -20.581   1.880  1.00  0.00     0.044 A 
HETATM   25  C   UNL     1      44.269 -19.651   2.857  1.00  0.00     0.143 A 
HETATM   26  F   UNL     1      44.251 -18.356   2.513  1.00  0.00    -0.204 F 
ENDBRANCH  17  20
ENDBRANCH  15  16
ENDBRANCH   1  15
TORSDOF 3
ENDMDL
MODEL 4
REMARK VINA RESULT:      -8.0      2.432      3.254
REMARK  3 active torsions:
REMARK  status: ('A' for Active; 'I' for Inactive)
REMARK    1  A    between atoms: C_3  and  N_4 
REMARK       I    between atoms: N_4  and  C_5 
REMARK    2  A    between atoms: C_5  and  C_6 
REMARK    3  A    between atoms: C_6  and  C_7 
ROOT
HETATM    1  C   UNL     1      42.038 -16.835   3.254  1.00  0.00     0.286 C 
HETATM    2  N   UNL     1      42.317 -16.900   4.754  1.00  0.00    -0.056 N 
HETATM    3  H   UNL     1      41.703 -17.663   5.113  1.00  0.00     0.278 HD
HETATM    4  H   UNL     1      43.279 -17.207   4.934  1.00  0.00     0.278 HD
HETATM    5  C   UNL     1      41.984 -15.646   5.513  1.00  0.00     0.209 C 
HETATM    6  C   UNL     1      40.521 -15.241   5.213  1.00  0.00     0.115 C 
HETATM    7  N   UNL     1      40.223 -15.213   3.782  1.00  0.00    -0.353 N 
HETATM    8  C   UNL     1      40.697 -16.155   2.903  1.00  0.00     0.249 C 
HETATM    9  O   UNL     1      40.108 -16.359   1.847  1.00  0.00    -0.271 OA
HETATM   10  C   UNL     1      42.994 -14.545   5.181  1.00  0.00     0.035 C 
HETATM   11  C   UNL     1      42.618 -13.232   5.863  1.00  0.00     0.002 C 
HETATM   12  C   UNL     1      41.194 -12.807   5.516  1.00  0.00     0.002 C 
HETATM   13  C   UNL     1      40.180 -13.897   5.864  1.00  0.00     0.027 C 
HETATM   14  H   UNL     1      39.316 -14.847   3.495  1.00  0.00     0.163 HD
ENDROOT
BRANCH   1  15
HETATM   15  C   UNL     1      42.120 -18.230   2.624  1.00  0.00     0.146 C 
BRANCH  15  16
HETATM   16  C   UNL     1      43.338 -18.317   1.735  1.00  0.00     0.224 C 
HETATM   17  N   UNL     1      44.348 -19.195   1.965  1.00  0.00    -0.325 N 
HETATM   18  H   UNL     1      45.185 -18.977   1.431  1.00  0.00     0.169 HD
HETATM   19  O   UNL     1      43.424 -17.517   0.792  1.00  0.00    -0.273 OA
BRANCH  17  20
HETATM   20  C   UNL     1      44.463 -20.287   2.851  1.00  0.00     0.073 A 
HETATM   21  C   UNL     1      44.721 -19.979   4.194  1.00  0.00     0.033 A 
HETATM   22  C   UNL     1      44.834 -20.991   5.152  1.00  0.00     0.002 A 
HETATM   23  C   UNL     1      44.721 -22.328   4.775  1.00  0.00     0.003 A 
HETATM   24  C   UNL     1      44.511 -22.651   3.439  1.00  0.00     0.044 A 
HETATM   25  C   UNL     1      44.393 -21.637   2.488  1.00  0.00     0.143 A 
HETATM   26  F   UNL     1      44.286 -22.004   1.204  1.00  0.00    -0.204 F 
ENDBRANCH  17  20
ENDBRANCH  15  16
ENDBRANCH   1  15
TORSDOF 3
ENDMDL
MODEL 5
REMARK VINA RESULT:      -7.9      1.826      2.295
REMARK  3 active torsions:
REMARK  status: ('A' for Active; 'I' for Inactive)
REMARK    1  A    between atoms: C_3  and  N_4 
REMARK       I    between atoms: N_4  and  C_5 
REMARK    2  A    between atoms: C_5  and  C_6 
REMARK    3  A    between atoms: C_6  and  C_7 
ROOT
HETATM    1  C   UNL     1      41.651 -17.160   3.369  1.00  0.00     0.286 C 
HETATM    2  N   UNL     1      42.774 -17.007   2.346  1.00  0.00    -0.056 N 
HETATM    3  H   UNL     1      43.612 -16.724   2.900  1.00  0.00     0.278 HD
HETATM    4  H   UNL     1      43.011 -17.912   1.924  1.00  0.00     0.278 HD
HETATM    5  C   UNL     1      42.537 -15.954   1.300  1.00  0.00     0.209 C 
HETATM    6  C   UNL     1      42.200 -14.612   1.993  1.00  0.00     0.115 C 
HETATM    7  N   UNL     1      41.154 -14.746   3.007  1.00  0.00    -0.353 N 
HETATM    8  C   UNL     1      41.080 -15.814   3.866  1.00  0.00     0.249 C 
HETATM    9  O   UNL     1      40.497 -15.697   4.939  1.00  0.00    -0.271 OA
HETATM   10  C   UNL     1      41.453 -16.417   0.323  1.00  0.00     0.035 C 
HETATM   11  C   UNL     1      41.125 -15.322  -0.689  1.00  0.00     0.002 C 
HETATM   12  C   UNL     1      40.735 -14.018   0.001  1.00  0.00     0.002 C 
HETATM   13  C   UNL     1      41.824 -13.543   0.964  1.00  0.00     0.027 C 
HETATM   14  H   UNL     1      40.794 -13.891   3.430  1.00  0.00     0.163 HD
ENDROOT
BRANCH   1  15
HETATM   15  C   UNL     1      42.104 -18.026   4.550  1.00  0.00     0.146 C 
BRANCH  15  16
HETATM   16  C   UNL     1      43.543 -17.715   4.888  1.00  0.00     0.224 C 
HETATM   17  N   UNL     1      44.520 -18.656   4.855  1.00  0.00    -0.325 N 
HETATM   18  H   UNL     1      45.370 -18.355   5.324  1.00  0.00     0.169 HD
HETATM   19  O   UNL     1      43.815 -16.561   5.253  1.00  0.00    -0.273 OA
BRANCH  17  20
HETATM   20  C   UNL     1      44.539 -19.977   4.360  1.00  0.00     0.073 A 
HETATM   21  C   UNL     1      44.674 -20.999   5.310  1.00  0.00     0.033 A 
HETATM   22  C   UNL     1      44.685 -22.342   4.921  1.00  0.00     0.002 A 
HETATM   23  C   UNL     1      44.591 -22.681   3.573  1.00  0.00     0.003 A 
HETATM   24  C   UNL     1      44.503 -21.677   2.615  1.00  0.00     0.044 A 
HETATM   25  C   UNL     1      44.487 -20.339   3.009  1.00  0.00     0.143 A 
HETATM   26  F   UNL     1      44.496 -19.410   2.043  1.00  0.00    -0.204 F 
ENDBRANCH  17  20
ENDBRANCH  15  16
ENDBRANCH   1  15
TORSDOF 3
ENDMDL
MODEL 6
REMARK VINA RESULT:      -7.6      1.985      2.657
REMARK  3 active torsions:
REMARK  status: ('A' for Active; 'I' for Inactive)
REMARK    1  A    between atoms: C_3  and  N_4 
REMARK       I    between atoms: N_4  and  C_5 
REMARK    2  A    between atoms: C_5  and  C_6 
REMARK    3  A    between atoms: C_6  and  C_7 
ROOT
HETATM    1  C   UNL     1      41.980 -16.331   5.960  1.00  0.00     0.286 C 
HETATM    2  N   UNL     1      41.328 -15.039   6.446  1.00  0.00    -0.056 N 
HETATM    3  H   UNL     1      40.430 -15.334   6.886  1.00  0.00     0.278 HD
HETATM    4  H   UNL     1      41.880 -14.610   7.198  1.00  0.00     0.278 HD
HETATM    5  C   UNL     1      41.006 -14.048   5.363  1.00  0.00     0.209 C 
HETATM    6  C   UNL     1      40.163 -14.744   4.267  1.00  0.00     0.115 C 
HETATM    7  N   UNL     1      40.750 -16.006   3.819  1.00  0.00    -0.353 N 
HETATM    8  C   UNL     1      41.340 -16.901   4.675  1.00  0.00     0.249 C 
HETATM    9  O   UNL     1      41.423 -18.084   4.364  1.00  0.00    -0.271 OA
HETATM   10  C   UNL     1      42.293 -13.419   4.823  1.00  0.00     0.035 C 
HETATM   11  C   UNL     1      41.997 -12.483   3.654  1.00  0.00     0.002 C 
HETATM   12  C   UNL     1      41.217 -13.192   2.550  1.00  0.00     0.002 C 
HETATM   13  C   UNL     1      39.921 -13.806   3.081  1.00  0.00     0.027 C 
HETATM   14  H   UNL     1      40.318 -16.471   3.021  1.00  0.00     0.163 HD
ENDROOT
BRANCH   1  15
HETATM   15  C   UNL     1      41.994 -17.385   7.073  1.00  0.00     0.146 C 
BRANCH  15  16
HETATM   16  C   UNL     1      43.328 -17.359   7.782  1.00  0.00     0.224 C 
HETATM   17  N   UNL     1      44.274 -18.314   7.591  1.00  0.00    -0.325 N 
HETATM   18  H   UNL     1      45.004 -18.288   8.298  1.00  0.00     0.169 HD
HETATM   19  O   UNL     1      43.530 -16.451   8.601  1.00  0.00    -0.273 OA
BRANCH  17  20
HETATM   20  C   UNL     1      44.382 -19.358   6.649  1.00  0.00     0.073 A 
HETATM   21  C   UNL     1      44.869 -19.010   5.381  1.00  0.00     0.033 A 
HETATM   22  C   UNL     1      45.028 -19.978   4.385  1.00  0.00     0.002 A 
HETATM   23  C   UNL     1      44.674 -21.303   4.632  1.00  0.00     0.003 A 
HETATM   24  C   UNL     1      44.146 -21.655   5.869  1.00  0.00     0.044 A 
HETATM   25  C   UNL     1      43.995 -20.687   6.862  1.00  0.00     0.143 A 
HETATM   26  F   UNL     1      43.395 -21.059   8.001  1.00  0.00    -0.204 F 
ENDBRANCH  17  20
ENDBRANCH  15  16
ENDBRANCH   1  15
TORSDOF 3
ENDMDL
MODEL 7
REMARK VINA RESULT:      -7.5      4.340      7.306
REMARK  3 active torsions:
REMARK  status: ('A' for Active; 'I' for Inactive)
REMARK    1  A    between atoms: C_3  and  N_4 
REMARK       I    between atoms: N_4  and  C_5 
REMARK    2  A    between atoms: C_5  and  C_6 
REMARK    3  A    between atoms: C_6  and  C_7 
ROOT
HETATM    1  C   UNL     1      40.140 -15.220   1.581  1.00  0.00     0.286 C 
HETATM    2  N   UNL     1      40.261 -16.625   0.994  1.00  0.00    -0.056 N 
HETATM    3  H   UNL     1      39.385 -17.116   1.276  1.00  0.00     0.278 HD
HETATM    4  H   UNL     1      40.248 -16.596  -0.032  1.00  0.00     0.278 HD
HETATM    5  C   UNL     1      41.424 -17.426   1.510  1.00  0.00     0.209 C 
HETATM    6  C   UNL     1      41.384 -17.447   3.057  1.00  0.00     0.115 C 
HETATM    7  N   UNL     1      41.225 -16.114   3.637  1.00  0.00    -0.353 N 
HETATM    8  C   UNL     1      40.393 -15.162   3.103  1.00  0.00     0.249 C 
HETATM    9  O   UNL     1      39.959 -14.261   3.813  1.00  0.00    -0.271 OA
HETATM   10  C   UNL     1      42.736 -16.872   0.949  1.00  0.00     0.035 C 
HETATM   11  C   UNL     1      43.937 -17.608   1.537  1.00  0.00     0.002 C 
HETATM   12  C   UNL     1      43.924 -17.574   3.063  1.00  0.00     0.002 C 
HETATM   13  C   UNL     1      42.622 -18.144   3.628  1.00  0.00     0.027 C 
HETATM   14  H   UNL     1      41.304 -16.027   4.649  1.00  0.00     0.163 HD
ENDROOT
BRANCH   1  15
HETATM   15  C   UNL     1      38.782 -14.601   1.233  1.00  0.00     0.146 C 
BRANCH  15  16
HETATM   16  C   UNL     1      38.988 -13.266   0.558  1.00  0.00     0.224 C 
HETATM   17  N   UNL     1      39.282 -13.153  -0.762  1.00  0.00    -0.325 N 
HETATM   18  H   UNL     1      39.616 -12.226  -1.011  1.00  0.00     0.169 HD
HETATM   19  O   UNL     1      38.929 -12.247   1.262  1.00  0.00    -0.273 OA
BRANCH  17  20
HETATM   20  C   UNL     1      39.277 -14.096  -1.812  1.00  0.00     0.073 A 
HETATM   21  C   UNL     1      38.064 -14.267  -2.493  1.00  0.00     0.033 A 
HETATM   22  C   UNL     1      37.963 -15.166  -3.560  1.00  0.00     0.002 A 
HETATM   23  C   UNL     1      39.066 -15.927  -3.941  1.00  0.00     0.003 A 
HETATM   24  C   UNL     1      40.263 -15.801  -3.245  1.00  0.00     0.044 A 
HETATM   25  C   UNL     1      40.361 -14.900  -2.185  1.00  0.00     0.143 A 
HETATM   26  F   UNL     1      41.506 -14.886  -1.490  1.00  0.00    -0.204 F 
ENDBRANCH  17  20
ENDBRANCH  15  16
ENDBRANCH   1  15
TORSDOF 3
ENDMDL
MODEL 8
REMARK VINA RESULT:      -7.5      2.445      6.039
REMARK  3 active torsions:
REMARK  status: ('A' for Active; 'I' for Inactive)
REMARK    1  A    between atoms: C_3  and  N_4 
REMARK       I    between atoms: N_4  and  C_5 
REMARK    2  A    between atoms: C_5  and  C_6 
REMARK    3  A    between atoms: C_6  and  C_7 
ROOT
HETATM    1  C   UNL     1      42.640 -17.861   5.828  1.00  0.00     0.286 C 
HETATM    2  N   UNL     1      44.159 -17.997   5.904  1.00  0.00    -0.056 N 
HETATM    3  H   UNL     1      44.532 -17.090   5.548  1.00  0.00     0.278 HD
HETATM    4  H   UNL     1      44.472 -18.064   6.879  1.00  0.00     0.278 HD
HETATM    5  C   UNL     1      44.738 -19.096   5.059  1.00  0.00     0.209 C 
HETATM    6  C   UNL     1      44.245 -18.935   3.601  1.00  0.00     0.115 C 
HETATM    7  N   UNL     1      42.796 -18.762   3.510  1.00  0.00    -0.353 N 
HETATM    8  C   UNL     1      42.078 -17.996   4.395  1.00  0.00     0.249 C 
HETATM    9  O   UNL     1      40.995 -17.528   4.062  1.00  0.00    -0.271 OA
HETATM   10  C   UNL     1      44.397 -20.460   5.663  1.00  0.00     0.035 C 
HETATM   11  C   UNL     1      44.890 -21.595   4.768  1.00  0.00     0.002 C 
HETATM   12  C   UNL     1      44.351 -21.463   3.346  1.00  0.00     0.002 C 
HETATM   13  C   UNL     1      44.707 -20.108   2.733  1.00  0.00     0.027 C 
HETATM   14  H   UNL     1      42.377 -18.763   2.581  1.00  0.00     0.163 HD
ENDROOT
BRANCH   1  15
HETATM   15  C   UNL     1      42.177 -16.549   6.470  1.00  0.00     0.146 C 
BRANCH  15  16
HETATM   16  C   UNL     1      43.375 -15.682   6.777  1.00  0.00     0.224 C 
HETATM   17  N   UNL     1      43.773 -14.673   5.960  1.00  0.00    -0.325 N 
HETATM   18  H   UNL     1      44.709 -14.341   6.176  1.00  0.00     0.169 HD
HETATM   19  O   UNL     1      44.035 -15.945   7.793  1.00  0.00    -0.273 OA
BRANCH  17  20
HETATM   20  C   UNL     1      43.160 -14.068   4.842  1.00  0.00     0.073 A 
HETATM   21  C   UNL     1      42.331 -12.969   5.103  1.00  0.00     0.033 A 
HETATM   22  C   UNL     1      41.692 -12.291   4.060  1.00  0.00     0.002 A 
HETATM   23  C   UNL     1      41.850 -12.721   2.744  1.00  0.00     0.003 A 
HETATM   24  C   UNL     1      42.634 -13.839   2.475  1.00  0.00     0.044 A 
HETATM   25  C   UNL     1      43.273 -14.508   3.518  1.00  0.00     0.143 A 
HETATM   26  F   UNL     1      43.938 -15.631   3.216  1.00  0.00    -0.204 F 
ENDBRANCH  17  20
ENDBRANCH  15  16
ENDBRANCH   1  15
TORSDOF 3
ENDMDL
MODEL 9
REMARK VINA RESULT:      -7.3      2.771      4.142
REMARK  3 active torsions:
REMARK  status: ('A' for Active; 'I' for Inactive)
REMARK    1  A    between atoms: C_3  and  N_4 
REMARK       I    between atoms: N_4  and  C_5 
REMARK    2  A    between atoms: C_5  and  C_6 
REMARK    3  A    between atoms: C_6  and  C_7 
ROOT
HETATM    1  C   UNL     1      42.222 -14.852   3.299  1.00  0.00     0.286 C 
HETATM    2  N   UNL     1      40.778 -14.529   2.924  1.00  0.00    -0.056 N 
HETATM    3  H   UNL     1      40.823 -14.164   1.948  1.00  0.00     0.278 HD
HETATM    4  H   UNL     1      40.212 -15.384   2.877  1.00  0.00     0.278 HD
HETATM    5  C   UNL     1      40.123 -13.479   3.778  1.00  0.00     0.209 C 
HETATM    6  C   UNL     1      41.012 -12.212   3.800  1.00  0.00     0.115 C 
HETATM    7  N   UNL     1      42.409 -12.506   4.116  1.00  0.00    -0.353 N 
HETATM    8  C   UNL     1      43.071 -13.603   3.623  1.00  0.00     0.249 C 
HETATM    9  O   UNL     1      44.294 -13.595   3.541  1.00  0.00    -0.271 OA
HETATM   10  C   UNL     1      39.837 -14.038   5.174  1.00  0.00     0.035 C 
HETATM   11  C   UNL     1      39.263 -12.959   6.089  1.00  0.00     0.002 C 
HETATM   12  C   UNL     1      40.174 -11.735   6.154  1.00  0.00     0.002 C 
HETATM   13  C   UNL     1      40.447 -11.163   4.762  1.00  0.00     0.027 C 
HETATM   14  H   UNL     1      43.037 -11.717   4.262  1.00  0.00     0.163 HD
ENDROOT
BRANCH   1  15
HETATM   15  C   UNL     1      42.892 -15.695   2.208  1.00  0.00     0.146 C 
BRANCH  15  16
HETATM   16  C   UNL     1      41.953 -16.791   1.762  1.00  0.00     0.224 C 
HETATM   17  N   UNL     1      42.075 -18.074   2.190  1.00  0.00    -0.325 N 
HETATM   18  H   UNL     1      41.528 -18.725   1.633  1.00  0.00     0.169 HD
HETATM   19  O   UNL     1      41.074 -16.500   0.938  1.00  0.00    -0.273 OA
BRANCH  17  20
HETATM   20  C   UNL     1      42.866 -18.659   3.201  1.00  0.00     0.073 A 
HETATM   21  C   UNL     1      43.852 -19.562   2.780  1.00  0.00     0.033 A 
HETATM   22  C   UNL     1      44.698 -20.180   3.706  1.00  0.00     0.002 A 
HETATM   23  C   UNL     1      44.551 -19.927   5.068  1.00  0.00     0.003 A 
HETATM   24  C   UNL     1      43.547 -19.068   5.504  1.00  0.00     0.044 A 
HETATM   25  C   UNL     1      42.709 -18.450   4.576  1.00  0.00     0.143 A 
HETATM   26  F   UNL     1      41.701 -17.707   5.054  1.00  0.00    -0.204 F 
ENDBRANCH  17  20
ENDBRANCH  15  16
ENDBRANCH   1  15
TORSDOF 3
ENDMDL
MODEL 10
REMARK VINA RESULT:      -7.3      3.670      6.981
REMARK  3 active torsions:
REMARK  status: ('A' for Active; 'I' for Inactive)
REMARK    1  A    between atoms: C_3  and  N_4 
REMARK       I    between atoms: N_4  and  C_5 
REMARK    2  A    between atoms: C_5  and  C_6 
REMARK    3  A    between atoms: C_6  and  C_7 
ROOT
HETATM    1  C   UNL     1      42.402 -15.486   2.111  1.00  0.00     0.286 C 
HETATM    2  N   UNL     1      41.616 -16.779   1.901  1.00  0.00    -0.056 N 
HETATM    3  H   UNL     1      40.680 -16.602   2.328  1.00  0.00     0.278 HD
HETATM    4  H   UNL     1      41.441 -16.944   0.903  1.00  0.00     0.278 HD
HETATM    5  C   UNL     1      42.204 -17.991   2.567  1.00  0.00     0.209 C 
HETATM    6  C   UNL     1      42.432 -17.689   4.068  1.00  0.00     0.115 C 
HETATM    7  N   UNL     1      43.146 -16.433   4.291  1.00  0.00    -0.353 N 
HETATM    8  C   UNL     1      42.907 -15.297   3.558  1.00  0.00     0.249 C 
HETATM    9  O   UNL     1      43.180 -14.197   4.025  1.00  0.00    -0.271 OA
HETATM   10  C   UNL     1      43.479 -18.425   1.841  1.00  0.00     0.035 C 
HETATM   11  C   UNL     1      44.149 -19.594   2.559  1.00  0.00     0.002 C 
HETATM   12  C   UNL     1      44.425 -19.268   4.025  1.00  0.00     0.002 C 
HETATM   13  C   UNL     1      43.150 -18.852   4.759  1.00  0.00     0.027 C 
HETATM   14  H   UNL     1      43.436 -16.217   5.244  1.00  0.00     0.163 HD
ENDROOT
BRANCH   1  15
HETATM   15  C   UNL     1      41.582 -14.272   1.659  1.00  0.00     0.146 C 
BRANCH  15  16
HETATM   16  C   UNL     1      40.136 -14.670   1.483  1.00  0.00     0.224 C 
HETATM   17  N   UNL     1      39.498 -14.593   0.287  1.00  0.00    -0.325 N 
HETATM   18  H   UNL     1      38.489 -14.670   0.376  1.00  0.00     0.169 HD
HETATM   19  O   UNL     1      39.509 -15.033   2.489  1.00  0.00    -0.273 OA
BRANCH  17  20
HETATM   20  C   UNL     1      39.974 -14.356  -1.020  1.00  0.00     0.073 A 
HETATM   21  C   UNL     1      39.484 -13.212  -1.666  1.00  0.00     0.033 A 
HETATM   22  C   UNL     1      39.909 -12.881  -2.956  1.00  0.00     0.002 A 
HETATM   23  C   UNL     1      40.807 -13.705  -3.631  1.00  0.00     0.003 A 
HETATM   24  C   UNL     1      41.266 -14.868  -3.021  1.00  0.00     0.044 A 
HETATM   25  C   UNL     1      40.844 -15.190  -1.731  1.00  0.00     0.143 A 
HETATM   26  F   UNL     1      41.242 -16.367  -1.227  1.00  0.00    -0.204 F 
ENDBRANCH  17  20
ENDBRANCH  15  16
ENDBRANCH   1  15
TORSDOF 3
ENDMDL
