MODEL 1
REMARK VINA RESULT:      -8.9      0.000      0.000
REMARK  8 active torsions:
REMARK  status: ('A' for Active; 'I' for Inactive)
REMARK    1  A    between atoms: C_2  and  N_3 
REMARK       I    between atoms: N_3  and  C_4 
REMARK       I    between atoms: C_4  and  N_5 
REMARK       I    between atoms: N_5  and  C_6 
REMARK    2  A    between atoms: C_6  and  C_7 
REMARK    3  A    between atoms: C_7  and  S_8 
REMARK    4  A    between atoms: C_7  and  C_29 
REMARK    5  A    between atoms: S_8  and  C_9 
REMARK    6  A    between atoms: N_10  and  C_11 
REMARK    7  A    between atoms: C_18  and  C_19 
REMARK    8  A    between atoms: C_19  and  N_20 
ROOT
HETATM    1  C   UNL     1      42.225 -14.278   3.955  1.00  0.00     0.197 A 
HETATM    2  N   UNL     1      41.868 -15.363   3.170  1.00  0.00    -0.274 N 
HETATM    3  C   UNL     1      40.660 -14.962   2.612  1.00  0.00     0.161 A 
HETATM    4  N   UNL     1      40.320 -13.772   3.076  1.00  0.00    -0.132 NA
HETATM    5  N   UNL     1      41.295 -13.354   3.918  1.00  0.00    -0.122 NA
ENDROOT
BRANCH   1   6
HETATM    6  S   UNL     1      43.785 -13.996   4.647  1.00  0.00    -0.071 SA
BRANCH   6   7
HETATM    7  C   UNL     1      43.504 -14.449   6.410  1.00  0.00     0.175 C 
BRANCH   7   8
HETATM    8  C   UNL     1      44.010 -13.360   7.377  1.00  0.00     0.224 C 
HETATM    9  N   UNL     1      45.235 -13.587   7.980  1.00  0.00    -0.178 NA
HETATM   10  C   UNL     1      46.089 -12.549   8.135  1.00  0.00     0.300 C 
HETATM   11  H   UNL     1      45.752 -14.307   7.488  1.00  0.00     0.141 HD
HETATM   12  N   UNL     1      45.853 -11.635   9.103  1.00  0.00    -0.348 N 
HETATM   13  O   UNL     1      47.099 -12.478   7.438  1.00  0.00    -0.254 OA
HETATM   14  H   UNL     1      46.575 -10.927   9.161  1.00  0.00     0.163 HD
HETATM   15  O   UNL     1      43.254 -12.445   7.714  1.00  0.00    -0.278 OA
BRANCH  12  16
HETATM   16  C   UNL     1      44.927 -11.731  10.216  1.00  0.00     0.119 C 
HETATM   17  C   UNL     1      44.356 -10.373  10.572  1.00  0.00     0.026 C 
ENDBRANCH  12  16
ENDBRANCH   7   8
BRANCH   7  18
HETATM   18  C   UNL     1      43.904 -15.885   6.750  1.00  0.00    -0.035 A 
HETATM   19  C   UNL     1      44.955 -16.557   6.106  1.00  0.00     0.009 A 
HETATM   20  C   UNL     1      45.301 -17.864   6.464  1.00  0.00     0.001 A 
HETATM   21  C   UNL     1      44.596 -18.526   7.465  1.00  0.00     0.000 A 
HETATM   22  C   UNL     1      43.548 -17.881   8.115  1.00  0.00     0.001 A 
HETATM   23  C   UNL     1      43.208 -16.572   7.765  1.00  0.00     0.009 A 
ENDBRANCH   7  18
ENDBRANCH   6   7
ENDBRANCH   1   6
BRANCH   2  24
HETATM   24  C   UNL     1      42.553 -16.590   2.992  1.00  0.00     0.043 A 
HETATM   25  C   UNL     1      43.440 -16.739   1.914  1.00  0.00     0.033 A 
HETATM   26  C   UNL     1      44.141 -17.936   1.747  1.00  0.00     0.044 A 
HETATM   27  C   UNL     1      43.947 -18.978   2.644  1.00  0.00     0.116 A 
HETATM   28  F   UNL     1      44.621 -20.124   2.485  1.00  0.00    -0.206 F 
HETATM   29  C   UNL     1      43.058 -18.849   3.704  1.00  0.00     0.044 A 
HETATM   30  C   UNL     1      42.352 -17.656   3.880  1.00  0.00     0.033 A 
ENDBRANCH   2  24
BRANCH   3  31
HETATM   31  C   UNL     1      39.750 -15.731   1.724  1.00  0.00     0.315 C 
BRANCH  31  32
HETATM   32  N   UNL     1      39.794 -15.137   0.318  1.00  0.00    -0.064 N 
HETATM   33  H   UNL     1      39.479 -15.918  -0.284  1.00  0.00     0.280 HD
HETATM   34  C   UNL     1      38.784 -14.029   0.134  1.00  0.00     0.235 C 
HETATM   35  C   UNL     1      38.729 -13.637  -1.335  1.00  0.00     0.028 C 
HETATM   36  C   UNL     1      40.106 -13.249  -1.861  1.00  0.00     0.003 C 
HETATM   37  C   UNL     1      41.131 -14.348  -1.598  1.00  0.00     0.028 C 
HETATM   38  C   UNL     1      41.173 -14.748  -0.129  1.00  0.00     0.235 C 
ENDBRANCH  31  32
ENDBRANCH   3  31
TORSDOF 8
ENDMDL
MODEL 2
REMARK VINA RESULT:      -8.7      3.027      8.009
REMARK  8 active torsions:
REMARK  status: ('A' for Active; 'I' for Inactive)
REMARK    1  A    between atoms: C_2  and  N_3 
REMARK       I    between atoms: N_3  and  C_4 
REMARK       I    between atoms: C_4  and  N_5 
REMARK       I    between atoms: N_5  and  C_6 
REMARK    2  A    between atoms: C_6  and  C_7 
REMARK    3  A    between atoms: C_7  and  S_8 
REMARK    4  A    between atoms: C_7  and  C_29 
REMARK    5  A    between atoms: S_8  and  C_9 
REMARK    6  A    between atoms: N_10  and  C_11 
REMARK    7  A    between atoms: C_18  and  C_19 
REMARK    8  A    between atoms: C_19  and  N_20 
ROOT
HETATM    1  C   UNL     1      42.752 -16.065   6.277  1.00  0.00     0.197 A 
HETATM    2  N   UNL     1      42.931 -14.701   6.117  1.00  0.00    -0.274 N 
HETATM    3  C   UNL     1      43.972 -14.416   6.993  1.00  0.00     0.161 A 
HETATM    4  N   UNL     1      44.328 -15.510   7.643  1.00  0.00    -0.132 NA
HETATM    5  N   UNL     1      43.559 -16.533   7.198  1.00  0.00    -0.122 NA
ENDROOT
BRANCH   1   6
HETATM    6  S   UNL     1      41.842 -17.099   5.230  1.00  0.00    -0.071 SA
BRANCH   6   7
HETATM    7  C   UNL     1      42.958 -17.237   3.772  1.00  0.00     0.175 C 
BRANCH   7   8
HETATM    8  C   UNL     1      42.377 -16.539   2.526  1.00  0.00     0.224 C 
HETATM    9  N   UNL     1      41.028 -16.731   2.282  1.00  0.00    -0.178 NA
HETATM   10  C   UNL     1      40.290 -15.687   1.836  1.00  0.00     0.300 C 
HETATM   11  H   UNL     1      40.556 -17.076   3.110  1.00  0.00     0.141 HD
HETATM   12  N   UNL     1      40.404 -15.298   0.547  1.00  0.00    -0.348 N 
HETATM   13  O   UNL     1      39.483 -15.143   2.587  1.00  0.00    -0.254 OA
HETATM   14  H   UNL     1      39.777 -14.539   0.307  1.00  0.00     0.163 HD
HETATM   15  O   UNL     1      43.137 -16.006   1.715  1.00  0.00    -0.278 OA
BRANCH  12  16
HETATM   16  C   UNL     1      41.032 -16.012  -0.550  1.00  0.00     0.119 C 
HETATM   17  C   UNL     1      40.954 -15.215  -1.838  1.00  0.00     0.026 C 
ENDBRANCH  12  16
ENDBRANCH   7   8
BRANCH   7  18
HETATM   18  C   UNL     1      43.515 -18.645   3.552  1.00  0.00    -0.035 A 
HETATM   19  C   UNL     1      43.324 -19.364   2.362  1.00  0.00     0.009 A 
HETATM   20  C   UNL     1      43.870 -20.642   2.197  1.00  0.00     0.001 A 
HETATM   21  C   UNL     1      44.608 -21.226   3.222  1.00  0.00     0.000 A 
HETATM   22  C   UNL     1      44.807 -20.533   4.413  1.00  0.00     0.001 A 
HETATM   23  C   UNL     1      44.271 -19.253   4.575  1.00  0.00     0.009 A 
ENDBRANCH   7  18
ENDBRANCH   6   7
ENDBRANCH   1   6
BRANCH   2  24
HETATM   24  C   UNL     1      42.217 -13.805   5.282  1.00  0.00     0.043 A 
HETATM   25  C   UNL     1      42.763 -13.426   4.046  1.00  0.00     0.033 A 
HETATM   26  C   UNL     1      42.053 -12.567   3.204  1.00  0.00     0.044 A 
HETATM   27  C   UNL     1      40.814 -12.083   3.600  1.00  0.00     0.116 A 
HETATM   28  F   UNL     1      40.133 -11.262   2.792  1.00  0.00    -0.206 F 
HETATM   29  C   UNL     1      40.271 -12.436   4.830  1.00  0.00     0.044 A 
HETATM   30  C   UNL     1      40.973 -13.296   5.679  1.00  0.00     0.033 A 
ENDBRANCH   2  24
BRANCH   3  31
HETATM   31  C   UNL     1      44.575 -13.098   7.318  1.00  0.00     0.315 C 
BRANCH  31  32
HETATM   32  N   UNL     1      44.028 -12.607   8.655  1.00  0.00    -0.064 N 
HETATM   33  H   UNL     1      43.394 -13.371   8.952  1.00  0.00     0.280 HD
HETATM   34  C   UNL     1      45.102 -12.516   9.714  1.00  0.00     0.235 C 
HETATM   35  C   UNL     1      44.457 -12.237  11.064  1.00  0.00     0.028 C 
HETATM   36  C   UNL     1      43.590 -10.984  11.019  1.00  0.00     0.003 C 
HETATM   37  C   UNL     1      42.561 -11.060   9.896  1.00  0.00     0.028 C 
HETATM   38  C   UNL     1      43.209 -11.354   8.548  1.00  0.00     0.235 C 
ENDBRANCH  31  32
ENDBRANCH   3  31
TORSDOF 8
ENDMDL
MODEL 3
REMARK VINA RESULT:      -8.6      3.233      6.101
REMARK  8 active torsions:
REMARK  status: ('A' for Active; 'I' for Inactive)
REMARK    1  A    between atoms: C_2  and  N_3 
REMARK       I    between atoms: N_3  and  C_4 
REMARK       I    between atoms: C_4  and  N_5 
REMARK       I    between atoms: N_5  and  C_6 
REMARK    2  A    between atoms: C_6  and  C_7 
REMARK    3  A    between atoms: C_7  and  S_8 
REMARK    4  A    between atoms: C_7  and  C_29 
REMARK    5  A    between atoms: S_8  and  C_9 
REMARK    6  A    between atoms: N_10  and  C_11 
REMARK    7  A    between atoms: C_18  and  C_19 
REMARK    8  A    between atoms: C_19  and  N_20 
ROOT
HETATM    1  C   UNL     1      42.143 -16.629   6.135  1.00  0.00     0.197 A 
HETATM    2  N   UNL     1      42.895 -17.217   5.130  1.00  0.00    -0.274 N 
HETATM    3  C   UNL     1      43.870 -17.914   5.834  1.00  0.00     0.161 A 
HETATM    4  N   UNL     1      43.729 -17.703   7.131  1.00  0.00    -0.132 NA
HETATM    5  N   UNL     1      42.656 -16.896   7.312  1.00  0.00    -0.122 NA
ENDROOT
BRANCH   1   6
HETATM    6  S   UNL     1      40.583 -15.907   5.945  1.00  0.00    -0.071 SA
BRANCH   6   7
HETATM    7  C   UNL     1      41.016 -14.223   5.340  1.00  0.00     0.175 C 
BRANCH   7   8
HETATM    8  C   UNL     1      40.383 -13.114   6.205  1.00  0.00     0.224 C 
HETATM    9  N   UNL     1      41.257 -12.276   6.876  1.00  0.00    -0.178 NA
HETATM   10  C   UNL     1      40.967 -10.956   6.952  1.00  0.00     0.300 C 
HETATM   11  H   UNL     1      42.190 -12.338   6.483  1.00  0.00     0.141 HD
HETATM   12  N   UNL     1      40.008 -10.537   7.807  1.00  0.00    -0.348 N 
HETATM   13  O   UNL     1      41.616 -10.148   6.291  1.00  0.00    -0.254 OA
HETATM   14  H   UNL     1      39.903  -9.530   7.818  1.00  0.00     0.163 HD
HETATM   15  O   UNL     1      39.168 -13.123   6.413  1.00  0.00    -0.278 OA
BRANCH  12  16
HETATM   16  C   UNL     1      39.386 -11.281   8.887  1.00  0.00     0.119 C 
HETATM   17  C   UNL     1      40.066 -10.993  10.212  1.00  0.00     0.026 C 
ENDBRANCH  12  16
ENDBRANCH   7   8
BRANCH   7  18
HETATM   18  C   UNL     1      40.874 -14.056   3.826  1.00  0.00    -0.035 A 
HETATM   19  C   UNL     1      39.866 -14.687   3.080  1.00  0.00     0.009 A 
HETATM   20  C   UNL     1      39.761 -14.488   1.700  1.00  0.00     0.001 A 
HETATM   21  C   UNL     1      40.666 -13.663   1.039  1.00  0.00     0.000 A 
HETATM   22  C   UNL     1      41.675 -13.029   1.758  1.00  0.00     0.001 A 
HETATM   23  C   UNL     1      41.776 -13.219   3.139  1.00  0.00     0.009 A 
ENDBRANCH   7  18
ENDBRANCH   6   7
ENDBRANCH   1   6
BRANCH   2  24
HETATM   24  C   UNL     1      42.726 -17.119   3.726  1.00  0.00     0.043 A 
HETATM   25  C   UNL     1      43.594 -16.308   2.979  1.00  0.00     0.033 A 
HETATM   26  C   UNL     1      43.453 -16.228   1.591  1.00  0.00     0.044 A 
HETATM   27  C   UNL     1      42.446 -16.945   0.959  1.00  0.00     0.116 A 
HETATM   28  F   UNL     1      42.313 -16.870  -0.371  1.00  0.00    -0.206 F 
HETATM   29  C   UNL     1      41.569 -17.737   1.690  1.00  0.00     0.044 A 
HETATM   30  C   UNL     1      41.702 -17.824   3.078  1.00  0.00     0.033 A 
ENDBRANCH   2  24
BRANCH   3  31
HETATM   31  C   UNL     1      45.015 -18.696   5.301  1.00  0.00     0.315 C 
BRANCH  31  32
HETATM   32  N   UNL     1      44.489 -19.916   4.550  1.00  0.00    -0.064 N 
HETATM   33  H   UNL     1      43.465 -19.870   4.701  1.00  0.00     0.280 HD
HETATM   34  C   UNL     1      44.699 -19.804   3.058  1.00  0.00     0.235 C 
HETATM   35  C   UNL     1      43.962 -20.937   2.359  1.00  0.00     0.028 C 
HETATM   36  C   UNL     1      44.392 -22.297   2.897  1.00  0.00     0.003 C 
HETATM   37  C   UNL     1      44.244 -22.367   4.413  1.00  0.00     0.028 C 
HETATM   38  C   UNL     1      44.971 -21.223   5.110  1.00  0.00     0.235 C 
ENDBRANCH  31  32
ENDBRANCH   3  31
TORSDOF 8
ENDMDL
MODEL 4
REMARK VINA RESULT:      -8.5      3.222      5.471
REMARK  8 active torsions:
REMARK  status: ('A' for Active; 'I' for Inactive)
REMARK    1  A    between atoms: C_2  and  N_3 
REMARK       I    between atoms: N_3  and  C_4 
REMARK       I    between atoms: C_4  and  N_5 
REMARK       I    between atoms: N_5  and  C_6 
REMARK    2  A    between atoms: C_6  and  C_7 
REMARK    3  A    between atoms: C_7  and  S_8 
REMARK    4  A    between atoms: C_7  and  C_29 
REMARK    5  A    between atoms: S_8  and  C_9 
REMARK    6  A    between atoms: N_10  and  C_11 
REMARK    7  A    between atoms: C_18  and  C_19 
REMARK    8  A    between atoms: C_19  and  N_20 
ROOT
HETATM    1  C   UNL     1      40.634 -15.907   1.080  1.00  0.00     0.197 A 
HETATM    2  N   UNL     1      40.343 -14.727   0.415  1.00  0.00    -0.274 N 
HETATM    3  C   UNL     1      39.179 -14.294   1.038  1.00  0.00     0.161 A 
HETATM    4  N   UNL     1      38.798 -15.175   1.947  1.00  0.00    -0.132 NA
HETATM    5  N   UNL     1      39.705 -16.182   1.963  1.00  0.00    -0.122 NA
ENDROOT
BRANCH   1   6
HETATM    6  S   UNL     1      42.136 -16.764   1.018  1.00  0.00    -0.071 SA
BRANCH   6   7
HETATM    7  C   UNL     1      42.249 -17.452   2.722  1.00  0.00     0.175 C 
BRANCH   7   8
HETATM    8  C   UNL     1      42.544 -16.361   3.771  1.00  0.00     0.224 C 
HETATM    9  N   UNL     1      43.586 -15.495   3.488  1.00  0.00    -0.178 NA
HETATM   10  C   UNL     1      43.447 -14.184   3.797  1.00  0.00     0.300 C 
HETATM   11  H   UNL     1      43.827 -15.529   2.504  1.00  0.00     0.141 HD
HETATM   12  N   UNL     1      43.554 -13.793   5.086  1.00  0.00    -0.348 N 
HETATM   13  O   UNL     1      43.286 -13.358   2.901  1.00  0.00    -0.254 OA
HETATM   14  H   UNL     1      43.479 -12.789   5.200  1.00  0.00     0.163 HD
HETATM   15  O   UNL     1      41.987 -16.407   4.870  1.00  0.00    -0.278 OA
BRANCH  12  16
HETATM   16  C   UNL     1      44.067 -14.552   6.211  1.00  0.00     0.119 C 
HETATM   17  C   UNL     1      45.193 -13.810   6.905  1.00  0.00     0.026 C 
ENDBRANCH  12  16
ENDBRANCH   7   8
BRANCH   7  18
HETATM   18  C   UNL     1      43.097 -18.722   2.819  1.00  0.00    -0.035 A 
HETATM   19  C   UNL     1      43.978 -18.972   3.883  1.00  0.00     0.009 A 
HETATM   20  C   UNL     1      44.718 -20.157   3.942  1.00  0.00     0.001 A 
HETATM   21  C   UNL     1      44.599 -21.109   2.934  1.00  0.00     0.000 A 
HETATM   22  C   UNL     1      43.733 -20.881   1.868  1.00  0.00     0.001 A 
HETATM   23  C   UNL     1      42.986 -19.702   1.813  1.00  0.00     0.009 A 
ENDBRANCH   7  18
ENDBRANCH   6   7
ENDBRANCH   1   6
BRANCH   2  24
HETATM   24  C   UNL     1      41.047 -14.116  -0.652  1.00  0.00     0.043 A 
HETATM   25  C   UNL     1      40.924 -14.635  -1.951  1.00  0.00     0.033 A 
HETATM   26  C   UNL     1      41.592 -14.021  -3.014  1.00  0.00     0.044 A 
HETATM   27  C   UNL     1      42.382 -12.905  -2.777  1.00  0.00     0.116 A 
HETATM   28  F   UNL     1      43.019 -12.316  -3.797  1.00  0.00    -0.206 F 
HETATM   29  C   UNL     1      42.526 -12.393  -1.494  1.00  0.00     0.044 A 
HETATM   30  C   UNL     1      41.863 -12.999  -0.424  1.00  0.00     0.033 A 
ENDBRANCH   2  24
BRANCH   3  31
HETATM   31  C   UNL     1      38.343 -13.109   0.718  1.00  0.00     0.315 C 
BRANCH  31  32
HETATM   32  N   UNL     1      38.382 -12.131   1.890  1.00  0.00    -0.064 N 
HETATM   33  H   UNL     1      37.985 -12.678   2.675  1.00  0.00     0.280 HD
HETATM   34  C   UNL     1      39.794 -11.780   2.294  1.00  0.00     0.235 C 
HETATM   35  C   UNL     1      39.765 -10.986   3.592  1.00  0.00     0.028 C 
HETATM   36  C   UNL     1      38.880  -9.751   3.470  1.00  0.00     0.003 C 
HETATM   37  C   UNL     1      37.480 -10.115   2.988  1.00  0.00     0.028 C 
HETATM   38  C   UNL     1      37.514 -10.922   1.696  1.00  0.00     0.235 C 
ENDBRANCH  31  32
ENDBRANCH   3  31
TORSDOF 8
ENDMDL
MODEL 5
REMARK VINA RESULT:      -8.3      3.075      4.851
REMARK  8 active torsions:
REMARK  status: ('A' for Active; 'I' for Inactive)
REMARK    1  A    between atoms: C_2  and  N_3 
REMARK       I    between atoms: N_3  and  C_4 
REMARK       I    between atoms: C_4  and  N_5 
REMARK       I    between atoms: N_5  and  C_6 
REMARK    2  A    between atoms: C_6  and  C_7 
REMARK    3  A    between atoms: C_7  and  S_8 
REMARK    4  A    between atoms: C_7  and  C_29 
REMARK    5  A    between atoms: S_8  and  C_9 
REMARK    6  A    between atoms: N_10  and  C_11 
REMARK    7  A    between atoms: C_18  and  C_19 
REMARK    8  A    between atoms: C_19  and  N_20 
ROOT
HETATM    1  C   UNL     1      42.655 -16.124   1.379  1.00  0.00     0.197 A 
HETATM    2  N   UNL     1      41.647 -15.261   1.778  1.00  0.00    -0.274 N 
HETATM    3  C   UNL     1      40.739 -15.331   0.728  1.00  0.00     0.161 A 
HETATM    4  N   UNL     1      41.207 -16.123  -0.222  1.00  0.00    -0.132 NA
HETATM    5  N   UNL     1      42.404 -16.608   0.186  1.00  0.00    -0.122 NA
ENDROOT
BRANCH   1   6
HETATM    6  S   UNL     1      43.915 -16.748   2.386  1.00  0.00    -0.071 SA
BRANCH   6   7
HETATM    7  C   UNL     1      43.024 -18.040   3.350  1.00  0.00     0.175 C 
BRANCH   7   8
HETATM    8  C   UNL     1      42.829 -17.634   4.824  1.00  0.00     0.224 C 
HETATM    9  N   UNL     1      43.926 -17.088   5.467  1.00  0.00    -0.178 NA
HETATM   10  C   UNL     1      43.735 -16.053   6.318  1.00  0.00     0.300 C 
HETATM   11  H   UNL     1      44.620 -16.776   4.797  1.00  0.00     0.141 HD
HETATM   12  N   UNL     1      43.214 -16.290   7.543  1.00  0.00    -0.348 N 
HETATM   13  O   UNL     1      44.090 -14.921   5.996  1.00  0.00    -0.254 OA
HETATM   14  H   UNL     1      43.155 -15.455   8.115  1.00  0.00     0.163 HD
HETATM   15  O   UNL     1      41.799 -17.967   5.416  1.00  0.00    -0.278 OA
BRANCH  12  16
HETATM   16  C   UNL     1      43.054 -17.567   8.214  1.00  0.00     0.119 C 
HETATM   17  C   UNL     1      44.385 -18.279   8.361  1.00  0.00     0.026 C 
ENDBRANCH  12  16
ENDBRANCH   7   8
BRANCH   7  18
HETATM   18  C   UNL     1      43.546 -19.458   3.108  1.00  0.00    -0.035 A 
HETATM   19  C   UNL     1      44.351 -20.143   4.032  1.00  0.00     0.009 A 
HETATM   20  C   UNL     1      44.787 -21.447   3.778  1.00  0.00     0.001 A 
HETATM   21  C   UNL     1      44.434 -22.087   2.595  1.00  0.00     0.000 A 
HETATM   22  C   UNL     1      43.639 -21.426   1.663  1.00  0.00     0.001 A 
HETATM   23  C   UNL     1      43.194 -20.127   1.919  1.00  0.00     0.009 A 
ENDBRANCH   7  18
ENDBRANCH   6   7
ENDBRANCH   1   6
BRANCH   2  24
HETATM   24  C   UNL     1      41.566 -14.480   2.958  1.00  0.00     0.043 A 
HETATM   25  C   UNL     1      42.312 -13.295   3.058  1.00  0.00     0.033 A 
HETATM   26  C   UNL     1      42.215 -12.505   4.206  1.00  0.00     0.044 A 
HETATM   27  C   UNL     1      41.388 -12.903   5.247  1.00  0.00     0.116 A 
HETATM   28  F   UNL     1      41.295 -12.144   6.346  1.00  0.00    -0.206 F 
HETATM   29  C   UNL     1      40.659 -14.083   5.168  1.00  0.00     0.044 A 
HETATM   30  C   UNL     1      40.748 -14.880   4.024  1.00  0.00     0.033 A 
ENDBRANCH   2  24
BRANCH   3  31
HETATM   31  C   UNL     1      39.475 -14.574   0.544  1.00  0.00     0.315 C 
BRANCH  31  32
HETATM   32  N   UNL     1      39.321 -14.196  -0.927  1.00  0.00    -0.064 N 
HETATM   33  H   UNL     1      39.593 -15.061  -1.429  1.00  0.00     0.280 HD
HETATM   34  C   UNL     1      37.881 -13.928  -1.300  1.00  0.00     0.235 C 
HETATM   35  C   UNL     1      37.772 -13.777  -2.810  1.00  0.00     0.028 C 
HETATM   36  C   UNL     1      38.710 -12.694  -3.331  1.00  0.00     0.003 C 
HETATM   37  C   UNL     1      40.146 -12.938  -2.881  1.00  0.00     0.028 C 
HETATM   38  C   UNL     1      40.250 -13.104  -1.370  1.00  0.00     0.235 C 
ENDBRANCH  31  32
ENDBRANCH   3  31
TORSDOF 8
ENDMDL
MODEL 6
REMARK VINA RESULT:      -8.3      3.376      5.503
REMARK  8 active torsions:
REMARK  status: ('A' for Active; 'I' for Inactive)
REMARK    1  A    between atoms: C_2  and  N_3 
REMARK       I    between atoms: N_3  and  C_4 
REMARK       I    between atoms: C_4  and  N_5 
REMARK       I    between atoms: N_5  and  C_6 
REMARK    2  A    between atoms: C_6  and  C_7 
REMARK    3  A    between atoms: C_7  and  S_8 
REMARK    4  A    between atoms: C_7  and  C_29 
REMARK    5  A    between atoms: S_8  and  C_9 
REMARK    6  A    between atoms: N_10  and  C_11 
REMARK    7  A    between atoms: C_18  and  C_19 
REMARK    8  A    between atoms: C_19  and  N_20 
ROOT
HETATM    1  C   UNL     1      40.617 -15.871   1.073  1.00  0.00     0.197 A 
HETATM    2  N   UNL     1      40.315 -14.710   0.380  1.00  0.00    -0.274 N 
HETATM    3  C   UNL     1      39.146 -14.274   0.992  1.00  0.00     0.161 A 
HETATM    4  N   UNL     1      38.773 -15.137   1.922  1.00  0.00    -0.132 NA
HETATM    5  N   UNL     1      39.690 -16.133   1.963  1.00  0.00    -0.122 NA
ENDROOT
BRANCH   1   6
HETATM    6  S   UNL     1      42.128 -16.714   1.032  1.00  0.00    -0.071 SA
BRANCH   6   7
HETATM    7  C   UNL     1      42.261 -17.335   2.761  1.00  0.00     0.175 C 
BRANCH   7   8
HETATM    8  C   UNL     1      42.562 -16.203   3.763  1.00  0.00     0.224 C 
HETATM    9  N   UNL     1      41.639 -16.010   4.776  1.00  0.00    -0.178 NA
HETATM   10  C   UNL     1      42.086 -15.717   6.020  1.00  0.00     0.300 C 
HETATM   11  H   UNL     1      41.038 -16.820   4.877  1.00  0.00     0.141 HD
HETATM   12  N   UNL     1      42.542 -14.472   6.283  1.00  0.00    -0.348 N 
HETATM   13  O   UNL     1      42.019 -16.562   6.910  1.00  0.00    -0.254 OA
HETATM   14  H   UNL     1      42.809 -14.347   7.253  1.00  0.00     0.163 HD
HETATM   15  O   UNL     1      43.482 -15.414   3.533  1.00  0.00    -0.278 OA
BRANCH  12  16
HETATM   16  C   UNL     1      42.387 -13.274   5.479  1.00  0.00     0.119 C 
HETATM   17  C   UNL     1      41.743 -12.158   6.277  1.00  0.00     0.026 C 
ENDBRANCH  12  16
ENDBRANCH   7   8
BRANCH   7  18
HETATM   18  C   UNL     1      43.115 -18.597   2.899  1.00  0.00    -0.035 A 
HETATM   19  C   UNL     1      43.951 -18.836   4.001  1.00  0.00     0.009 A 
HETATM   20  C   UNL     1      44.698 -20.015   4.095  1.00  0.00     0.001 A 
HETATM   21  C   UNL     1      44.629 -20.971   3.086  1.00  0.00     0.000 A 
HETATM   22  C   UNL     1      43.809 -20.754   1.983  1.00  0.00     0.001 A 
HETATM   23  C   UNL     1      43.054 -19.581   1.892  1.00  0.00     0.009 A 
ENDBRANCH   7  18
ENDBRANCH   6   7
ENDBRANCH   1   6
BRANCH   2  24
HETATM   24  C   UNL     1      41.013 -14.118  -0.702  1.00  0.00     0.043 A 
HETATM   25  C   UNL     1      40.855 -14.639  -1.997  1.00  0.00     0.033 A 
HETATM   26  C   UNL     1      41.517 -14.043  -3.073  1.00  0.00     0.044 A 
HETATM   27  C   UNL     1      42.336 -12.944  -2.855  1.00  0.00     0.116 A 
HETATM   28  F   UNL     1      42.968 -12.373  -3.887  1.00  0.00    -0.206 F 
HETATM   29  C   UNL     1      42.515 -12.431  -1.576  1.00  0.00     0.044 A 
HETATM   30  C   UNL     1      41.857 -13.019  -0.492  1.00  0.00     0.033 A 
ENDBRANCH   2  24
BRANCH   3  31
HETATM   31  C   UNL     1      38.298 -13.106   0.643  1.00  0.00     0.315 C 
BRANCH  31  32
HETATM   32  N   UNL     1      38.340 -12.092   1.783  1.00  0.00    -0.064 N 
HETATM   33  H   UNL     1      38.010 -12.634   2.602  1.00  0.00     0.280 HD
HETATM   34  C   UNL     1      39.749 -11.655   2.108  1.00  0.00     0.235 C 
HETATM   35  C   UNL     1      39.739 -10.825   3.383  1.00  0.00     0.028 C 
HETATM   36  C   UNL     1      38.785  -9.641   3.270  1.00  0.00     0.003 C 
HETATM   37  C   UNL     1      37.385 -10.093   2.866  1.00  0.00     0.028 C 
HETATM   38  C   UNL     1      37.401 -10.936   1.598  1.00  0.00     0.235 C 
ENDBRANCH  31  32
ENDBRANCH   3  31
TORSDOF 8
ENDMDL
MODEL 7
REMARK VINA RESULT:      -8.0      3.553      8.109
REMARK  8 active torsions:
REMARK  status: ('A' for Active; 'I' for Inactive)
REMARK    1  A    between atoms: C_2  and  N_3 
REMARK       I    between atoms: N_3  and  C_4 
REMARK       I    between atoms: C_4  and  N_5 
REMARK       I    between atoms: N_5  and  C_6 
REMARK    2  A    between atoms: C_6  and  C_7 
REMARK    3  A    between atoms: C_7  and  S_8 
REMARK    4  A    between atoms: C_7  and  C_29 
REMARK    5  A    between atoms: S_8  and  C_9 
REMARK    6  A    between atoms: N_10  and  C_11 
REMARK    7  A    between atoms: C_18  and  C_19 
REMARK    8  A    between atoms: C_19  and  N_20 
ROOT
HETATM    1  C   UNL     1      40.620 -13.154   3.434  1.00  0.00     0.197 A 
HETATM    2  N   UNL     1      41.239 -13.518   4.619  1.00  0.00    -0.274 N 
HETATM    3  C   UNL     1      41.386 -12.306   5.282  1.00  0.00     0.161 A 
HETATM    4  N   UNL     1      40.942 -11.319   4.524  1.00  0.00    -0.132 NA
HETATM    5  N   UNL     1      40.473 -11.853   3.370  1.00  0.00    -0.122 NA
ENDROOT
BRANCH   1   6
HETATM    6  S   UNL     1      39.854 -14.230   2.317  1.00  0.00    -0.071 SA
BRANCH   6   7
HETATM    7  C   UNL     1      41.238 -14.631   1.169  1.00  0.00     0.175 C 
BRANCH   7   8
HETATM    8  C   UNL     1      40.854 -14.400  -0.306  1.00  0.00     0.224 C 
HETATM    9  N   UNL     1      39.568 -14.756  -0.675  1.00  0.00    -0.178 NA
HETATM   10  C   UNL     1      38.892 -13.959  -1.535  1.00  0.00     0.300 C 
HETATM   11  H   UNL     1      38.974 -14.858   0.141  1.00  0.00     0.141 HD
HETATM   12  N   UNL     1      39.208 -13.985  -2.849  1.00  0.00    -0.348 N 
HETATM   13  O   UNL     1      37.961 -13.267  -1.127  1.00  0.00    -0.254 OA
HETATM   14  H   UNL     1      38.613 -13.386  -3.410  1.00  0.00     0.163 HD
HETATM   15  O   UNL     1      41.726 -14.094  -1.123  1.00  0.00    -0.278 OA
BRANCH  12  16
HETATM   16  C   UNL     1      40.022 -14.959  -3.554  1.00  0.00     0.119 C 
HETATM   17  C   UNL     1      39.179 -16.113  -4.059  1.00  0.00     0.026 C 
ENDBRANCH  12  16
ENDBRANCH   7   8
BRANCH   7  18
HETATM   18  C   UNL     1      41.934 -15.956   1.481  1.00  0.00    -0.035 A 
HETATM   19  C   UNL     1      43.308 -16.163   1.280  1.00  0.00     0.009 A 
HETATM   20  C   UNL     1      43.907 -17.386   1.600  1.00  0.00     0.001 A 
HETATM   21  C   UNL     1      43.142 -18.426   2.119  1.00  0.00     0.000 A 
HETATM   22  C   UNL     1      41.777 -18.245   2.324  1.00  0.00     0.001 A 
HETATM   23  C   UNL     1      41.180 -17.020   2.014  1.00  0.00     0.009 A 
ENDBRANCH   7  18
ENDBRANCH   6   7
ENDBRANCH   1   6
BRANCH   2  24
HETATM   24  C   UNL     1      41.642 -14.808   5.048  1.00  0.00     0.043 A 
HETATM   25  C   UNL     1      40.704 -15.665   5.644  1.00  0.00     0.033 A 
HETATM   26  C   UNL     1      41.087 -16.948   6.044  1.00  0.00     0.044 A 
HETATM   27  C   UNL     1      42.397 -17.365   5.857  1.00  0.00     0.116 A 
HETATM   28  F   UNL     1      42.762 -18.595   6.238  1.00  0.00    -0.206 F 
HETATM   29  C   UNL     1      43.340 -16.519   5.285  1.00  0.00     0.044 A 
HETATM   30  C   UNL     1      42.967 -15.234   4.882  1.00  0.00     0.033 A 
ENDBRANCH   2  24
BRANCH   3  31
HETATM   31  C   UNL     1      42.046 -12.037   6.586  1.00  0.00     0.315 C 
BRANCH  31  32
HETATM   32  N   UNL     1      41.299 -10.920   7.310  1.00  0.00    -0.064 N 
HETATM   33  H   UNL     1      41.157 -10.206   6.572  1.00  0.00     0.280 HD
HETATM   34  C   UNL     1      39.920 -11.348   7.753  1.00  0.00     0.235 C 
HETATM   35  C   UNL     1      39.155 -10.136   8.264  1.00  0.00     0.028 C 
HETATM   36  C   UNL     1      39.918  -9.424   9.376  1.00  0.00     0.003 C 
HETATM   37  C   UNL     1      41.335  -9.067   8.938  1.00  0.00     0.028 C 
HETATM   38  C   UNL     1      42.092 -10.281   8.412  1.00  0.00     0.235 C 
ENDBRANCH  31  32
ENDBRANCH   3  31
TORSDOF 8
ENDMDL
MODEL 8
REMARK VINA RESULT:      -8.0      3.704      8.395
REMARK  8 active torsions:
REMARK  status: ('A' for Active; 'I' for Inactive)
REMARK    1  A    between atoms: C_2  and  N_3 
REMARK       I    between atoms: N_3  and  C_4 
REMARK       I    between atoms: C_4  and  N_5 
REMARK       I    between atoms: N_5  and  C_6 
REMARK    2  A    between atoms: C_6  and  C_7 
REMARK    3  A    between atoms: C_7  and  S_8 
REMARK    4  A    between atoms: C_7  and  C_29 
REMARK    5  A    between atoms: S_8  and  C_9 
REMARK    6  A    between atoms: N_10  and  C_11 
REMARK    7  A    between atoms: C_18  and  C_19 
REMARK    8  A    between atoms: C_19  and  N_20 
ROOT
HETATM    1  C   UNL     1      40.762 -13.638   4.038  1.00  0.00     0.197 A 
HETATM    2  N   UNL     1      41.142 -14.969   4.091  1.00  0.00    -0.274 N 
HETATM    3  C   UNL     1      40.738 -15.360   5.362  1.00  0.00     0.161 A 
HETATM    4  N   UNL     1      40.220 -14.331   6.009  1.00  0.00    -0.132 NA
HETATM    5  N   UNL     1      40.244 -13.258   5.182  1.00  0.00    -0.122 NA
ENDROOT
BRANCH   1   6
HETATM    6  S   UNL     1      40.671 -12.664   2.611  1.00  0.00    -0.071 SA
BRANCH   6   7
HETATM    7  C   UNL     1      38.899 -12.847   2.141  1.00  0.00     0.175 C 
BRANCH   7   8
HETATM    8  C   UNL     1      38.728 -13.588   0.800  1.00  0.00     0.224 C 
HETATM    9  N   UNL     1      39.647 -13.294  -0.192  1.00  0.00    -0.178 NA
HETATM   10  C   UNL     1      40.108 -14.299  -0.974  1.00  0.00     0.300 C 
HETATM   11  H   UNL     1      40.466 -12.841   0.197  1.00  0.00     0.141 HD
HETATM   12  N   UNL     1      39.313 -14.800  -1.945  1.00  0.00    -0.348 N 
HETATM   13  O   UNL     1      41.260 -14.704  -0.833  1.00  0.00    -0.254 OA
HETATM   14  H   UNL     1      39.771 -15.515  -2.499  1.00  0.00     0.163 HD
HETATM   15  O   UNL     1      37.709 -14.252   0.596  1.00  0.00    -0.278 OA
BRANCH  12  16
HETATM   16  C   UNL     1      38.084 -14.238  -2.474  1.00  0.00     0.119 C 
HETATM   17  C   UNL     1      37.466 -15.153  -3.513  1.00  0.00     0.026 C 
ENDBRANCH  12  16
ENDBRANCH   7   8
BRANCH   7  18
HETATM   18  C   UNL     1      38.081 -11.565   2.308  1.00  0.00    -0.035 A 
HETATM   19  C   UNL     1      37.110 -11.153   1.382  1.00  0.00     0.009 A 
HETATM   20  C   UNL     1      36.371  -9.984   1.587  1.00  0.00     0.001 A 
HETATM   21  C   UNL     1      36.594  -9.202   2.716  1.00  0.00     0.000 A 
HETATM   22  C   UNL     1      37.554  -9.590   3.646  1.00  0.00     0.001 A 
HETATM   23  C   UNL     1      38.287 -10.763   3.448  1.00  0.00     0.009 A 
ENDBRANCH   7  18
ENDBRANCH   6   7
ENDBRANCH   1   6
BRANCH   2  24
HETATM   24  C   UNL     1      41.799 -15.742   3.102  1.00  0.00     0.043 A 
HETATM   25  C   UNL     1      43.187 -15.619   2.935  1.00  0.00     0.033 A 
HETATM   26  C   UNL     1      43.847 -16.399   1.981  1.00  0.00     0.044 A 
HETATM   27  C   UNL     1      43.123 -17.284   1.196  1.00  0.00     0.116 A 
HETATM   28  F   UNL     1      43.756 -18.033   0.284  1.00  0.00    -0.206 F 
HETATM   29  C   UNL     1      41.746 -17.402   1.339  1.00  0.00     0.044 A 
HETATM   30  C   UNL     1      41.076 -16.627   2.290  1.00  0.00     0.033 A 
ENDBRANCH   2  24
BRANCH   3  31
HETATM   31  C   UNL     1      40.933 -16.671   6.033  1.00  0.00     0.315 C 
BRANCH  31  32
HETATM   32  N   UNL     1      42.376 -17.130   5.839  1.00  0.00    -0.064 N 
HETATM   33  H   UNL     1      42.751 -16.459   5.144  1.00  0.00     0.280 HD
HETATM   34  C   UNL     1      43.206 -16.950   7.088  1.00  0.00     0.235 C 
HETATM   35  C   UNL     1      44.668 -17.215   6.764  1.00  0.00     0.028 C 
HETATM   36  C   UNL     1      44.861 -18.594   6.143  1.00  0.00     0.003 C 
HETATM   37  C   UNL     1      43.960 -18.787   4.928  1.00  0.00     0.028 C 
HETATM   38  C   UNL     1      42.497 -18.506   5.252  1.00  0.00     0.235 C 
ENDBRANCH  31  32
ENDBRANCH   3  31
TORSDOF 8
ENDMDL
MODEL 9
REMARK VINA RESULT:      -7.9      3.585      6.019
REMARK  8 active torsions:
REMARK  status: ('A' for Active; 'I' for Inactive)
REMARK    1  A    between atoms: C_2  and  N_3 
REMARK       I    between atoms: N_3  and  C_4 
REMARK       I    between atoms: C_4  and  N_5 
REMARK       I    between atoms: N_5  and  C_6 
REMARK    2  A    between atoms: C_6  and  C_7 
REMARK    3  A    between atoms: C_7  and  S_8 
REMARK    4  A    between atoms: C_7  and  C_29 
REMARK    5  A    between atoms: S_8  and  C_9 
REMARK    6  A    between atoms: N_10  and  C_11 
REMARK    7  A    between atoms: C_18  and  C_19 
REMARK    8  A    between atoms: C_19  and  N_20 
ROOT
HETATM    1  C   UNL     1      42.870 -13.453   3.926  1.00  0.00     0.197 A 
HETATM    2  N   UNL     1      41.766 -12.629   4.075  1.00  0.00    -0.274 N 
HETATM    3  C   UNL     1      41.542 -12.168   2.783  1.00  0.00     0.161 A 
HETATM    4  N   UNL     1      42.469 -12.639   1.968  1.00  0.00    -0.132 NA
HETATM    5  N   UNL     1      43.298 -13.433   2.687  1.00  0.00    -0.122 NA
ENDROOT
BRANCH   1   6
HETATM    6  S   UNL     1      43.446 -14.598   5.089  1.00  0.00    -0.071 SA
BRANCH   6   7
HETATM    7  C   UNL     1      42.286 -16.006   4.838  1.00  0.00     0.175 C 
BRANCH   7   8
HETATM    8  C   UNL     1      42.617 -17.201   5.755  1.00  0.00     0.224 C 
HETATM    9  N   UNL     1      43.692 -17.045   6.612  1.00  0.00    -0.178 NA
HETATM   10  C   UNL     1      43.602 -17.540   7.869  1.00  0.00     0.300 C 
HETATM   11  H   UNL     1      43.937 -16.066   6.711  1.00  0.00     0.141 HD
HETATM   12  N   UNL     1      43.718 -18.872   8.067  1.00  0.00    -0.348 N 
HETATM   13  O   UNL     1      43.477 -16.772   8.821  1.00  0.00    -0.254 OA
HETATM   14  H   UNL     1      43.681 -19.129   9.046  1.00  0.00     0.163 HD
HETATM   15  O   UNL     1      42.054 -18.283   5.573  1.00  0.00    -0.278 OA
BRANCH  12  16
HETATM   16  C   UNL     1      44.197 -19.876   7.134  1.00  0.00     0.119 C 
HETATM   17  C   UNL     1      43.470 -21.192   7.327  1.00  0.00     0.026 C 
ENDBRANCH  12  16
ENDBRANCH   7   8
BRANCH   7  18
HETATM   18  C   UNL     1      42.030 -16.341   3.368  1.00  0.00    -0.035 A 
HETATM   19  C   UNL     1      40.795 -16.116   2.737  1.00  0.00     0.009 A 
HETATM   20  C   UNL     1      40.613 -16.417   1.384  1.00  0.00     0.001 A 
HETATM   21  C   UNL     1      41.657 -16.956   0.638  1.00  0.00     0.000 A 
HETATM   22  C   UNL     1      42.889 -17.190   1.243  1.00  0.00     0.001 A 
HETATM   23  C   UNL     1      43.076 -16.880   2.593  1.00  0.00     0.009 A 
ENDBRANCH   7  18
ENDBRANCH   6   7
ENDBRANCH   1   6
BRANCH   2  24
HETATM   24  C   UNL     1      41.048 -12.315   5.256  1.00  0.00     0.043 A 
HETATM   25  C   UNL     1      41.478 -11.254   6.067  1.00  0.00     0.033 A 
HETATM   26  C   UNL     1      40.760 -10.919   7.218  1.00  0.00     0.044 A 
HETATM   27  C   UNL     1      39.628 -11.647   7.558  1.00  0.00     0.116 A 
HETATM   28  F   UNL     1      38.939 -11.324   8.660  1.00  0.00    -0.206 F 
HETATM   29  C   UNL     1      39.202 -12.712   6.773  1.00  0.00     0.044 A 
HETATM   30  C   UNL     1      39.913 -13.054   5.620  1.00  0.00     0.033 A 
ENDBRANCH   2  24
BRANCH   3  31
HETATM   31  C   UNL     1      40.527 -11.191   2.311  1.00  0.00     0.315 C 
BRANCH  31  32
HETATM   32  N   UNL     1      39.560 -11.887   1.358  1.00  0.00    -0.064 N 
HETATM   33  H   UNL     1      40.185 -12.380   0.695  1.00  0.00     0.280 HD
HETATM   34  C   UNL     1      38.750 -12.960   2.049  1.00  0.00     0.235 C 
HETATM   35  C   UNL     1      37.975 -13.755   1.008  1.00  0.00     0.028 C 
HETATM   36  C   UNL     1      37.105 -12.847   0.147  1.00  0.00     0.003 C 
HETATM   37  C   UNL     1      37.925 -11.725  -0.481  1.00  0.00     0.028 C 
HETATM   38  C   UNL     1      38.711 -10.940   0.562  1.00  0.00     0.235 C 
ENDBRANCH  31  32
ENDBRANCH   3  31
TORSDOF 8
ENDMDL
MODEL 10
REMARK VINA RESULT:      -7.9      3.590      5.375
REMARK  8 active torsions:
REMARK  status: ('A' for Active; 'I' for Inactive)
REMARK    1  A    between atoms: C_2  and  N_3 
REMARK       I    between atoms: N_3  and  C_4 
REMARK       I    between atoms: C_4  and  N_5 
REMARK       I    between atoms: N_5  and  C_6 
REMARK    2  A    between atoms: C_6  and  C_7 
REMARK    3  A    between atoms: C_7  and  S_8 
REMARK    4  A    between atoms: C_7  and  C_29 
REMARK    5  A    between atoms: S_8  and  C_9 
REMARK    6  A    between atoms: N_10  and  C_11 
REMARK    7  A    between atoms: C_18  and  C_19 
REMARK    8  A    between atoms: C_19  and  N_20 
ROOT
HETATM    1  C   UNL     1      40.467 -15.654   0.987  1.00  0.00     0.197 A 
HETATM    2  N   UNL     1      40.239 -14.490   0.271  1.00  0.00    -0.274 N 
HETATM    3  C   UNL     1      39.029 -14.037   0.782  1.00  0.00     0.161 A 
HETATM    4  N   UNL     1      38.568 -14.893   1.678  1.00  0.00    -0.132 NA
HETATM    5  N   UNL     1      39.465 -15.902   1.795  1.00  0.00    -0.122 NA
ENDROOT
BRANCH   1   6
HETATM    6  S   UNL     1      41.964 -16.517   1.073  1.00  0.00    -0.071 SA
BRANCH   6   7
HETATM    7  C   UNL     1      41.867 -17.275   2.748  1.00  0.00     0.175 C 
BRANCH   7   8
HETATM    8  C   UNL     1      41.792 -16.213   3.863  1.00  0.00     0.224 C 
HETATM    9  N   UNL     1      40.656 -16.223   4.654  1.00  0.00    -0.178 NA
HETATM   10  C   UNL     1      40.783 -15.997   5.982  1.00  0.00     0.300 C 
HETATM   11  H   UNL     1      40.161 -17.104   4.565  1.00  0.00     0.141 HD
HETATM   12  N   UNL     1      41.001 -14.737   6.421  1.00  0.00    -0.348 N 
HETATM   13  O   UNL     1      40.640 -16.922   6.778  1.00  0.00    -0.254 OA
HETATM   14  H   UNL     1      41.035 -14.672   7.432  1.00  0.00     0.163 HD
HETATM   15  O   UNL     1      42.626 -15.305   3.897  1.00  0.00    -0.278 OA
BRANCH  12  16
HETATM   16  C   UNL     1      40.863 -13.496   5.681  1.00  0.00     0.119 C 
HETATM   17  C   UNL     1      41.997 -12.540   5.998  1.00  0.00     0.026 C 
ENDBRANCH  12  16
ENDBRANCH   7   8
BRANCH   7  18
HETATM   18  C   UNL     1      42.868 -18.410   2.970  1.00  0.00    -0.035 A 
HETATM   19  C   UNL     1      43.216 -19.329   1.966  1.00  0.00     0.009 A 
HETATM   20  C   UNL     1      44.153 -20.338   2.208  1.00  0.00     0.001 A 
HETATM   21  C   UNL     1      44.752 -20.454   3.458  1.00  0.00     0.000 A 
HETATM   22  C   UNL     1      44.420 -19.557   4.469  1.00  0.00     0.001 A 
HETATM   23  C   UNL     1      43.492 -18.541   4.227  1.00  0.00     0.009 A 
ENDBRANCH   7  18
ENDBRANCH   6   7
ENDBRANCH   1   6
BRANCH   2  24
HETATM   24  C   UNL     1      41.033 -13.908  -0.749  1.00  0.00     0.043 A 
HETATM   25  C   UNL     1      41.072 -14.501  -2.021  1.00  0.00     0.033 A 
HETATM   26  C   UNL     1      41.830 -13.918  -3.040  1.00  0.00     0.044 A 
HETATM   27  C   UNL     1      42.550 -12.760  -2.785  1.00  0.00     0.116 A 
HETATM   28  F   UNL     1      43.274 -12.201  -3.763  1.00  0.00    -0.206 F 
HETATM   29  C   UNL     1      42.535 -12.174  -1.525  1.00  0.00     0.044 A 
HETATM   30  C   UNL     1      41.780 -12.748  -0.499  1.00  0.00     0.033 A 
ENDBRANCH   2  24
BRANCH   3  31
HETATM   31  C   UNL     1      38.229 -12.858   0.363  1.00  0.00     0.315 C 
BRANCH  31  32
HETATM   32  N   UNL     1      38.156 -12.812  -1.161  1.00  0.00    -0.064 N 
HETATM   33  H   UNL     1      39.149 -12.855  -1.452  1.00  0.00     0.280 HD
HETATM   34  C   UNL     1      37.495 -14.042  -1.738  1.00  0.00     0.235 C 
HETATM   35  C   UNL     1      37.652 -14.035  -3.252  1.00  0.00     0.028 C 
HETATM   36  C   UNL     1      37.104 -12.751  -3.863  1.00  0.00     0.003 C 
HETATM   37  C   UNL     1      37.726 -11.518  -3.216  1.00  0.00     0.028 C 
HETATM   38  C   UNL     1      37.580 -11.535  -1.699  1.00  0.00     0.235 C 
ENDBRANCH  31  32
ENDBRANCH   3  31
TORSDOF 8
ENDMDL
