MODEL 1
REMARK VINA RESULT:      -9.1      0.000      0.000
REMARK  9 active torsions:
REMARK  status: ('A' for Active; 'I' for Inactive)
REMARK    1  A    between atoms: C_6  and  N_7 
REMARK    2  A    between atoms: C_6  and  C_31 
REMARK       I    between atoms: N_7  and  C_8 
REMARK    3  A    between atoms: N_7  and  C_23 
REMARK    4  A    between atoms: C_8  and  C_9 
REMARK    5  A    between atoms: C_9  and  N_10 
REMARK    6  A    between atoms: C_14  and  C_15 
REMARK    7  A    between atoms: C_23  and  C_24 
REMARK       I    between atoms: C_31  and  N_32 
REMARK    8  A    between atoms: N_32  and  C_33 
REMARK    9  A    between atoms: C_36  and  O_37 
ROOT
HETATM    1  N   UNL     1      40.732 -14.696   2.096  1.00  0.00    -0.328 N 
HETATM    2  C   UNL     1      41.231 -15.033   0.823  1.00  0.00     0.239 C 
HETATM    3  O   UNL     1      42.385 -15.451   0.679  1.00  0.00    -0.271 OA
ENDROOT
BRANCH   1   4
HETATM    4  C   UNL     1      41.605 -14.916   3.326  1.00  0.00     0.120 C 
HETATM    5  C   UNL     1      42.980 -14.204   3.171  1.00  0.00     0.069 C 
HETATM    6  C   UNL     1      43.819 -14.285   4.438  1.00  0.00     0.237 C 
HETATM    7  N   UNL     1      43.057 -13.660   5.573  1.00  0.00    -0.075 N 
HETATM    8  C   UNL     1      43.905 -13.573   6.817  1.00  0.00     0.269 C 
HETATM    9  H   UNL     1      42.832 -12.688   5.306  1.00  0.00     0.279 HD
HETATM   10  C   UNL     1      41.750 -14.362   5.848  1.00  0.00     0.237 C 
HETATM   11  C   UNL     1      40.881 -14.367   4.591  1.00  0.00     0.069 C 
BRANCH   4  12
HETATM   12  C   UNL     1      41.904 -16.449   3.583  1.00  0.00     0.251 C 
HETATM   13  N   UNL     1      43.144 -16.888   3.166  1.00  0.00    -0.325 N 
HETATM   14  H   UNL     1      43.755 -16.229   2.698  1.00  0.00     0.169 HD
HETATM   15  O   UNL     1      41.089 -17.140   4.190  1.00  0.00    -0.270 OA
BRANCH  13  16
HETATM   16  C   UNL     1      43.617 -18.219   3.142  1.00  0.00     0.035 A 
HETATM   17  C   UNL     1      44.319 -18.820   4.188  1.00  0.00     0.032 A 
HETATM   18  C   UNL     1      44.652 -20.180   4.132  1.00  0.00     0.039 A 
HETATM   19  C   UNL     1      44.294 -20.945   3.024  1.00  0.00     0.068 A 
HETATM   20  C   UNL     1      43.644 -20.336   1.953  1.00  0.00     0.039 A 
HETATM   21  C   UNL     1      43.292 -18.988   2.017  1.00  0.00     0.032 A 
BRANCH  19  22
HETATM   22  O   UNL     1      44.555 -22.277   2.876  1.00  0.00    -0.356 OA
HETATM   23  C   UNL     1      44.662 -23.006   4.095  1.00  0.00     0.210 C 
ENDBRANCH  19  22
ENDBRANCH  13  16
ENDBRANCH   4  12
ENDBRANCH   1   4
BRANCH   1  24
HETATM   24  C   UNL     1      39.593 -13.755   2.201  1.00  0.00     0.169 C 
BRANCH  24  25
HETATM   25  C   UNL     1      39.825 -12.399   1.585  1.00  0.00    -0.002 A 
HETATM   26  C   UNL     1      38.864 -11.910   0.690  1.00  0.00     0.124 A 
HETATM   27  F   UNL     1      37.797 -12.663   0.391  1.00  0.00    -0.205 F 
HETATM   28  C   UNL     1      38.996 -10.666   0.083  1.00  0.00     0.043 A 
HETATM   29  C   UNL     1      40.098  -9.870   0.380  1.00  0.00     0.003 A 
HETATM   30  C   UNL     1      41.057 -10.323   1.285  1.00  0.00     0.001 A 
HETATM   31  C   UNL     1      40.922 -11.578   1.887  1.00  0.00     0.012 A 
ENDBRANCH  24  25
ENDBRANCH   1  24
BRANCH   2  32
HETATM   32  C   UNL     1      40.321 -14.908  -0.416  1.00  0.00     0.228 C 
BRANCH  32  33
HETATM   33  N   UNL     1      40.878 -14.196  -1.561  1.00  0.00    -0.347 N 
HETATM   34  C   UNL     1      40.752 -14.577  -2.897  1.00  0.00     0.171 A 
HETATM   35  S   UNL     1      39.765 -15.722  -3.567  1.00  0.00    -0.041 SA
HETATM   36  N   UNL     1      41.622 -13.819  -3.650  1.00  0.00    -0.357 N 
HETATM   37  C   UNL     1      42.470 -12.981  -2.839  1.00  0.00     0.135 A 
HETATM   38  H   UNL     1      41.731 -13.953  -4.647  1.00  0.00     0.162 HD
HETATM   39  C   UNL     1      41.955 -13.221  -1.407  1.00  0.00     0.155 A 
BRANCH  37  40
HETATM   40  C   UNL     1      42.435 -11.547  -3.306  1.00  0.00    -0.034 A 
HETATM   41  C   UNL     1      42.372 -11.220  -4.671  1.00  0.00     0.009 A 
HETATM   42  C   UNL     1      42.370  -9.886  -5.085  1.00  0.00     0.001 A 
HETATM   43  C   UNL     1      42.432  -8.863  -4.142  1.00  0.00     0.000 A 
HETATM   44  C   UNL     1      42.496  -9.170  -2.785  1.00  0.00     0.001 A 
HETATM   45  C   UNL     1      42.498 -10.503  -2.369  1.00  0.00     0.009 A 
ENDBRANCH  37  40
ENDBRANCH  32  33
ENDBRANCH   2  32
TORSDOF 9
ENDMDL
MODEL 2
REMARK VINA RESULT:      -8.8      3.005      4.759
REMARK  9 active torsions:
REMARK  status: ('A' for Active; 'I' for Inactive)
REMARK    1  A    between atoms: C_6  and  N_7 
REMARK    2  A    between atoms: C_6  and  C_31 
REMARK       I    between atoms: N_7  and  C_8 
REMARK    3  A    between atoms: N_7  and  C_23 
REMARK    4  A    between atoms: C_8  and  C_9 
REMARK    5  A    between atoms: C_9  and  N_10 
REMARK    6  A    between atoms: C_14  and  C_15 
REMARK    7  A    between atoms: C_23  and  C_24 
REMARK       I    between atoms: C_31  and  N_32 
REMARK    8  A    between atoms: N_32  and  C_33 
REMARK    9  A    between atoms: C_36  and  O_37 
ROOT
HETATM    1  N   UNL     1      41.283 -13.913   2.632  1.00  0.00    -0.328 N 
HETATM    2  C   UNL     1      41.527 -12.855   1.735  1.00  0.00     0.239 C 
HETATM    3  O   UNL     1      41.509 -11.679   2.114  1.00  0.00    -0.271 OA
ENDROOT
BRANCH   1   4
HETATM    4  C   UNL     1      41.061 -13.608   4.108  1.00  0.00     0.120 C 
HETATM    5  C   UNL     1      42.096 -12.568   4.627  1.00  0.00     0.069 C 
HETATM    6  C   UNL     1      41.813 -12.135   6.058  1.00  0.00     0.237 C 
HETATM    7  N   UNL     1      40.433 -11.546   6.131  1.00  0.00    -0.075 N 
HETATM    8  C   UNL     1      40.161 -10.959   7.492  1.00  0.00     0.269 C 
HETATM    9  H   UNL     1      40.388 -10.760   5.462  1.00  0.00     0.279 HD
HETATM   10  C   UNL     1      39.362 -12.532   5.735  1.00  0.00     0.237 C 
HETATM   11  C   UNL     1      39.621 -13.051   4.322  1.00  0.00     0.069 C 
BRANCH   4  12
HETATM   12  C   UNL     1      41.205 -14.896   5.016  1.00  0.00     0.251 C 
HETATM   13  N   UNL     1      42.495 -15.214   5.391  1.00  0.00    -0.325 N 
HETATM   14  H   UNL     1      43.254 -14.642   5.038  1.00  0.00     0.169 HD
HETATM   15  O   UNL     1      40.202 -15.492   5.402  1.00  0.00    -0.270 OA
BRANCH  13  16
HETATM   16  C   UNL     1      42.927 -16.375   6.072  1.00  0.00     0.035 A 
HETATM   17  C   UNL     1      43.218 -16.419   7.437  1.00  0.00     0.032 A 
HETATM   18  C   UNL     1      43.529 -17.636   8.058  1.00  0.00     0.039 A 
HETATM   19  C   UNL     1      43.561 -18.815   7.315  1.00  0.00     0.068 A 
HETATM   20  C   UNL     1      43.328 -18.766   5.944  1.00  0.00     0.039 A 
HETATM   21  C   UNL     1      42.996 -17.559   5.328  1.00  0.00     0.032 A 
BRANCH  19  22
HETATM   22  O   UNL     1      43.836 -20.052   7.824  1.00  0.00    -0.356 OA
HETATM   23  C   UNL     1      43.649 -21.130   6.913  1.00  0.00     0.210 C 
ENDBRANCH  19  22
ENDBRANCH  13  16
ENDBRANCH   4  12
ENDBRANCH   1   4
BRANCH   1  24
HETATM   24  C   UNL     1      40.816 -15.216   2.104  1.00  0.00     0.169 C 
BRANCH  24  25
HETATM   25  C   UNL     1      41.884 -16.268   1.962  1.00  0.00    -0.002 A 
HETATM   26  C   UNL     1      41.481 -17.586   1.708  1.00  0.00     0.124 A 
HETATM   27  F   UNL     1      40.173 -17.871   1.627  1.00  0.00    -0.205 F 
HETATM   28  C   UNL     1      42.401 -18.617   1.555  1.00  0.00     0.043 A 
HETATM   29  C   UNL     1      43.763 -18.339   1.637  1.00  0.00     0.003 A 
HETATM   30  C   UNL     1      44.192 -17.033   1.866  1.00  0.00     0.001 A 
HETATM   31  C   UNL     1      43.261 -16.002   2.025  1.00  0.00     0.012 A 
ENDBRANCH  24  25
ENDBRANCH   1  24
BRANCH   2  32
HETATM   32  C   UNL     1      41.853 -13.160   0.259  1.00  0.00     0.228 C 
BRANCH  32  33
HETATM   33  N   UNL     1      40.858 -12.746  -0.724  1.00  0.00    -0.347 N 
HETATM   34  C   UNL     1      41.003 -11.705  -1.641  1.00  0.00     0.171 A 
HETATM   35  S   UNL     1      42.362 -10.859  -2.053  1.00  0.00    -0.041 SA
HETATM   36  N   UNL     1      39.773 -11.449  -2.207  1.00  0.00    -0.357 N 
HETATM   37  C   UNL     1      38.714 -12.219  -1.602  1.00  0.00     0.135 A 
HETATM   38  H   UNL     1      39.630 -10.701  -2.875  1.00  0.00     0.162 HD
HETATM   39  C   UNL     1      39.452 -13.123  -0.596  1.00  0.00     0.155 A 
BRANCH  37  40
HETATM   40  C   UNL     1      37.897 -12.944  -2.643  1.00  0.00    -0.034 A 
HETATM   41  C   UNL     1      37.025 -12.255  -3.503  1.00  0.00     0.009 A 
HETATM   42  C   UNL     1      36.255 -12.947  -4.441  1.00  0.00     0.001 A 
HETATM   43  C   UNL     1      36.346 -14.334  -4.530  1.00  0.00     0.000 A 
HETATM   44  C   UNL     1      37.204 -15.031  -3.684  1.00  0.00     0.001 A 
HETATM   45  C   UNL     1      37.975 -14.341  -2.746  1.00  0.00     0.009 A 
ENDBRANCH  37  40
ENDBRANCH  32  33
ENDBRANCH   2  32
TORSDOF 9
ENDMDL
MODEL 3
REMARK VINA RESULT:      -8.6      3.913      7.951
REMARK  9 active torsions:
REMARK  status: ('A' for Active; 'I' for Inactive)
REMARK    1  A    between atoms: C_6  and  N_7 
REMARK    2  A    between atoms: C_6  and  C_31 
REMARK       I    between atoms: N_7  and  C_8 
REMARK    3  A    between atoms: N_7  and  C_23 
REMARK    4  A    between atoms: C_8  and  C_9 
REMARK    5  A    between atoms: C_9  and  N_10 
REMARK    6  A    between atoms: C_14  and  C_15 
REMARK    7  A    between atoms: C_23  and  C_24 
REMARK       I    between atoms: C_31  and  N_32 
REMARK    8  A    between atoms: N_32  and  C_33 
REMARK    9  A    between atoms: C_36  and  O_37 
ROOT
HETATM    1  N   UNL     1      40.943 -13.565   4.160  1.00  0.00    -0.328 N 
HETATM    2  C   UNL     1      39.777 -12.811   4.389  1.00  0.00     0.239 C 
HETATM    3  O   UNL     1      39.075 -12.418   3.451  1.00  0.00    -0.271 OA
ENDROOT
BRANCH   1   4
HETATM    4  C   UNL     1      41.310 -13.965   2.736  1.00  0.00     0.120 C 
HETATM    5  C   UNL     1      40.079 -14.551   1.984  1.00  0.00     0.069 C 
HETATM    6  C   UNL     1      40.375 -14.827   0.518  1.00  0.00     0.237 C 
HETATM    7  N   UNL     1      40.805 -13.550  -0.147  1.00  0.00    -0.075 N 
HETATM    8  C   UNL     1      40.960 -13.734  -1.635  1.00  0.00     0.269 C 
HETATM    9  H   UNL     1      40.051 -12.856  -0.017  1.00  0.00     0.279 HD
HETATM   10  C   UNL     1      42.055 -12.971   0.467  1.00  0.00     0.237 C 
HETATM   11  C   UNL     1      41.842 -12.723   1.960  1.00  0.00     0.069 C 
BRANCH   4  12
HETATM   12  C   UNL     1      42.444 -15.067   2.695  1.00  0.00     0.251 C 
HETATM   13  N   UNL     1      42.001 -16.374   2.721  1.00  0.00    -0.325 N 
HETATM   14  H   UNL     1      41.005 -16.543   2.803  1.00  0.00     0.169 HD
HETATM   15  O   UNL     1      43.621 -14.734   2.566  1.00  0.00    -0.270 OA
BRANCH  13  16
HETATM   16  C   UNL     1      42.788 -17.543   2.836  1.00  0.00     0.035 A 
HETATM   17  C   UNL     1      43.563 -17.857   3.954  1.00  0.00     0.032 A 
HETATM   18  C   UNL     1      44.223 -19.091   4.036  1.00  0.00     0.039 A 
HETATM   19  C   UNL     1      44.119 -20.013   2.996  1.00  0.00     0.068 A 
HETATM   20  C   UNL     1      43.395 -19.679   1.855  1.00  0.00     0.039 A 
HETATM   21  C   UNL     1      42.719 -18.461   1.781  1.00  0.00     0.032 A 
BRANCH  19  22
HETATM   22  O   UNL     1      44.708 -21.245   2.983  1.00  0.00    -0.356 OA
HETATM   23  C   UNL     1      44.388 -22.050   1.851  1.00  0.00     0.210 C 
ENDBRANCH  19  22
ENDBRANCH  13  16
ENDBRANCH   4  12
ENDBRANCH   1   4
BRANCH   1  24
HETATM   24  C   UNL     1      42.004 -13.589   5.193  1.00  0.00     0.169 C 
BRANCH  24  25
HETATM   25  C   UNL     1      42.147 -14.894   5.932  1.00  0.00    -0.002 A 
HETATM   26  C   UNL     1      43.374 -15.168   6.553  1.00  0.00     0.124 A 
HETATM   27  F   UNL     1      44.377 -14.286   6.449  1.00  0.00    -0.205 F 
HETATM   28  C   UNL     1      43.588 -16.345   7.262  1.00  0.00     0.043 A 
HETATM   29  C   UNL     1      42.558 -17.273   7.380  1.00  0.00     0.003 A 
HETATM   30  C   UNL     1      41.321 -17.015   6.792  1.00  0.00     0.001 A 
HETATM   31  C   UNL     1      41.113 -15.832   6.075  1.00  0.00     0.012 A 
ENDBRANCH  24  25
ENDBRANCH   1  24
BRANCH   2  32
HETATM   32  C   UNL     1      39.343 -12.487   5.833  1.00  0.00     0.228 C 
BRANCH  32  33
HETATM   33  N   UNL     1      39.915 -11.284   6.429  1.00  0.00    -0.347 N 
HETATM   34  C   UNL     1      39.717  -9.979   5.977  1.00  0.00     0.171 A 
HETATM   35  S   UNL     1      38.624  -9.411   4.874  1.00  0.00    -0.041 SA
HETATM   36  N   UNL     1      40.616  -9.156   6.619  1.00  0.00    -0.357 N 
HETATM   37  C   UNL     1      41.552  -9.888   7.436  1.00  0.00     0.135 A 
HETATM   38  H   UNL     1      40.683  -8.166   6.416  1.00  0.00     0.162 HD
HETATM   39  C   UNL     1      41.067 -11.347   7.324  1.00  0.00     0.155 A 
BRANCH  37  40
HETATM   40  C   UNL     1      41.611  -9.332   8.838  1.00  0.00    -0.034 A 
HETATM   41  C   UNL     1      42.381  -9.945   9.839  1.00  0.00     0.009 A 
HETATM   42  C   UNL     1      42.400  -9.433  11.139  1.00  0.00     0.001 A 
HETATM   43  C   UNL     1      41.649  -8.303  11.452  1.00  0.00     0.000 A 
HETATM   44  C   UNL     1      40.878  -7.685  10.471  1.00  0.00     0.001 A 
HETATM   45  C   UNL     1      40.859  -8.195   9.172  1.00  0.00     0.009 A 
ENDBRANCH  37  40
ENDBRANCH  32  33
ENDBRANCH   2  32
TORSDOF 9
ENDMDL
MODEL 4
REMARK VINA RESULT:      -8.5      2.811      4.090
REMARK  9 active torsions:
REMARK  status: ('A' for Active; 'I' for Inactive)
REMARK    1  A    between atoms: C_6  and  N_7 
REMARK    2  A    between atoms: C_6  and  C_31 
REMARK       I    between atoms: N_7  and  C_8 
REMARK    3  A    between atoms: N_7  and  C_23 
REMARK    4  A    between atoms: C_8  and  C_9 
REMARK    5  A    between atoms: C_9  and  N_10 
REMARK    6  A    between atoms: C_14  and  C_15 
REMARK    7  A    between atoms: C_23  and  C_24 
REMARK       I    between atoms: C_31  and  N_32 
REMARK    8  A    between atoms: N_32  and  C_33 
REMARK    9  A    between atoms: C_36  and  O_37 
ROOT
HETATM    1  N   UNL     1      41.388 -13.810   4.275  1.00  0.00    -0.328 N 
HETATM    2  C   UNL     1      40.515 -14.139   3.220  1.00  0.00     0.239 C 
HETATM    3  O   UNL     1      40.380 -15.308   2.843  1.00  0.00    -0.271 OA
ENDROOT
BRANCH   1   4
HETATM    4  C   UNL     1      42.127 -14.922   5.011  1.00  0.00     0.120 C 
HETATM    5  C   UNL     1      43.275 -14.344   5.888  1.00  0.00     0.069 C 
HETATM    6  C   UNL     1      43.941 -15.411   6.745  1.00  0.00     0.237 C 
HETATM    7  N   UNL     1      42.907 -16.047   7.631  1.00  0.00    -0.075 N 
HETATM    8  C   UNL     1      43.540 -17.002   8.611  1.00  0.00     0.269 C 
HETATM    9  H   UNL     1      42.470 -15.300   8.194  1.00  0.00     0.279 HD
HETATM   10  C   UNL     1      41.806 -16.717   6.845  1.00  0.00     0.237 C 
HETATM   11  C   UNL     1      41.133 -15.707   5.918  1.00  0.00     0.069 C 
BRANCH   4  12
HETATM   12  C   UNL     1      42.783 -15.965   4.019  1.00  0.00     0.251 C 
HETATM   13  N   UNL     1      42.337 -17.265   4.147  1.00  0.00    -0.325 N 
HETATM   14  H   UNL     1      41.664 -17.473   4.876  1.00  0.00     0.169 HD
HETATM   15  O   UNL     1      43.570 -15.582   3.156  1.00  0.00    -0.270 OA
BRANCH  13  16
HETATM   16  C   UNL     1      42.846 -18.413   3.497  1.00  0.00     0.035 A 
HETATM   17  C   UNL     1      42.609 -18.723   2.157  1.00  0.00     0.032 A 
HETATM   18  C   UNL     1      43.245 -19.819   1.559  1.00  0.00     0.039 A 
HETATM   19  C   UNL     1      44.113 -20.617   2.300  1.00  0.00     0.068 A 
HETATM   20  C   UNL     1      44.307 -20.346   3.652  1.00  0.00     0.039 A 
HETATM   21  C   UNL     1      43.693 -19.241   4.244  1.00  0.00     0.032 A 
BRANCH  19  22
HETATM   22  O   UNL     1      44.794 -21.696   1.811  1.00  0.00    -0.356 OA
HETATM   23  C   UNL     1      44.928 -22.783   2.722  1.00  0.00     0.210 C 
ENDBRANCH  19  22
ENDBRANCH  13  16
ENDBRANCH   4  12
ENDBRANCH   1   4
BRANCH   1  24
HETATM   24  C   UNL     1      41.914 -12.429   4.376  1.00  0.00     0.169 C 
BRANCH  24  25
HETATM   25  C   UNL     1      41.136 -11.514   5.284  1.00  0.00    -0.002 A 
HETATM   26  C   UNL     1      40.815 -10.234   4.812  1.00  0.00     0.124 A 
HETATM   27  F   UNL     1      41.228  -9.858   3.593  1.00  0.00    -0.205 F 
HETATM   28  C   UNL     1      40.093  -9.329   5.582  1.00  0.00     0.043 A 
HETATM   29  C   UNL     1      39.656  -9.701   6.850  1.00  0.00     0.003 A 
HETATM   30  C   UNL     1      39.942 -10.976   7.335  1.00  0.00     0.001 A 
HETATM   31  C   UNL     1      40.674 -11.880   6.558  1.00  0.00     0.012 A 
ENDBRANCH  24  25
ENDBRANCH   1  24
BRANCH   2  32
HETATM   32  C   UNL     1      39.687 -13.032   2.537  1.00  0.00     0.228 C 
BRANCH  32  33
HETATM   33  N   UNL     1      39.691 -13.026   1.078  1.00  0.00    -0.347 N 
HETATM   34  C   UNL     1      40.516 -12.245   0.268  1.00  0.00     0.171 A 
HETATM   35  S   UNL     1      41.845 -11.354   0.685  1.00  0.00    -0.041 SA
HETATM   36  N   UNL     1      40.049 -12.317  -1.026  1.00  0.00    -0.357 N 
HETATM   37  C   UNL     1      38.808 -13.044  -1.128  1.00  0.00     0.135 A 
HETATM   38  H   UNL     1      40.471 -11.792  -1.783  1.00  0.00     0.162 HD
HETATM   39  C   UNL     1      38.564 -13.548   0.308  1.00  0.00     0.155 A 
BRANCH  37  40
HETATM   40  C   UNL     1      38.885 -14.118  -2.186  1.00  0.00    -0.034 A 
HETATM   41  C   UNL     1      37.768 -14.467  -2.961  1.00  0.00     0.009 A 
HETATM   42  C   UNL     1      37.851 -15.484  -3.915  1.00  0.00     0.001 A 
HETATM   43  C   UNL     1      39.051 -16.164  -4.105  1.00  0.00     0.000 A 
HETATM   44  C   UNL     1      40.168 -15.831  -3.343  1.00  0.00     0.001 A 
HETATM   45  C   UNL     1      40.087 -14.814  -2.390  1.00  0.00     0.009 A 
ENDBRANCH  37  40
ENDBRANCH  32  33
ENDBRANCH   2  32
TORSDOF 9
ENDMDL
MODEL 5
REMARK VINA RESULT:      -8.5      3.309      8.741
REMARK  9 active torsions:
REMARK  status: ('A' for Active; 'I' for Inactive)
REMARK    1  A    between atoms: C_6  and  N_7 
REMARK    2  A    between atoms: C_6  and  C_31 
REMARK       I    between atoms: N_7  and  C_8 
REMARK    3  A    between atoms: N_7  and  C_23 
REMARK    4  A    between atoms: C_8  and  C_9 
REMARK    5  A    between atoms: C_9  and  N_10 
REMARK    6  A    between atoms: C_14  and  C_15 
REMARK    7  A    between atoms: C_23  and  C_24 
REMARK       I    between atoms: C_31  and  N_32 
REMARK    8  A    between atoms: N_32  and  C_33 
REMARK    9  A    between atoms: C_36  and  O_37 
ROOT
HETATM    1  N   UNL     1      40.315 -13.670   0.882  1.00  0.00    -0.328 N 
HETATM    2  C   UNL     1      40.453 -15.068   0.784  1.00  0.00     0.239 C 
HETATM    3  O   UNL     1      40.872 -15.598  -0.250  1.00  0.00    -0.271 OA
ENDROOT
BRANCH   1   4
HETATM    4  C   UNL     1      40.756 -12.790  -0.282  1.00  0.00     0.120 C 
HETATM    5  C   UNL     1      40.478 -11.288   0.016  1.00  0.00     0.069 C 
HETATM    6  C   UNL     1      41.035 -10.371  -1.063  1.00  0.00     0.237 C 
HETATM    7  N   UNL     1      42.517 -10.592  -1.179  1.00  0.00    -0.075 N 
HETATM    8  C   UNL     1      43.144  -9.599  -2.124  1.00  0.00     0.269 C 
HETATM    9  H   UNL     1      42.936 -10.416  -0.252  1.00  0.00     0.279 HD
HETATM   10  C   UNL     1      42.862 -12.009  -1.565  1.00  0.00     0.237 C 
HETATM   11  C   UNL     1      42.278 -12.988  -0.547  1.00  0.00     0.069 C 
BRANCH   4  12
HETATM   12  C   UNL     1      39.995 -13.144  -1.624  1.00  0.00     0.251 C 
HETATM   13  N   UNL     1      38.645 -12.856  -1.632  1.00  0.00    -0.325 N 
HETATM   14  H   UNL     1      38.227 -12.484  -0.787  1.00  0.00     0.169 HD
HETATM   15  O   UNL     1      40.623 -13.567  -2.592  1.00  0.00    -0.270 OA
BRANCH  13  16
HETATM   16  C   UNL     1      37.705 -13.193  -2.632  1.00  0.00     0.035 A 
HETATM   17  C   UNL     1      36.895 -12.266  -3.290  1.00  0.00     0.032 A 
HETATM   18  C   UNL     1      36.071 -12.668  -4.349  1.00  0.00     0.039 A 
HETATM   19  C   UNL     1      36.044 -14.002  -4.751  1.00  0.00     0.068 A 
HETATM   20  C   UNL     1      36.806 -14.940  -4.060  1.00  0.00     0.039 A 
HETATM   21  C   UNL     1      37.644 -14.538  -3.019  1.00  0.00     0.032 A 
BRANCH  19  22
HETATM   22  O   UNL     1      35.291 -14.494  -5.778  1.00  0.00    -0.356 OA
HETATM   23  C   UNL     1      35.411 -13.780  -7.005  1.00  0.00     0.210 C 
ENDBRANCH  19  22
ENDBRANCH  13  16
ENDBRANCH   4  12
ENDBRANCH   1   4
BRANCH   1  24
HETATM   24  C   UNL     1      39.375 -13.103   1.876  1.00  0.00     0.169 C 
BRANCH  24  25
HETATM   25  C   UNL     1      40.024 -12.455   3.072  1.00  0.00    -0.002 A 
HETATM   26  C   UNL     1      39.238 -11.614   3.872  1.00  0.00     0.124 A 
HETATM   27  F   UNL     1      37.959 -11.392   3.537  1.00  0.00    -0.205 F 
HETATM   28  C   UNL     1      39.755 -10.983   4.998  1.00  0.00     0.043 A 
HETATM   29  C   UNL     1      41.081 -11.201   5.359  1.00  0.00     0.003 A 
HETATM   30  C   UNL     1      41.878 -12.051   4.595  1.00  0.00     0.001 A 
HETATM   31  C   UNL     1      41.354 -12.678   3.460  1.00  0.00     0.012 A 
ENDBRANCH  24  25
ENDBRANCH   1  24
BRANCH   2  32
HETATM   32  C   UNL     1      40.104 -15.959   1.993  1.00  0.00     0.228 C 
BRANCH  32  33
HETATM   33  N   UNL     1      41.209 -16.698   2.595  1.00  0.00    -0.347 N 
HETATM   34  C   UNL     1      41.648 -16.576   3.913  1.00  0.00     0.171 A 
HETATM   35  S   UNL     1      40.924 -15.812   5.188  1.00  0.00    -0.041 SA
HETATM   36  N   UNL     1      42.858 -17.224   4.031  1.00  0.00    -0.357 N 
HETATM   37  C   UNL     1      43.355 -17.702   2.764  1.00  0.00     0.135 A 
HETATM   38  H   UNL     1      43.387 -17.230   4.894  1.00  0.00     0.162 HD
HETATM   39  C   UNL     1      42.222 -17.360   1.777  1.00  0.00     0.155 A 
BRANCH  37  40
HETATM   40  C   UNL     1      43.731 -19.162   2.836  1.00  0.00    -0.034 A 
HETATM   41  C   UNL     1      44.442 -19.685   3.929  1.00  0.00     0.009 A 
HETATM   42  C   UNL     1      44.806 -21.033   3.964  1.00  0.00     0.001 A 
HETATM   43  C   UNL     1      44.465 -21.874   2.909  1.00  0.00     0.000 A 
HETATM   44  C   UNL     1      43.762 -21.371   1.817  1.00  0.00     0.001 A 
HETATM   45  C   UNL     1      43.396 -20.024   1.781  1.00  0.00     0.009 A 
ENDBRANCH  37  40
ENDBRANCH  32  33
ENDBRANCH   2  32
TORSDOF 9
ENDMDL
MODEL 6
REMARK VINA RESULT:      -8.4      3.129      8.672
REMARK  9 active torsions:
REMARK  status: ('A' for Active; 'I' for Inactive)
REMARK    1  A    between atoms: C_6  and  N_7 
REMARK    2  A    between atoms: C_6  and  C_31 
REMARK       I    between atoms: N_7  and  C_8 
REMARK    3  A    between atoms: N_7  and  C_23 
REMARK    4  A    between atoms: C_8  and  C_9 
REMARK    5  A    between atoms: C_9  and  N_10 
REMARK    6  A    between atoms: C_14  and  C_15 
REMARK    7  A    between atoms: C_23  and  C_24 
REMARK       I    between atoms: C_31  and  N_32 
REMARK    8  A    between atoms: N_32  and  C_33 
REMARK    9  A    between atoms: C_36  and  O_37 
ROOT
HETATM    1  N   UNL     1      40.739 -13.882   2.057  1.00  0.00    -0.328 N 
HETATM    2  C   UNL     1      40.200 -15.182   2.046  1.00  0.00     0.239 C 
HETATM    3  O   UNL     1      39.798 -15.698   0.998  1.00  0.00    -0.271 OA
ENDROOT
BRANCH   1   4
HETATM    4  C   UNL     1      40.895 -13.123   0.745  1.00  0.00     0.120 C 
HETATM    5  C   UNL     1      41.118 -11.604   1.000  1.00  0.00     0.069 C 
HETATM    6  C   UNL     1      41.419 -10.840  -0.281  1.00  0.00     0.237 C 
HETATM    7  N   UNL     1      42.644 -11.424  -0.926  1.00  0.00    -0.075 N 
HETATM    8  C   UNL     1      43.077 -10.606  -2.116  1.00  0.00     0.269 C 
HETATM    9  H   UNL     1      43.416 -11.373  -0.242  1.00  0.00     0.279 HD
HETATM   10  C   UNL     1      42.467 -12.876  -1.294  1.00  0.00     0.237 C 
HETATM   11  C   UNL     1      42.105 -13.692  -0.054  1.00  0.00     0.069 C 
BRANCH   4  12
HETATM   12  C   UNL     1      39.617 -13.253  -0.180  1.00  0.00     0.251 C 
HETATM   13  N   UNL     1      39.791 -13.999  -1.328  1.00  0.00    -0.325 N 
HETATM   14  H   UNL     1      40.713 -14.373  -1.524  1.00  0.00     0.169 HD
HETATM   15  O   UNL     1      38.544 -12.776   0.184  1.00  0.00    -0.270 OA
BRANCH  13  16
HETATM   16  C   UNL     1      38.874 -14.160  -2.391  1.00  0.00     0.035 A 
HETATM   17  C   UNL     1      38.726 -15.338  -3.125  1.00  0.00     0.032 A 
HETATM   18  C   UNL     1      37.714 -15.453  -4.087  1.00  0.00     0.039 A 
HETATM   19  C   UNL     1      36.849 -14.387  -4.327  1.00  0.00     0.068 A 
HETATM   20  C   UNL     1      37.029 -13.192  -3.638  1.00  0.00     0.039 A 
HETATM   21  C   UNL     1      38.023 -13.082  -2.664  1.00  0.00     0.032 A 
BRANCH  19  22
HETATM   22  O   UNL     1      35.823 -14.401  -5.228  1.00  0.00    -0.356 OA
HETATM   23  C   UNL     1      34.865 -13.359  -5.061  1.00  0.00     0.210 C 
ENDBRANCH  19  22
ENDBRANCH  13  16
ENDBRANCH   4  12
ENDBRANCH   1   4
BRANCH   1  24
HETATM   24  C   UNL     1      40.738 -13.109   3.321  1.00  0.00     0.169 C 
BRANCH  24  25
HETATM   25  C   UNL     1      41.938 -13.327   4.204  1.00  0.00    -0.002 A 
HETATM   26  C   UNL     1      41.808 -13.049   5.572  1.00  0.00     0.124 A 
HETATM   27  F   UNL     1      40.645 -12.577   6.042  1.00  0.00    -0.205 F 
HETATM   28  C   UNL     1      42.864 -13.230   6.459  1.00  0.00     0.043 A 
HETATM   29  C   UNL     1      44.080 -13.717   5.989  1.00  0.00     0.003 A 
HETATM   30  C   UNL     1      44.229 -14.024   4.638  1.00  0.00     0.001 A 
HETATM   31  C   UNL     1      43.165 -13.834   3.750  1.00  0.00     0.012 A 
ENDBRANCH  24  25
ENDBRANCH   1  24
BRANCH   2  32
HETATM   32  C   UNL     1      40.131 -15.996   3.354  1.00  0.00     0.228 C 
BRANCH  32  33
HETATM   33  N   UNL     1      41.276 -16.850   3.648  1.00  0.00    -0.347 N 
HETATM   34  C   UNL     1      41.850 -17.039   4.905  1.00  0.00     0.171 A 
HETATM   35  S   UNL     1      41.275 -16.600   6.392  1.00  0.00    -0.041 SA
HETATM   36  N   UNL     1      43.053 -17.692   4.741  1.00  0.00    -0.357 N 
HETATM   37  C   UNL     1      43.408 -17.856   3.353  1.00  0.00     0.135 A 
HETATM   38  H   UNL     1      43.667 -17.898   5.519  1.00  0.00     0.162 HD
HETATM   39  C   UNL     1      42.187 -17.297   2.597  1.00  0.00     0.155 A 
BRANCH  37  40
HETATM   40  C   UNL     1      43.760 -19.291   3.042  1.00  0.00    -0.034 A 
HETATM   41  C   UNL     1      43.284 -19.930   1.885  1.00  0.00     0.009 A 
HETATM   42  C   UNL     1      43.596 -21.267   1.630  1.00  0.00     0.001 A 
HETATM   43  C   UNL     1      44.386 -21.982   2.526  1.00  0.00     0.000 A 
HETATM   44  C   UNL     1      44.864 -21.363   3.679  1.00  0.00     0.001 A 
HETATM   45  C   UNL     1      44.554 -20.026   3.935  1.00  0.00     0.009 A 
ENDBRANCH  37  40
ENDBRANCH  32  33
ENDBRANCH   2  32
TORSDOF 9
ENDMDL
MODEL 7
REMARK VINA RESULT:      -8.3      2.979      8.483
REMARK  9 active torsions:
REMARK  status: ('A' for Active; 'I' for Inactive)
REMARK    1  A    between atoms: C_6  and  N_7 
REMARK    2  A    between atoms: C_6  and  C_31 
REMARK       I    between atoms: N_7  and  C_8 
REMARK    3  A    between atoms: N_7  and  C_23 
REMARK    4  A    between atoms: C_8  and  C_9 
REMARK    5  A    between atoms: C_9  and  N_10 
REMARK    6  A    between atoms: C_14  and  C_15 
REMARK    7  A    between atoms: C_23  and  C_24 
REMARK       I    between atoms: C_31  and  N_32 
REMARK    8  A    between atoms: N_32  and  C_33 
REMARK    9  A    between atoms: C_36  and  O_37 
ROOT
HETATM    1  N   UNL     1      40.315 -13.996   3.786  1.00  0.00    -0.328 N 
HETATM    2  C   UNL     1      41.235 -14.756   4.533  1.00  0.00     0.239 C 
HETATM    3  O   UNL     1      42.277 -14.254   4.966  1.00  0.00    -0.271 OA
ENDROOT
BRANCH   1   4
HETATM    4  C   UNL     1      40.575 -12.510   3.566  1.00  0.00     0.120 C 
HETATM    5  C   UNL     1      39.248 -11.746   3.288  1.00  0.00     0.069 C 
HETATM    6  C   UNL     1      39.453 -10.241   3.205  1.00  0.00     0.237 C 
HETATM    7  N   UNL     1      40.050  -9.754   4.496  1.00  0.00    -0.075 N 
HETATM    8  C   UNL     1      40.130  -8.249   4.527  1.00  0.00     0.269 C 
HETATM    9  H   UNL     1      39.413 -10.026   5.261  1.00  0.00     0.279 HD
HETATM   10  C   UNL     1      41.392 -10.381   4.785  1.00  0.00     0.237 C 
HETATM   11  C   UNL     1      41.263 -11.903   4.824  1.00  0.00     0.069 C 
BRANCH   4  12
HETATM   12  C   UNL     1      41.529 -12.244   2.332  1.00  0.00     0.251 C 
HETATM   13  N   UNL     1      41.019 -11.409   1.359  1.00  0.00    -0.325 N 
HETATM   14  H   UNL     1      40.074 -11.059   1.472  1.00  0.00     0.169 HD
HETATM   15  O   UNL     1      42.669 -12.705   2.326  1.00  0.00    -0.270 OA
BRANCH  13  16
HETATM   16  C   UNL     1      41.588 -11.115   0.099  1.00  0.00     0.035 A 
HETATM   17  C   UNL     1      42.391 -11.999  -0.623  1.00  0.00     0.032 A 
HETATM   18  C   UNL     1      42.821 -11.675  -1.916  1.00  0.00     0.039 A 
HETATM   19  C   UNL     1      42.459 -10.458  -2.491  1.00  0.00     0.068 A 
HETATM   20  C   UNL     1      41.707  -9.549  -1.753  1.00  0.00     0.039 A 
HETATM   21  C   UNL     1      41.259  -9.880  -0.473  1.00  0.00     0.032 A 
BRANCH  19  22
HETATM   22  O   UNL     1      42.811 -10.051  -3.747  1.00  0.00    -0.356 OA
HETATM   23  C   UNL     1      42.160  -8.867  -4.198  1.00  0.00     0.210 C 
ENDBRANCH  19  22
ENDBRANCH  13  16
ENDBRANCH   4  12
ENDBRANCH   1   4
BRANCH   1  24
HETATM   24  C   UNL     1      39.374 -14.688   2.875  1.00  0.00     0.169 C 
BRANCH  24  25
HETATM   25  C   UNL     1      39.864 -14.861   1.461  1.00  0.00    -0.002 A 
HETATM   26  C   UNL     1      39.179 -14.188   0.440  1.00  0.00     0.124 A 
HETATM   27  F   UNL     1      38.106 -13.444   0.745  1.00  0.00    -0.205 F 
HETATM   28  C   UNL     1      39.569 -14.286  -0.891  1.00  0.00     0.043 A 
HETATM   29  C   UNL     1      40.680 -15.055  -1.226  1.00  0.00     0.003 A 
HETATM   30  C   UNL     1      41.393 -15.716  -0.228  1.00  0.00     0.001 A 
HETATM   31  C   UNL     1      40.992 -15.618   1.109  1.00  0.00     0.012 A 
ENDBRANCH  24  25
ENDBRANCH   1  24
BRANCH   2  32
HETATM   32  C   UNL     1      40.932 -16.236   4.846  1.00  0.00     0.228 C 
BRANCH  32  33
HETATM   33  N   UNL     1      42.060 -17.158   4.778  1.00  0.00    -0.347 N 
HETATM   34  C   UNL     1      42.941 -17.446   5.822  1.00  0.00     0.171 A 
HETATM   35  S   UNL     1      42.816 -17.067   7.426  1.00  0.00    -0.041 SA
HETATM   36  N   UNL     1      44.012 -18.143   5.307  1.00  0.00    -0.357 N 
HETATM   37  C   UNL     1      43.968 -18.243   3.869  1.00  0.00     0.135 A 
HETATM   38  H   UNL     1      44.800 -18.422   5.879  1.00  0.00     0.162 HD
HETATM   39  C   UNL     1      42.624 -17.585   3.501  1.00  0.00     0.155 A 
BRANCH  37  40
HETATM   40  C   UNL     1      44.135 -19.671   3.412  1.00  0.00    -0.034 A 
HETATM   41  C   UNL     1      43.707 -20.091   2.142  1.00  0.00     0.009 A 
HETATM   42  C   UNL     1      43.843 -21.425   1.748  1.00  0.00     0.001 A 
HETATM   43  C   UNL     1      44.408 -22.353   2.618  1.00  0.00     0.000 A 
HETATM   44  C   UNL     1      44.837 -21.954   3.881  1.00  0.00     0.001 A 
HETATM   45  C   UNL     1      44.702 -20.621   4.276  1.00  0.00     0.009 A 
ENDBRANCH  37  40
ENDBRANCH  32  33
ENDBRANCH   2  32
TORSDOF 9
ENDMDL
MODEL 8
REMARK VINA RESULT:      -8.3      1.209      1.579
REMARK  9 active torsions:
REMARK  status: ('A' for Active; 'I' for Inactive)
REMARK    1  A    between atoms: C_6  and  N_7 
REMARK    2  A    between atoms: C_6  and  C_31 
REMARK       I    between atoms: N_7  and  C_8 
REMARK    3  A    between atoms: N_7  and  C_23 
REMARK    4  A    between atoms: C_8  and  C_9 
REMARK    5  A    between atoms: C_9  and  N_10 
REMARK    6  A    between atoms: C_14  and  C_15 
REMARK    7  A    between atoms: C_23  and  C_24 
REMARK       I    between atoms: C_31  and  N_32 
REMARK    8  A    between atoms: N_32  and  C_33 
REMARK    9  A    between atoms: C_36  and  O_37 
ROOT
HETATM    1  N   UNL     1      40.726 -14.588   2.047  1.00  0.00    -0.328 N 
HETATM    2  C   UNL     1      41.299 -14.945   0.812  1.00  0.00     0.239 C 
HETATM    3  O   UNL     1      42.459 -15.363   0.743  1.00  0.00    -0.271 OA
ENDROOT
BRANCH   1   4
HETATM    4  C   UNL     1      41.525 -14.785   3.330  1.00  0.00     0.120 C 
HETATM    5  C   UNL     1      42.931 -14.128   3.220  1.00  0.00     0.069 C 
HETATM    6  C   UNL     1      43.700 -14.183   4.532  1.00  0.00     0.237 C 
HETATM    7  N   UNL     1      42.904 -13.485   5.599  1.00  0.00    -0.075 N 
HETATM    8  C   UNL     1      43.689 -13.375   6.881  1.00  0.00     0.269 C 
HETATM    9  H   UNL     1      42.729 -12.519   5.281  1.00  0.00     0.279 HD
HETATM   10  C   UNL     1      41.560 -14.130   5.832  1.00  0.00     0.237 C 
HETATM   11  C   UNL     1      40.758 -14.158   4.532  1.00  0.00     0.069 C 
BRANCH   4  12
HETATM   12  C   UNL     1      41.754 -16.315   3.665  1.00  0.00     0.251 C 
HETATM   13  N   UNL     1      42.954 -16.842   3.232  1.00  0.00    -0.325 N 
HETATM   14  H   UNL     1      43.580 -16.244   2.705  1.00  0.00     0.169 HD
HETATM   15  O   UNL     1      40.928 -16.927   4.338  1.00  0.00    -0.270 OA
BRANCH  13  16
HETATM   16  C   UNL     1      43.357 -18.196   3.268  1.00  0.00     0.035 A 
HETATM   17  C   UNL     1      43.326 -19.052   2.165  1.00  0.00     0.032 A 
HETATM   18  C   UNL     1      43.851 -20.348   2.257  1.00  0.00     0.039 A 
HETATM   19  C   UNL     1      44.401 -20.799   3.455  1.00  0.00     0.068 A 
HETATM   20  C   UNL     1      44.381 -19.970   4.573  1.00  0.00     0.039 A 
HETATM   21  C   UNL     1      43.879 -18.671   4.477  1.00  0.00     0.032 A 
BRANCH  19  22
HETATM   22  O   UNL     1      44.951 -22.035   3.646  1.00  0.00    -0.356 OA
HETATM   23  C   UNL     1      45.127 -22.408   5.010  1.00  0.00     0.210 C 
ENDBRANCH  19  22
ENDBRANCH  13  16
ENDBRANCH   4  12
ENDBRANCH   1   4
BRANCH   1  24
HETATM   24  C   UNL     1      39.581 -13.648   2.070  1.00  0.00     0.169 C 
BRANCH  24  25
HETATM   25  C   UNL     1      39.953 -12.189   2.130  1.00  0.00    -0.002 A 
HETATM   26  C   UNL     1      39.275 -11.374   3.047  1.00  0.00     0.124 A 
HETATM   27  F   UNL     1      38.310 -11.904   3.812  1.00  0.00    -0.205 F 
HETATM   28  C   UNL     1      39.561 -10.019   3.174  1.00  0.00     0.043 A 
HETATM   29  C   UNL     1      40.560  -9.452   2.387  1.00  0.00     0.003 A 
HETATM   30  C   UNL     1      41.266 -10.245   1.484  1.00  0.00     0.001 A 
HETATM   31  C   UNL     1      40.969 -11.606   1.357  1.00  0.00     0.012 A 
ENDBRANCH  24  25
ENDBRANCH   1  24
BRANCH   2  32
HETATM   32  C   UNL     1      40.463 -14.842  -0.480  1.00  0.00     0.228 C 
BRANCH  32  33
HETATM   33  N   UNL     1      40.682 -13.658  -1.303  1.00  0.00    -0.347 N 
HETATM   34  C   UNL     1      39.736 -13.057  -2.134  1.00  0.00     0.171 A 
HETATM   35  S   UNL     1      38.106 -13.320  -2.220  1.00  0.00    -0.041 SA
HETATM   36  N   UNL     1      40.381 -12.142  -2.937  1.00  0.00    -0.357 N 
HETATM   37  C   UNL     1      41.814 -12.177  -2.776  1.00  0.00     0.135 A 
HETATM   38  H   UNL     1      39.896 -11.613  -3.651  1.00  0.00     0.162 HD
HETATM   39  C   UNL     1      42.027 -13.203  -1.646  1.00  0.00     0.155 A 
BRANCH  37  40
HETATM   40  C   UNL     1      42.372 -10.800  -2.513  1.00  0.00    -0.034 A 
HETATM   41  C   UNL     1      41.981  -9.690  -3.280  1.00  0.00     0.009 A 
HETATM   42  C   UNL     1      42.531  -8.428  -3.040  1.00  0.00     0.001 A 
HETATM   43  C   UNL     1      43.478  -8.261  -2.033  1.00  0.00     0.000 A 
HETATM   44  C   UNL     1      43.877  -9.352  -1.265  1.00  0.00     0.001 A 
HETATM   45  C   UNL     1      43.328 -10.613  -1.503  1.00  0.00     0.009 A 
ENDBRANCH  37  40
ENDBRANCH  32  33
ENDBRANCH   2  32
TORSDOF 9
ENDMDL
MODEL 9
REMARK VINA RESULT:      -8.2      2.743      8.729
REMARK  9 active torsions:
REMARK  status: ('A' for Active; 'I' for Inactive)
REMARK    1  A    between atoms: C_6  and  N_7 
REMARK    2  A    between atoms: C_6  and  C_31 
REMARK       I    between atoms: N_7  and  C_8 
REMARK    3  A    between atoms: N_7  and  C_23 
REMARK    4  A    between atoms: C_8  and  C_9 
REMARK    5  A    between atoms: C_9  and  N_10 
REMARK    6  A    between atoms: C_14  and  C_15 
REMARK    7  A    between atoms: C_23  and  C_24 
REMARK       I    between atoms: C_31  and  N_32 
REMARK    8  A    between atoms: N_32  and  C_33 
REMARK    9  A    between atoms: C_36  and  O_37 
ROOT
HETATM    1  N   UNL     1      39.913 -13.616   1.525  1.00  0.00    -0.328 N 
HETATM    2  C   UNL     1      40.859 -14.504   2.072  1.00  0.00     0.239 C 
HETATM    3  O   UNL     1      41.940 -14.097   2.511  1.00  0.00    -0.271 OA
ENDROOT
BRANCH   1   4
HETATM    4  C   UNL     1      40.197 -12.119   1.537  1.00  0.00     0.120 C 
HETATM    5  C   UNL     1      38.896 -11.301   1.286  1.00  0.00     0.069 C 
HETATM    6  C   UNL     1      39.117  -9.803   1.433  1.00  0.00     0.237 C 
HETATM    7  N   UNL     1      39.630  -9.514   2.816  1.00  0.00    -0.075 N 
HETATM    8  C   UNL     1      39.718  -8.031   3.067  1.00  0.00     0.269 C 
HETATM    9  H   UNL     1      38.941  -9.883   3.492  1.00  0.00     0.279 HD
HETATM   10  C   UNL     1      40.945 -10.198   3.099  1.00  0.00     0.237 C 
HETATM   11  C   UNL     1      40.804 -11.707   2.912  1.00  0.00     0.069 C 
BRANCH   4  12
HETATM   12  C   UNL     1      41.233 -11.694   0.419  1.00  0.00     0.251 C 
HETATM   13  N   UNL     1      40.685 -11.104  -0.702  1.00  0.00    -0.325 N 
HETATM   14  H   UNL     1      39.677 -11.018  -0.756  1.00  0.00     0.169 HD
HETATM   15  O   UNL     1      42.439 -11.827   0.617  1.00  0.00    -0.270 OA
BRANCH  13  16
HETATM   16  C   UNL     1      41.351 -10.761  -1.900  1.00  0.00     0.035 A 
HETATM   17  C   UNL     1      41.937 -11.688  -2.764  1.00  0.00     0.032 A 
HETATM   18  C   UNL     1      42.477 -11.275  -3.989  1.00  0.00     0.039 A 
HETATM   19  C   UNL     1      42.444  -9.931  -4.354  1.00  0.00     0.068 A 
HETATM   20  C   UNL     1      41.912  -8.995  -3.470  1.00  0.00     0.039 A 
HETATM   21  C   UNL     1      41.354  -9.407  -2.259  1.00  0.00     0.032 A 
BRANCH  19  22
HETATM   22  O   UNL     1      42.927  -9.427  -5.527  1.00  0.00    -0.356 OA
HETATM   23  C   UNL     1      42.097  -8.448  -6.146  1.00  0.00     0.210 C 
ENDBRANCH  19  22
ENDBRANCH  13  16
ENDBRANCH   4  12
ENDBRANCH   1   4
BRANCH   1  24
HETATM   24  C   UNL     1      38.898 -14.132   0.578  1.00  0.00     0.169 C 
BRANCH  24  25
HETATM   25  C   UNL     1      39.386 -14.338  -0.833  1.00  0.00    -0.002 A 
HETATM   26  C   UNL     1      38.638 -13.777  -1.877  1.00  0.00     0.124 A 
HETATM   27  F   UNL     1      37.511 -13.108  -1.595  1.00  0.00    -0.205 F 
HETATM   28  C   UNL     1      39.021 -13.912  -3.206  1.00  0.00     0.043 A 
HETATM   29  C   UNL     1      40.188 -14.604  -3.518  1.00  0.00     0.003 A 
HETATM   30  C   UNL     1      40.963 -15.151  -2.497  1.00  0.00     0.001 A 
HETATM   31  C   UNL     1      40.569 -15.018  -1.162  1.00  0.00     0.012 A 
ENDBRANCH  24  25
ENDBRANCH   1  24
BRANCH   2  32
HETATM   32  C   UNL     1      40.538 -16.010   2.155  1.00  0.00     0.228 C 
BRANCH  32  33
HETATM   33  N   UNL     1      41.559 -16.859   2.759  1.00  0.00    -0.347 N 
HETATM   34  C   UNL     1      41.905 -16.883   4.110  1.00  0.00     0.171 A 
HETATM   35  S   UNL     1      41.123 -16.204   5.399  1.00  0.00    -0.041 SA
HETATM   36  N   UNL     1      43.071 -17.603   4.249  1.00  0.00    -0.357 N 
HETATM   37  C   UNL     1      43.639 -17.987   2.980  1.00  0.00     0.135 A 
HETATM   38  H   UNL     1      43.533 -17.717   5.142  1.00  0.00     0.162 HD
HETATM   39  C   UNL     1      42.599 -17.495   1.954  1.00  0.00     0.155 A 
BRANCH  37  40
HETATM   40  C   UNL     1      43.940 -19.465   2.937  1.00  0.00    -0.034 A 
HETATM   41  C   UNL     1      43.565 -20.260   1.841  1.00  0.00     0.009 A 
HETATM   42  C   UNL     1      43.826 -21.632   1.833  1.00  0.00     0.001 A 
HETATM   43  C   UNL     1      44.464 -22.226   2.919  1.00  0.00     0.000 A 
HETATM   44  C   UNL     1      44.841 -21.453   4.014  1.00  0.00     0.001 A 
HETATM   45  C   UNL     1      44.582 -20.081   4.023  1.00  0.00     0.009 A 
ENDBRANCH  37  40
ENDBRANCH  32  33
ENDBRANCH   2  32
TORSDOF 9
ENDMDL
MODEL 10
REMARK VINA RESULT:      -8.2      1.884      2.502
REMARK  9 active torsions:
REMARK  status: ('A' for Active; 'I' for Inactive)
REMARK    1  A    between atoms: C_6  and  N_7 
REMARK    2  A    between atoms: C_6  and  C_31 
REMARK       I    between atoms: N_7  and  C_8 
REMARK    3  A    between atoms: N_7  and  C_23 
REMARK    4  A    between atoms: C_8  and  C_9 
REMARK    5  A    between atoms: C_9  and  N_10 
REMARK    6  A    between atoms: C_14  and  C_15 
REMARK    7  A    between atoms: C_23  and  C_24 
REMARK       I    between atoms: C_31  and  N_32 
REMARK    8  A    between atoms: N_32  and  C_33 
REMARK    9  A    between atoms: C_36  and  O_37 
ROOT
HETATM    1  N   UNL     1      40.328 -13.914   3.203  1.00  0.00    -0.328 N 
HETATM    2  C   UNL     1      39.668 -14.749   2.282  1.00  0.00     0.239 C 
HETATM    3  O   UNL     1      40.083 -15.887   2.038  1.00  0.00    -0.271 OA
ENDROOT
BRANCH   1   4
HETATM    4  C   UNL     1      41.535 -14.446   3.966  1.00  0.00     0.120 C 
HETATM    5  C   UNL     1      42.595 -13.329   4.185  1.00  0.00     0.069 C 
HETATM    6  C   UNL     1      43.747 -13.789   5.066  1.00  0.00     0.237 C 
HETATM    7  N   UNL     1      43.204 -14.230   6.396  1.00  0.00    -0.075 N 
HETATM    8  C   UNL     1      44.317 -14.548   7.362  1.00  0.00     0.269 C 
HETATM    9  H   UNL     1      42.684 -13.436   6.804  1.00  0.00     0.279 HD
HETATM   10  C   UNL     1      42.238 -15.382   6.273  1.00  0.00     0.237 C 
HETATM   11  C   UNL     1      41.081 -15.002   5.350  1.00  0.00     0.069 C 
BRANCH   4  12
HETATM   12  C   UNL     1      42.258 -15.626   3.199  1.00  0.00     0.251 C 
HETATM   13  N   UNL     1      42.028 -16.890   3.705  1.00  0.00    -0.325 N 
HETATM   14  H   UNL     1      41.458 -16.978   4.538  1.00  0.00     0.169 HD
HETATM   15  O   UNL     1      42.902 -15.392   2.179  1.00  0.00    -0.270 OA
BRANCH  13  16
HETATM   16  C   UNL     1      42.650 -18.096   3.310  1.00  0.00     0.035 A 
HETATM   17  C   UNL     1      42.460 -18.705   2.069  1.00  0.00     0.032 A 
HETATM   18  C   UNL     1      43.203 -19.838   1.712  1.00  0.00     0.039 A 
HETATM   19  C   UNL     1      44.133 -20.375   2.600  1.00  0.00     0.068 A 
HETATM   20  C   UNL     1      44.284 -19.805   3.861  1.00  0.00     0.039 A 
HETATM   21  C   UNL     1      43.561 -18.664   4.209  1.00  0.00     0.032 A 
BRANCH  19  22
HETATM   22  O   UNL     1      44.917 -21.464   2.346  1.00  0.00    -0.356 OA
HETATM   23  C   UNL     1      44.660 -22.595   3.175  1.00  0.00     0.210 C 
ENDBRANCH  19  22
ENDBRANCH  13  16
ENDBRANCH   4  12
ENDBRANCH   1   4
BRANCH   1  24
HETATM   24  C   UNL     1      40.145 -12.447   3.111  1.00  0.00     0.169 C 
BRANCH  24  25
HETATM   25  C   UNL     1      40.735 -11.805   1.883  1.00  0.00    -0.002 A 
HETATM   26  C   UNL     1      40.130 -10.640   1.393  1.00  0.00     0.124 A 
HETATM   27  F   UNL     1      39.042 -10.154   2.007  1.00  0.00    -0.205 F 
HETATM   28  C   UNL     1      40.615  -9.979   0.270  1.00  0.00     0.043 A 
HETATM   29  C   UNL     1      41.743 -10.471  -0.382  1.00  0.00     0.003 A 
HETATM   30  C   UNL     1      42.378 -11.614   0.098  1.00  0.00     0.001 A 
HETATM   31  C   UNL     1      41.881 -12.278   1.225  1.00  0.00     0.012 A 
ENDBRANCH  24  25
ENDBRANCH   1  24
BRANCH   2  32
HETATM   32  C   UNL     1      38.387 -14.255   1.579  1.00  0.00     0.228 C 
BRANCH  32  33
HETATM   33  N   UNL     1      38.560 -13.654   0.261  1.00  0.00    -0.347 N 
HETATM   34  C   UNL     1      37.719 -12.703  -0.318  1.00  0.00     0.171 A 
HETATM   35  S   UNL     1      36.507 -11.820   0.379  1.00  0.00    -0.041 SA
HETATM   36  N   UNL     1      38.052 -12.580  -1.649  1.00  0.00    -0.357 N 
HETATM   37  C   UNL     1      39.047 -13.540  -2.062  1.00  0.00     0.135 A 
HETATM   38  H   UNL     1      37.543 -11.973  -2.280  1.00  0.00     0.162 HD
HETATM   39  C   UNL     1      39.412 -14.268  -0.754  1.00  0.00     0.155 A 
BRANCH  37  40
HETATM   40  C   UNL     1      40.197 -12.868  -2.771  1.00  0.00    -0.034 A 
HETATM   41  C   UNL     1      41.489 -13.420  -2.762  1.00  0.00     0.009 A 
HETATM   42  C   UNL     1      42.547 -12.769  -3.399  1.00  0.00     0.001 A 
HETATM   43  C   UNL     1      42.329 -11.558  -4.051  1.00  0.00     0.000 A 
HETATM   44  C   UNL     1      41.055 -10.996  -4.067  1.00  0.00     0.001 A 
HETATM   45  C   UNL     1      39.995 -11.646  -3.432  1.00  0.00     0.009 A 
ENDBRANCH  37  40
ENDBRANCH  32  33
ENDBRANCH   2  32
TORSDOF 9
ENDMDL
