MODEL 1
REMARK VINA RESULT:      -7.9      0.000      0.000
REMARK  5 active torsions:
REMARK  status: ('A' for Active; 'I' for Inactive)
REMARK    1  A    between atoms: C_2  and  O_3 
REMARK    2  A    between atoms: C_4  and  C_5 
REMARK    3  A    between atoms: C_5  and  O_6 
REMARK    4  A    between atoms: C_9  and  C_10 
REMARK    5  A    between atoms: C_22  and  O_23 
ROOT
HETATM    1  C   UNL     1      40.108 -14.732   3.958  1.00  0.00     0.047 C 
HETATM    2  C   UNL     1      41.089 -15.788   4.495  1.00  0.00     0.073 C 
HETATM    3  C   UNL     1      42.466 -15.742   3.751  1.00  0.00     0.133 C 
HETATM    4  C   UNL     1      43.625 -16.587   4.360  1.00  0.00     0.074 C 
HETATM    5  C   UNL     1      43.463 -16.799   5.823  1.00  0.00     0.030 A 
HETATM    6  C   UNL     1      42.366 -16.390   6.549  1.00  0.00     0.042 A 
HETATM    7  N   UNL     1      42.607 -16.719   7.854  1.00  0.00    -0.279 N 
HETATM    8  H   UNL     1      42.025 -16.554   8.669  1.00  0.00     0.189 HD
HETATM    9  N   UNL     1      43.804 -17.318   8.028  1.00  0.00    -0.149 NA
HETATM   10  C   UNL     1      44.308 -17.328   6.801  1.00  0.00     0.190 A 
HETATM   11  C   UNL     1      41.180 -15.657   6.043  1.00  0.00     0.097 C 
ENDROOT
BRANCH   4  12
HETATM   12  C   UNL     1      43.792 -17.949   3.687  1.00  0.00    -0.048 A 
HETATM   13  C   UNL     1      43.316 -18.090   2.368  1.00  0.00     0.009 A 
HETATM   14  C   UNL     1      43.421 -19.305   1.685  1.00  0.00     0.019 A 
HETATM   15  C   UNL     1      43.994 -20.404   2.315  1.00  0.00     0.011 A 
HETATM   16 BR   UNL     1      44.142 -22.047   1.394  1.00  0.00    -0.051 Br
HETATM   17  C   UNL     1      44.466 -20.295   3.620  1.00  0.00     0.019 A 
HETATM   18  C   UNL     1      44.367 -19.077   4.299  1.00  0.00     0.009 A 
ENDBRANCH   4  12
BRANCH   3  19
HETATM   19  C   UNL     1      42.965 -14.314   3.668  1.00  0.00     0.266 C 
HETATM   20  O   UNL     1      43.253 -13.616   4.631  1.00  0.00    -0.265 OA
BRANCH  19  21
HETATM   21  O   UNL     1      43.043 -13.917   2.368  1.00  0.00    -0.326 OA
HETATM   22  C   UNL     1      42.243 -12.776   2.051  1.00  0.00     0.213 C 
ENDBRANCH  19  21
ENDBRANCH   3  19
BRANCH   2  23
HETATM   23  O   UNL     1      40.451 -17.042   4.179  1.00  0.00    -0.389 OA
HETATM   24  H   UNL     1      40.093 -17.414   5.002  1.00  0.00     0.210 HD
ENDBRANCH   2  23
BRANCH  10  25
HETATM   25  O   UNL     1      45.532 -17.830   6.691  1.00  0.00    -0.343 OA
HETATM   26  H   UNL     1      45.457 -18.735   7.040  1.00  0.00     0.219 HD
ENDBRANCH  10  25
TORSDOF 5
ENDMDL
MODEL 2
REMARK VINA RESULT:      -7.7      2.870      4.027
REMARK  5 active torsions:
REMARK  status: ('A' for Active; 'I' for Inactive)
REMARK    1  A    between atoms: C_2  and  O_3 
REMARK    2  A    between atoms: C_4  and  C_5 
REMARK    3  A    between atoms: C_5  and  O_6 
REMARK    4  A    between atoms: C_9  and  C_10 
REMARK    5  A    between atoms: C_22  and  O_23 
ROOT
HETATM    1  C   UNL     1      38.069 -14.397   0.882  1.00  0.00     0.047 C 
HETATM    2  C   UNL     1      39.339 -14.590   1.728  1.00  0.00     0.073 C 
HETATM    3  C   UNL     1      40.608 -14.819   0.839  1.00  0.00     0.133 C 
HETATM    4  C   UNL     1      41.990 -14.783   1.558  1.00  0.00     0.074 C 
HETATM    5  C   UNL     1      41.963 -13.955   2.793  1.00  0.00     0.030 A 
HETATM    6  C   UNL     1      40.828 -13.368   3.309  1.00  0.00     0.042 A 
HETATM    7  N   UNL     1      41.214 -12.657   4.412  1.00  0.00    -0.279 N 
HETATM    8  H   UNL     1      40.646 -12.087   5.031  1.00  0.00     0.189 HD
HETATM    9  N   UNL     1      42.541 -12.740   4.648  1.00  0.00    -0.149 NA
HETATM   10  C   UNL     1      42.968 -13.499   3.648  1.00  0.00     0.190 A 
HETATM   11  C   UNL     1      39.458 -13.417   2.743  1.00  0.00     0.097 C 
ENDROOT
BRANCH   4  12
HETATM   12  C   UNL     1      42.516 -16.172   1.916  1.00  0.00    -0.048 A 
HETATM   13  C   UNL     1      43.245 -16.870   0.932  1.00  0.00     0.009 A 
HETATM   14  C   UNL     1      43.753 -18.149   1.175  1.00  0.00     0.019 A 
HETATM   15  C   UNL     1      43.529 -18.757   2.405  1.00  0.00     0.011 A 
HETATM   16 BR   UNL     1      44.217 -20.485   2.740  1.00  0.00    -0.051 Br
HETATM   17  C   UNL     1      42.807 -18.095   3.393  1.00  0.00     0.019 A 
HETATM   18  C   UNL     1      42.306 -16.813   3.150  1.00  0.00     0.009 A 
ENDBRANCH   4  12
BRANCH   3  19
HETATM   19  C   UNL     1      40.663 -13.782  -0.264  1.00  0.00     0.266 C 
HETATM   20  O   UNL     1      41.044 -12.628  -0.121  1.00  0.00    -0.265 OA
BRANCH  19  21
HETATM   21  O   UNL     1      40.224 -14.318  -1.437  1.00  0.00    -0.326 OA
HETATM   22  C   UNL     1      40.955 -15.467  -1.869  1.00  0.00     0.213 C 
ENDBRANCH  19  21
ENDBRANCH   3  19
BRANCH   2  23
HETATM   23  O   UNL     1      39.082 -15.805   2.462  1.00  0.00    -0.389 OA
HETATM   24  H   UNL     1      39.888 -16.040   2.950  1.00  0.00     0.210 HD
ENDBRANCH   2  23
BRANCH  10  25
HETATM   25  O   UNL     1      44.280 -13.705   3.610  1.00  0.00    -0.343 OA
HETATM   26  H   UNL     1      44.641 -12.902   3.199  1.00  0.00     0.219 HD
ENDBRANCH  10  25
TORSDOF 5
ENDMDL
MODEL 3
REMARK VINA RESULT:      -7.4      2.445      3.053
REMARK  5 active torsions:
REMARK  status: ('A' for Active; 'I' for Inactive)
REMARK    1  A    between atoms: C_2  and  O_3 
REMARK    2  A    between atoms: C_4  and  C_5 
REMARK    3  A    between atoms: C_5  and  O_6 
REMARK    4  A    between atoms: C_9  and  C_10 
REMARK    5  A    between atoms: C_22  and  O_23 
ROOT
HETATM    1  C   UNL     1      39.600 -14.232   3.151  1.00  0.00     0.047 C 
HETATM    2  C   UNL     1      40.654 -14.517   4.234  1.00  0.00     0.073 C 
HETATM    3  C   UNL     1      41.941 -15.182   3.639  1.00  0.00     0.133 C 
HETATM    4  C   UNL     1      43.176 -15.297   4.583  1.00  0.00     0.074 C 
HETATM    5  C   UNL     1      43.177 -14.252   5.642  1.00  0.00     0.030 A 
HETATM    6  C   UNL     1      42.158 -13.348   5.841  1.00  0.00     0.042 A 
HETATM    7  N   UNL     1      42.546 -12.530   6.866  1.00  0.00    -0.279 N 
HETATM    8  H   UNL     1      42.052 -11.740   7.271  1.00  0.00     0.189 HD
HETATM    9  N   UNL     1      43.767 -12.843   7.349  1.00  0.00    -0.149 NA
HETATM   10  C   UNL     1      44.134 -13.859   6.581  1.00  0.00     0.190 A 
HETATM   11  C   UNL     1      40.910 -13.217   5.050  1.00  0.00     0.097 C 
ENDROOT
BRANCH   4  12
HETATM   12  C   UNL     1      43.296 -16.666   5.250  1.00  0.00    -0.048 A 
HETATM   13  C   UNL     1      43.791 -17.732   4.473  1.00  0.00     0.009 A 
HETATM   14  C   UNL     1      43.922 -19.018   5.005  1.00  0.00     0.019 A 
HETATM   15  C   UNL     1      43.549 -19.261   6.322  1.00  0.00     0.011 A 
HETATM   16 BR   UNL     1      43.728 -20.997   7.047  1.00  0.00    -0.051 Br
HETATM   17  C   UNL     1      43.050 -18.229   7.111  1.00  0.00     0.019 A 
HETATM   18  C   UNL     1      42.927 -16.942   6.579  1.00  0.00     0.009 A 
ENDBRANCH   4  12
BRANCH   3  19
HETATM   19  C   UNL     1      42.399 -14.421   2.412  1.00  0.00     0.266 C 
HETATM   20  O   UNL     1      42.888 -13.300   2.426  1.00  0.00    -0.265 OA
BRANCH  19  21
HETATM   21  O   UNL     1      42.186 -15.164   1.291  1.00  0.00    -0.326 OA
HETATM   22  C   UNL     1      41.706 -14.417   0.172  1.00  0.00     0.213 C 
ENDBRANCH  19  21
ENDBRANCH   3  19
BRANCH   2  23
HETATM   23  O   UNL     1      40.010 -15.479   5.095  1.00  0.00    -0.389 OA
HETATM   24  H   UNL     1      40.214 -15.243   6.015  1.00  0.00     0.210 HD
ENDBRANCH   2  23
BRANCH  10  25
HETATM   25  O   UNL     1      45.349 -14.342   6.815  1.00  0.00    -0.343 OA
HETATM   26  H   UNL     1      45.510 -14.962   6.084  1.00  0.00     0.219 HD
ENDBRANCH  10  25
TORSDOF 5
ENDMDL
MODEL 4
REMARK VINA RESULT:      -7.4      1.487      2.272
REMARK  5 active torsions:
REMARK  status: ('A' for Active; 'I' for Inactive)
REMARK    1  A    between atoms: C_2  and  O_3 
REMARK    2  A    between atoms: C_4  and  C_5 
REMARK    3  A    between atoms: C_5  and  O_6 
REMARK    4  A    between atoms: C_9  and  C_10 
REMARK    5  A    between atoms: C_22  and  O_23 
ROOT
HETATM    1  C   UNL     1      40.199 -13.978   1.498  1.00  0.00     0.047 C 
HETATM    2  C   UNL     1      40.604 -15.105   2.462  1.00  0.00     0.073 C 
HETATM    3  C   UNL     1      42.158 -15.238   2.591  1.00  0.00     0.133 C 
HETATM    4  C   UNL     1      42.696 -16.172   3.717  1.00  0.00     0.074 C 
HETATM    5  C   UNL     1      41.741 -16.299   4.850  1.00  0.00     0.030 A 
HETATM    6  C   UNL     1      40.480 -15.745   4.868  1.00  0.00     0.042 A 
HETATM    7  N   UNL     1      39.934 -16.039   6.087  1.00  0.00    -0.279 N 
HETATM    8  H   UNL     1      39.025 -15.777   6.456  1.00  0.00     0.189 HD
HETATM    9  N   UNL     1      40.768 -16.752   6.874  1.00  0.00    -0.149 NA
HETATM   10  C   UNL     1      41.852 -16.869   6.120  1.00  0.00     0.190 A 
HETATM   11  C   UNL     1      39.852 -14.915   3.812  1.00  0.00     0.097 C 
ENDROOT
BRANCH   4  12
HETATM   12  C   UNL     1      43.047 -17.573   3.217  1.00  0.00    -0.048 A 
HETATM   13  C   UNL     1      44.059 -18.277   3.900  1.00  0.00     0.009 A 
HETATM   14  C   UNL     1      44.447 -19.559   3.500  1.00  0.00     0.019 A 
HETATM   15  C   UNL     1      43.835 -20.154   2.402  1.00  0.00     0.011 A 
HETATM   16 BR   UNL     1      44.353 -21.889   1.861  1.00  0.00    -0.051 Br
HETATM   17  C   UNL     1      42.838 -19.479   1.705  1.00  0.00     0.019 A 
HETATM   18  C   UNL     1      42.447 -18.200   2.111  1.00  0.00     0.009 A 
ENDBRANCH   4  12
BRANCH   3  19
HETATM   19  C   UNL     1      42.779 -13.875   2.822  1.00  0.00     0.266 C 
HETATM   20  O   UNL     1      42.950 -13.029   1.955  1.00  0.00    -0.265 OA
BRANCH  19  21
HETATM   21  O   UNL     1      43.122 -13.730   4.132  1.00  0.00    -0.326 OA
HETATM   22  C   UNL     1      42.471 -12.645   4.794  1.00  0.00     0.213 C 
ENDBRANCH  19  21
ENDBRANCH   3  19
BRANCH   2  23
HETATM   23  O   UNL     1      40.103 -16.299   1.825  1.00  0.00    -0.389 OA
HETATM   24  H   UNL     1      40.633 -16.459   1.027  1.00  0.00     0.210 HD
ENDBRANCH   2  23
BRANCH  10  25
HETATM   25  O   UNL     1      42.874 -17.502   6.685  1.00  0.00    -0.343 OA
HETATM   26  H   UNL     1      42.739 -18.437   6.455  1.00  0.00     0.219 HD
ENDBRANCH  10  25
TORSDOF 5
ENDMDL
MODEL 5
REMARK VINA RESULT:      -7.3      3.238      4.679
REMARK  5 active torsions:
REMARK  status: ('A' for Active; 'I' for Inactive)
REMARK    1  A    between atoms: C_2  and  O_3 
REMARK    2  A    between atoms: C_4  and  C_5 
REMARK    3  A    between atoms: C_5  and  O_6 
REMARK    4  A    between atoms: C_9  and  C_10 
REMARK    5  A    between atoms: C_22  and  O_23 
ROOT
HETATM    1  C   UNL     1      42.424 -12.510   4.261  1.00  0.00     0.047 C 
HETATM    2  C   UNL     1      42.458 -13.808   3.437  1.00  0.00     0.073 C 
HETATM    3  C   UNL     1      41.545 -14.920   4.055  1.00  0.00     0.133 C 
HETATM    4  C   UNL     1      41.298 -16.192   3.190  1.00  0.00     0.074 C 
HETATM    5  C   UNL     1      41.427 -15.919   1.734  1.00  0.00     0.030 A 
HETATM    6  C   UNL     1      41.821 -14.710   1.203  1.00  0.00     0.042 A 
HETATM    7  N   UNL     1      41.771 -14.838  -0.158  1.00  0.00    -0.279 N 
HETATM    8  H   UNL     1      41.978 -14.144  -0.869  1.00  0.00     0.189 HD
HETATM    9  N   UNL     1      41.360 -16.062  -0.552  1.00  0.00    -0.149 NA
HETATM   10  C   UNL     1      41.134 -16.680   0.599  1.00  0.00     0.190 A 
HETATM   11  C   UNL     1      42.158 -13.473   1.947  1.00  0.00     0.097 C 
ENDROOT
BRANCH   4  12
HETATM   12  C   UNL     1      42.225 -17.352   3.551  1.00  0.00    -0.048 A 
HETATM   13  C   UNL     1      42.061 -17.952   4.816  1.00  0.00     0.009 A 
HETATM   14  C   UNL     1      42.874 -19.011   5.227  1.00  0.00     0.019 A 
HETATM   15  C   UNL     1      43.873 -19.483   4.382  1.00  0.00     0.011 A 
HETATM   16 BR   UNL     1      44.972 -20.918   4.932  1.00  0.00    -0.051 Br
HETATM   17  C   UNL     1      44.062 -18.906   3.130  1.00  0.00     0.019 A 
HETATM   18  C   UNL     1      43.243 -17.851   2.718  1.00  0.00     0.009 A 
ENDBRANCH   4  12
BRANCH   3  19
HETATM   19  C   UNL     1      40.183 -14.348   4.389  1.00  0.00     0.266 C 
HETATM   20  O   UNL     1      39.347 -14.004   3.564  1.00  0.00    -0.265 OA
BRANCH  19  21
HETATM   21  O   UNL     1      40.023 -14.268   5.739  1.00  0.00    -0.326 OA
HETATM   22  C   UNL     1      39.355 -13.087   6.185  1.00  0.00     0.213 C 
ENDBRANCH  19  21
ENDBRANCH   3  19
BRANCH   2  23
HETATM   23  O   UNL     1      43.829 -14.245   3.540  1.00  0.00    -0.389 OA
HETATM   24  H   UNL     1      44.349 -13.520   3.922  1.00  0.00     0.210 HD
ENDBRANCH   2  23
BRANCH  10  25
HETATM   25  O   UNL     1      40.663 -17.917   0.500  1.00  0.00    -0.343 OA
HETATM   26  H   UNL     1      39.699 -17.819   0.585  1.00  0.00     0.219 HD
ENDBRANCH  10  25
TORSDOF 5
ENDMDL
MODEL 6
REMARK VINA RESULT:      -7.2      3.243      4.930
REMARK  5 active torsions:
REMARK  status: ('A' for Active; 'I' for Inactive)
REMARK    1  A    between atoms: C_2  and  O_3 
REMARK    2  A    between atoms: C_4  and  C_5 
REMARK    3  A    between atoms: C_5  and  O_6 
REMARK    4  A    between atoms: C_9  and  C_10 
REMARK    5  A    between atoms: C_22  and  O_23 
ROOT
HETATM    1  C   UNL     1      42.055 -17.283   7.391  1.00  0.00     0.047 C 
HETATM    2  C   UNL     1      42.135 -17.336   5.856  1.00  0.00     0.073 C 
HETATM    3  C   UNL     1      42.637 -15.984   5.247  1.00  0.00     0.133 C 
HETATM    4  C   UNL     1      42.995 -15.983   3.730  1.00  0.00     0.074 C 
HETATM    5  C   UNL     1      43.400 -17.329   3.244  1.00  0.00     0.030 A 
HETATM    6  C   UNL     1      43.365 -18.474   4.010  1.00  0.00     0.042 A 
HETATM    7  N   UNL     1      43.853 -19.488   3.233  1.00  0.00    -0.279 N 
HETATM    8  H   UNL     1      43.988 -20.465   3.475  1.00  0.00     0.189 HD
HETATM    9  N   UNL     1      44.212 -19.073   2.000  1.00  0.00    -0.149 NA
HETATM   10  C   UNL     1      43.957 -17.773   2.043  1.00  0.00     0.190 A 
HETATM   11  C   UNL     1      42.959 -18.587   5.432  1.00  0.00     0.097 C 
ENDROOT
BRANCH   4  12
HETATM   12  C   UNL     1      41.861 -15.467   2.846  1.00  0.00    -0.048 A 
HETATM   13  C   UNL     1      42.035 -14.215   2.222  1.00  0.00     0.009 A 
HETATM   14  C   UNL     1      41.042 -13.668   1.405  1.00  0.00     0.019 A 
HETATM   15  C   UNL     1      39.851 -14.360   1.208  1.00  0.00     0.011 A 
HETATM   16 BR   UNL     1      38.507 -13.625   0.101  1.00  0.00    -0.051 Br
HETATM   17  C   UNL     1      39.650 -15.594   1.817  1.00  0.00     0.019 A 
HETATM   18  C   UNL     1      40.648 -16.144   2.627  1.00  0.00     0.009 A 
ENDBRANCH   4  12
BRANCH   3  19
HETATM   19  C   UNL     1      43.869 -15.506   5.987  1.00  0.00     0.266 C 
HETATM   20  O   UNL     1      44.802 -16.220   6.328  1.00  0.00    -0.265 OA
BRANCH  19  21
HETATM   21  O   UNL     1      43.787 -14.167   6.221  1.00  0.00    -0.326 OA
HETATM   22  C   UNL     1      44.595 -13.709   7.307  1.00  0.00     0.213 C 
ENDBRANCH  19  21
ENDBRANCH   3  19
BRANCH   2  23
HETATM   23  O   UNL     1      40.765 -17.532   5.447  1.00  0.00    -0.389 OA
HETATM   24  H   UNL     1      40.620 -17.029   4.629  1.00  0.00     0.210 HD
ENDBRANCH   2  23
BRANCH  10  25
HETATM   25  O   UNL     1      44.272 -17.093   0.946  1.00  0.00    -0.343 OA
HETATM   26  H   UNL     1      44.978 -17.616   0.529  1.00  0.00     0.219 HD
ENDBRANCH  10  25
TORSDOF 5
ENDMDL
MODEL 7
REMARK VINA RESULT:      -7.2      4.311      6.305
REMARK  5 active torsions:
REMARK  status: ('A' for Active; 'I' for Inactive)
REMARK    1  A    between atoms: C_2  and  O_3 
REMARK    2  A    between atoms: C_4  and  C_5 
REMARK    3  A    between atoms: C_5  and  O_6 
REMARK    4  A    between atoms: C_9  and  C_10 
REMARK    5  A    between atoms: C_22  and  O_23 
ROOT
HETATM    1  C   UNL     1      41.700 -13.122  -3.299  1.00  0.00     0.047 C 
HETATM    2  C   UNL     1      41.150 -13.855  -2.064  1.00  0.00     0.073 C 
HETATM    3  C   UNL     1      41.930 -13.478  -0.760  1.00  0.00     0.133 C 
HETATM    4  C   UNL     1      41.321 -13.959   0.591  1.00  0.00     0.074 C 
HETATM    5  C   UNL     1      39.848 -14.142   0.513  1.00  0.00     0.030 A 
HETATM    6  C   UNL     1      39.109 -14.008  -0.641  1.00  0.00     0.042 A 
HETATM    7  N   UNL     1      37.799 -14.205  -0.301  1.00  0.00    -0.279 N 
HETATM    8  H   UNL     1      36.975 -14.165  -0.894  1.00  0.00     0.189 HD
HETATM    9  N   UNL     1      37.634 -14.456   1.015  1.00  0.00    -0.149 NA
HETATM   10  C   UNL     1      38.873 -14.385   1.484  1.00  0.00     0.190 A 
HETATM   11  C   UNL     1      39.610 -13.638  -1.987  1.00  0.00     0.097 C 
ENDROOT
BRANCH   4  12
HETATM   12  C   UNL     1      41.947 -15.255   1.104  1.00  0.00    -0.048 A 
HETATM   13  C   UNL     1      42.828 -15.169   2.200  1.00  0.00     0.009 A 
HETATM   14  C   UNL     1      43.450 -16.306   2.723  1.00  0.00     0.019 A 
HETATM   15  C   UNL     1      43.208 -17.549   2.149  1.00  0.00     0.011 A 
HETATM   16 BR   UNL     1      44.043 -19.091   2.856  1.00  0.00    -0.051 Br
HETATM   17  C   UNL     1      42.348 -17.664   1.062  1.00  0.00     0.019 A 
HETATM   18  C   UNL     1      41.722 -16.526   0.545  1.00  0.00     0.009 A 
ENDBRANCH   4  12
BRANCH   3  19
HETATM   19  C   UNL     1      42.080 -11.974  -0.661  1.00  0.00     0.266 C 
HETATM   20  O   UNL     1      41.177 -11.198  -0.381  1.00  0.00    -0.265 OA
BRANCH  19  21
HETATM   21  O   UNL     1      43.364 -11.610  -0.931  1.00  0.00    -0.326 OA
HETATM   22  C   UNL     1      43.532 -10.224  -1.233  1.00  0.00     0.213 C 
ENDBRANCH  19  21
ENDBRANCH   3  19
BRANCH   2  23
HETATM   23  O   UNL     1      41.401 -15.246  -2.351  1.00  0.00    -0.389 OA
HETATM   24  H   UNL     1      42.278 -15.473  -2.001  1.00  0.00     0.210 HD
ENDBRANCH   2  23
BRANCH  10  25
HETATM   25  O   UNL     1      38.997 -14.550   2.796  1.00  0.00    -0.343 OA
HETATM   26  H   UNL     1      39.139 -13.652   3.142  1.00  0.00     0.219 HD
ENDBRANCH  10  25
TORSDOF 5
ENDMDL
MODEL 8
REMARK VINA RESULT:      -6.9      3.356      4.670
REMARK  5 active torsions:
REMARK  status: ('A' for Active; 'I' for Inactive)
REMARK    1  A    between atoms: C_2  and  O_3 
REMARK    2  A    between atoms: C_4  and  C_5 
REMARK    3  A    between atoms: C_5  and  O_6 
REMARK    4  A    between atoms: C_9  and  C_10 
REMARK    5  A    between atoms: C_22  and  O_23 
ROOT
HETATM    1  C   UNL     1      39.981 -14.478   5.322  1.00  0.00     0.047 C 
HETATM    2  C   UNL     1      40.678 -15.186   4.149  1.00  0.00     0.073 C 
HETATM    3  C   UNL     1      41.620 -14.220   3.355  1.00  0.00     0.133 C 
HETATM    4  C   UNL     1      42.567 -14.867   2.300  1.00  0.00     0.074 C 
HETATM    5  C   UNL     1      42.888 -16.283   2.621  1.00  0.00     0.030 A 
HETATM    6  C   UNL     1      42.335 -16.985   3.669  1.00  0.00     0.042 A 
HETATM    7  N   UNL     1      42.910 -18.226   3.664  1.00  0.00    -0.279 N 
HETATM    8  H   UNL     1      42.755 -19.001   4.302  1.00  0.00     0.189 HD
HETATM    9  N   UNL     1      43.815 -18.378   2.674  1.00  0.00    -0.149 NA
HETATM   10  C   UNL     1      43.803 -17.191   2.082  1.00  0.00     0.190 A 
HETATM   11  C   UNL     1      41.364 -16.482   4.671  1.00  0.00     0.097 C 
ENDROOT
BRANCH   4  12
HETATM   12  C   UNL     1      42.013 -14.804   0.877  1.00  0.00    -0.048 A 
HETATM   13  C   UNL     1      42.020 -13.554   0.226  1.00  0.00     0.009 A 
HETATM   14  C   UNL     1      41.523 -13.409  -1.072  1.00  0.00     0.019 A 
HETATM   15  C   UNL     1      40.997 -14.512  -1.736  1.00  0.00     0.011 A 
HETATM   16 BR   UNL     1      40.327 -14.322  -3.493  1.00  0.00    -0.051 Br
HETATM   17  C   UNL     1      40.970 -15.757  -1.115  1.00  0.00     0.019 A 
HETATM   18  C   UNL     1      41.476 -15.901   0.180  1.00  0.00     0.009 A 
ENDBRANCH   4  12
BRANCH   3  19
HETATM   19  C   UNL     1      42.499 -13.447   4.315  1.00  0.00     0.266 C 
HETATM   20  O   UNL     1      43.489 -13.898   4.876  1.00  0.00    -0.265 OA
BRANCH  19  21
HETATM   21  O   UNL     1      42.029 -12.178   4.467  1.00  0.00    -0.326 OA
HETATM   22  C   UNL     1      41.277 -11.691   3.354  1.00  0.00     0.213 C 
ENDBRANCH  19  21
ENDBRANCH   3  19
BRANCH   2  23
HETATM   23  O   UNL     1      39.589 -15.564   3.281  1.00  0.00    -0.389 OA
HETATM   24  H   UNL     1      39.862 -15.397   2.364  1.00  0.00     0.210 HD
ENDBRANCH   2  23
BRANCH  10  25
HETATM   25  O   UNL     1      44.659 -17.045   1.078  1.00  0.00    -0.343 OA
HETATM   26  H   UNL     1      44.234 -16.401   0.486  1.00  0.00     0.219 HD
ENDBRANCH  10  25
TORSDOF 5
ENDMDL
MODEL 9
REMARK VINA RESULT:      -6.8      5.113      7.110
REMARK  5 active torsions:
REMARK  status: ('A' for Active; 'I' for Inactive)
REMARK    1  A    between atoms: C_2  and  O_3 
REMARK    2  A    between atoms: C_4  and  C_5 
REMARK    3  A    between atoms: C_5  and  O_6 
REMARK    4  A    between atoms: C_9  and  C_10 
REMARK    5  A    between atoms: C_22  and  O_23 
ROOT
HETATM    1  C   UNL     1      41.008 -10.565   0.521  1.00  0.00     0.047 C 
HETATM    2  C   UNL     1      41.255 -11.990  -0.003  1.00  0.00     0.073 C 
HETATM    3  C   UNL     1      40.169 -12.998   0.503  1.00  0.00     0.133 C 
HETATM    4  C   UNL     1      40.162 -14.413  -0.148  1.00  0.00     0.074 C 
HETATM    5  C   UNL     1      40.731 -14.406  -1.522  1.00  0.00     0.030 A 
HETATM    6  C   UNL     1      41.299 -13.303  -2.121  1.00  0.00     0.042 A 
HETATM    7  N   UNL     1      41.659 -13.678  -3.386  1.00  0.00    -0.279 N 
HETATM    8  H   UNL     1      42.089 -13.119  -4.116  1.00  0.00     0.189 HD
HETATM    9  N   UNL     1      41.354 -14.965  -3.655  1.00  0.00    -0.149 NA
HETATM   10  C   UNL     1      40.775 -15.369  -2.533  1.00  0.00     0.190 A 
HETATM   11  C   UNL     1      41.428 -11.941  -1.549  1.00  0.00     0.097 C 
ENDROOT
BRANCH   4  12
HETATM   12  C   UNL     1      40.905 -15.460   0.681  1.00  0.00    -0.048 A 
HETATM   13  C   UNL     1      40.231 -16.021   1.784  1.00  0.00     0.009 A 
HETATM   14  C   UNL     1      40.843 -16.977   2.599  1.00  0.00     0.019 A 
HETATM   15  C   UNL     1      42.147 -17.379   2.331  1.00  0.00     0.011 A 
HETATM   16 BR   UNL     1      42.978 -18.674   3.427  1.00  0.00    -0.051 Br
HETATM   17  C   UNL     1      42.839 -16.836   1.252  1.00  0.00     0.019 A 
HETATM   18  C   UNL     1      42.222 -15.886   0.434  1.00  0.00     0.009 A 
ENDBRANCH   4  12
BRANCH   3  19
HETATM   19  C   UNL     1      38.785 -12.417   0.300  1.00  0.00     0.266 C 
HETATM   20  O   UNL     1      38.307 -12.112  -0.784  1.00  0.00    -0.265 OA
BRANCH  19  21
HETATM   21  O   UNL     1      38.152 -12.279   1.498  1.00  0.00    -0.326 OA
HETATM   22  C   UNL     1      37.397 -11.073   1.629  1.00  0.00     0.213 C 
ENDBRANCH  19  21
ENDBRANCH   3  19
BRANCH   2  23
HETATM   23  O   UNL     1      42.519 -12.359   0.587  1.00  0.00    -0.389 OA
HETATM   24  H   UNL     1      42.348 -13.016   1.281  1.00  0.00     0.210 HD
ENDBRANCH   2  23
BRANCH  10  25
HETATM   25  O   UNL     1      40.323 -16.618  -2.541  1.00  0.00    -0.343 OA
HETATM   26  H   UNL     1      39.416 -16.547  -2.885  1.00  0.00     0.219 HD
ENDBRANCH  10  25
TORSDOF 5
ENDMDL
MODEL 10
REMARK VINA RESULT:      -6.7      4.173      5.961
REMARK  5 active torsions:
REMARK  status: ('A' for Active; 'I' for Inactive)
REMARK    1  A    between atoms: C_2  and  O_3 
REMARK    2  A    between atoms: C_4  and  C_5 
REMARK    3  A    between atoms: C_5  and  O_6 
REMARK    4  A    between atoms: C_9  and  C_10 
REMARK    5  A    between atoms: C_22  and  O_23 
ROOT
HETATM    1  C   UNL     1      40.931 -10.648   1.448  1.00  0.00     0.047 C 
HETATM    2  C   UNL     1      41.241 -12.148   1.583  1.00  0.00     0.073 C 
HETATM    3  C   UNL     1      40.225 -12.875   2.526  1.00  0.00     0.133 C 
HETATM    4  C   UNL     1      40.278 -14.432   2.554  1.00  0.00     0.074 C 
HETATM    5  C   UNL     1      40.812 -15.003   1.288  1.00  0.00     0.030 A 
HETATM    6  C   UNL     1      41.304 -14.250   0.245  1.00  0.00     0.042 A 
HETATM    7  N   UNL     1      41.652 -15.124  -0.747  1.00  0.00    -0.279 N 
HETATM    8  H   UNL     1      42.033 -14.923  -1.667  1.00  0.00     0.189 HD
HETATM    9  N   UNL     1      41.411 -16.411  -0.417  1.00  0.00    -0.149 NA
HETATM   10  C   UNL     1      40.883 -16.307   0.795  1.00  0.00     0.190 A 
HETATM   11  C   UNL     1      41.373 -12.770   0.163  1.00  0.00     0.097 C 
ENDROOT
BRANCH   4  12
HETATM   12  C   UNL     1      41.098 -14.984   3.720  1.00  0.00    -0.048 A 
HETATM   13  C   UNL     1      40.435 -15.192   4.946  1.00  0.00     0.009 A 
HETATM   14  C   UNL     1      41.114 -15.684   6.064  1.00  0.00     0.019 A 
HETATM   15  C   UNL     1      42.473 -15.966   5.977  1.00  0.00     0.011 A 
HETATM   16 BR   UNL     1      43.395 -16.635   7.484  1.00  0.00    -0.051 Br
HETATM   17  C   UNL     1      43.155 -15.763   4.781  1.00  0.00     0.019 A 
HETATM   18  C   UNL     1      42.472 -15.278   3.662  1.00  0.00     0.009 A 
ENDBRANCH   4  12
BRANCH   3  19
HETATM   19  C   UNL     1      38.807 -12.494   2.155  1.00  0.00     0.266 C 
HETATM   20  O   UNL     1      38.173 -12.975   1.226  1.00  0.00    -0.265 OA
BRANCH  19  21
HETATM   21  O   UNL     1      38.340 -11.535   3.002  1.00  0.00    -0.326 OA
HETATM   22  C   UNL     1      38.795 -11.667   4.350  1.00  0.00     0.213 C 
ENDBRANCH  19  21
ENDBRANCH   3  19
BRANCH   2  23
HETATM   23  O   UNL     1      42.538 -12.175   2.215  1.00  0.00    -0.389 OA
HETATM   24  H   UNL     1      43.213 -12.096   1.522  1.00  0.00     0.210 HD
ENDBRANCH   2  23
BRANCH  10  25
HETATM   25  O   UNL     1      40.499 -17.451   1.350  1.00  0.00    -0.343 OA
HETATM   26  H   UNL     1      39.745 -17.209   1.914  1.00  0.00     0.219 HD
ENDBRANCH  10  25
TORSDOF 5
ENDMDL
