MODEL 1
REMARK VINA RESULT:      -7.7      0.000      0.000
REMARK  6 active torsions:
REMARK  status: ('A' for Active; 'I' for Inactive)
REMARK    1  A    between atoms: C_2  and  N_3 
REMARK    2  A    between atoms: C_4  and  S_5 
REMARK    3  A    between atoms: S_5  and  C_6 
REMARK    4  A    between atoms: C_6  and  C_7 
REMARK       I    between atoms: C_7  and  N_8 
REMARK    5  A    between atoms: N_8  and  C_9 
REMARK    6  A    between atoms: C_23  and  C_24 
ROOT
HETATM    1  C   UNL     1      43.020 -14.715   3.649  1.00  0.00     0.231 C 
HETATM    2  N   UNL     1      41.774 -14.861   3.059  1.00  0.00    -0.325 N 
HETATM    3  O   UNL     1      43.931 -14.022   3.200  1.00  0.00    -0.272 OA
HETATM    4  H   UNL     1      41.000 -14.934   3.722  1.00  0.00     0.169 HD
ENDROOT
BRANCH   2   5
HETATM    5  C   UNL     1      41.450 -14.297   1.805  1.00  0.00     0.054 A 
HETATM    6  C   UNL     1      40.967 -12.965   1.647  1.00  0.00     0.040 A 
HETATM    7 BR   UNL     1      40.893 -11.724   3.094  1.00  0.00    -0.049 Br
HETATM    8  C   UNL     1      40.662 -12.450   0.378  1.00  0.00     0.053 A 
HETATM    9  C   UNL     1      40.866 -13.284  -0.693  1.00  0.00     0.064 A 
HETATM   10  C   UNL     1      41.370 -14.573  -0.547  1.00  0.00     0.065 A 
HETATM   11  N   UNL     1      40.661 -13.054  -2.049  1.00  0.00    -0.306 N 
HETATM   12  N   UNL     1      41.463 -15.142  -1.814  1.00  0.00    -0.306 N 
HETATM   13  C   UNL     1      41.691 -15.102   0.680  1.00  0.00     0.063 A 
HETATM   14  C   UNL     1      41.023 -14.206  -2.761  1.00  0.00     0.325 A 
HETATM   15  H   UNL     1      41.782 -16.068  -2.045  1.00  0.00     0.170 HD
HETATM   16  O   UNL     1      40.968 -14.364  -3.967  1.00  0.00    -0.247 OA
HETATM   17  H   UNL     1      40.308 -12.217  -2.482  1.00  0.00     0.170 HD
ENDBRANCH   2   5
BRANCH   1  18
HETATM   18  C   UNL     1      43.207 -15.525   4.920  1.00  0.00     0.185 C 
BRANCH  18  19
HETATM   19  S   UNL     1      42.107 -16.972   5.003  1.00  0.00    -0.081 SA
BRANCH  19  20
HETATM   20  C   UNL     1      43.254 -18.211   4.654  1.00  0.00     0.192 A 
HETATM   21  N   UNL     1      43.530 -18.697   3.409  1.00  0.00    -0.311 N 
HETATM   22  C   UNL     1      44.255 -19.844   3.628  1.00  0.00     0.135 A 
HETATM   23  N   UNL     1      44.467 -19.981   4.922  1.00  0.00    -0.134 NA
HETATM   24  N   UNL     1      43.841 -18.947   5.567  1.00  0.00    -0.123 NA
BRANCH  21  25
HETATM   25  C   UNL     1      43.123 -18.163   2.129  1.00  0.00     0.128 C 
HETATM   26  C   UNL     1      44.250 -17.450   1.403  1.00  0.00     0.027 C 
ENDBRANCH  21  25
BRANCH  22  27
HETATM   27  C   UNL     1      44.713 -20.854   2.584  1.00  0.00     0.057 A 
HETATM   28  C   UNL     1      44.490 -22.326   2.857  1.00  0.00     0.013 A 
HETATM   29  C   UNL     1      43.636 -21.633   1.853  1.00  0.00     0.013 A 
ENDBRANCH  22  27
ENDBRANCH  19  20
ENDBRANCH  18  19
ENDBRANCH   1  18
TORSDOF 6
ENDMDL
MODEL 2
REMARK VINA RESULT:      -7.4      2.863      7.326
REMARK  6 active torsions:
REMARK  status: ('A' for Active; 'I' for Inactive)
REMARK    1  A    between atoms: C_2  and  N_3 
REMARK    2  A    between atoms: C_4  and  S_5 
REMARK    3  A    between atoms: S_5  and  C_6 
REMARK    4  A    between atoms: C_6  and  C_7 
REMARK       I    between atoms: C_7  and  N_8 
REMARK    5  A    between atoms: N_8  and  C_9 
REMARK    6  A    between atoms: C_23  and  C_24 
ROOT
HETATM    1  C   UNL     1      41.763 -15.675   4.137  1.00  0.00     0.231 C 
HETATM    2  N   UNL     1      43.096 -16.018   3.972  1.00  0.00    -0.325 N 
HETATM    3  O   UNL     1      40.884 -16.444   4.518  1.00  0.00    -0.272 OA
HETATM    4  H   UNL     1      43.756 -15.280   4.223  1.00  0.00     0.169 HD
ENDROOT
BRANCH   2   5
HETATM    5  C   UNL     1      43.572 -17.338   4.133  1.00  0.00     0.054 A 
HETATM    6  C   UNL     1      44.104 -17.835   5.358  1.00  0.00     0.040 A 
HETATM    7 BR   UNL     1      44.048 -16.833   6.980  1.00  0.00    -0.049 Br
HETATM    8  C   UNL     1      44.561 -19.158   5.468  1.00  0.00     0.053 A 
HETATM    9  C   UNL     1      44.456 -19.943   4.347  1.00  0.00     0.064 A 
HETATM   10  C   UNL     1      43.906 -19.473   3.157  1.00  0.00     0.065 A 
HETATM   11  N   UNL     1      44.817 -21.272   4.156  1.00  0.00    -0.306 N 
HETATM   12  N   UNL     1      43.940 -20.510   2.231  1.00  0.00    -0.306 N 
HETATM   13  C   UNL     1      43.437 -18.188   3.022  1.00  0.00     0.063 A 
HETATM   14  C   UNL     1      44.506 -21.639   2.839  1.00  0.00     0.325 A 
HETATM   15  H   UNL     1      43.626 -20.485   1.274  1.00  0.00     0.170 HD
HETATM   16  O   UNL     1      44.691 -22.727   2.324  1.00  0.00    -0.247 OA
HETATM   17  H   UNL     1      45.237 -21.895   4.826  1.00  0.00     0.170 HD
ENDBRANCH   2   5
BRANCH   1  18
HETATM   18  C   UNL     1      41.440 -14.237   3.770  1.00  0.00     0.185 C 
BRANCH  18  19
HETATM   19  S   UNL     1      42.536 -13.575   2.478  1.00  0.00    -0.081 SA
BRANCH  19  20
HETATM   20  C   UNL     1      41.453 -13.638   1.138  1.00  0.00     0.192 A 
HETATM   21  N   UNL     1      41.362 -14.670   0.249  1.00  0.00    -0.311 N 
HETATM   22  C   UNL     1      40.614 -14.178  -0.793  1.00  0.00     0.135 A 
HETATM   23  N   UNL     1      40.214 -12.957  -0.498  1.00  0.00    -0.134 NA
HETATM   24  N   UNL     1      40.738 -12.620   0.721  1.00  0.00    -0.123 NA
BRANCH  21  25
HETATM   25  C   UNL     1      41.954 -15.986   0.343  1.00  0.00     0.128 C 
HETATM   26  C   UNL     1      40.971 -17.040   0.826  1.00  0.00     0.027 C 
ENDBRANCH  21  25
BRANCH  22  27
HETATM   27  C   UNL     1      40.314 -14.870  -2.116  1.00  0.00     0.057 A 
HETATM   28  C   UNL     1      40.187 -14.022  -3.362  1.00  0.00     0.013 A 
HETATM   29  C   UNL     1      41.405 -14.856  -3.169  1.00  0.00     0.013 A 
ENDBRANCH  22  27
ENDBRANCH  19  20
ENDBRANCH  18  19
ENDBRANCH   1  18
TORSDOF 6
ENDMDL
MODEL 3
REMARK VINA RESULT:      -7.4      3.372      6.815
REMARK  6 active torsions:
REMARK  status: ('A' for Active; 'I' for Inactive)
REMARK    1  A    between atoms: C_2  and  N_3 
REMARK    2  A    between atoms: C_4  and  S_5 
REMARK    3  A    between atoms: S_5  and  C_6 
REMARK    4  A    between atoms: C_6  and  C_7 
REMARK       I    between atoms: C_7  and  N_8 
REMARK    5  A    between atoms: N_8  and  C_9 
REMARK    6  A    between atoms: C_23  and  C_24 
ROOT
HETATM    1  C   UNL     1      41.754 -16.347   5.670  1.00  0.00     0.231 C 
HETATM    2  N   UNL     1      43.022 -16.574   5.156  1.00  0.00    -0.325 N 
HETATM    3  O   UNL     1      40.941 -17.227   5.945  1.00  0.00    -0.272 OA
HETATM    4  H   UNL     1      43.738 -15.931   5.500  1.00  0.00     0.169 HD
ENDROOT
BRANCH   2   5
HETATM    5  C   UNL     1      43.482 -17.861   4.798  1.00  0.00     0.054 A 
HETATM    6  C   UNL     1      44.171 -18.725   5.698  1.00  0.00     0.040 A 
HETATM    7 BR   UNL     1      44.373 -18.323   7.551  1.00  0.00    -0.049 Br
HETATM    8  C   UNL     1      44.606 -19.997   5.293  1.00  0.00     0.053 A 
HETATM    9  C   UNL     1      44.322 -20.365   4.001  1.00  0.00     0.064 A 
HETATM   10  C   UNL     1      43.620 -19.538   3.128  1.00  0.00     0.065 A 
HETATM   11  N   UNL     1      44.619 -21.545   3.329  1.00  0.00    -0.306 N 
HETATM   12  N   UNL     1      43.496 -20.206   1.914  1.00  0.00    -0.306 N 
HETATM   13  C   UNL     1      43.169 -18.294   3.499  1.00  0.00     0.063 A 
HETATM   14  C   UNL     1      44.114 -21.459   2.023  1.00  0.00     0.325 A 
HETATM   15  H   UNL     1      43.048 -19.871   1.077  1.00  0.00     0.170 HD
HETATM   16  O   UNL     1      44.197 -22.308   1.154  1.00  0.00    -0.247 OA
HETATM   17  H   UNL     1      45.115 -22.346   3.685  1.00  0.00     0.170 HD
ENDBRANCH   2   5
BRANCH   1  18
HETATM   18  C   UNL     1      41.407 -14.879   5.845  1.00  0.00     0.185 C 
BRANCH  18  19
HETATM   19  S   UNL     1      39.993 -14.360   4.826  1.00  0.00    -0.081 SA
BRANCH  19  20
HETATM   20  C   UNL     1      40.462 -15.065   3.324  1.00  0.00     0.192 A 
HETATM   21  N   UNL     1      41.331 -14.507   2.431  1.00  0.00    -0.311 N 
HETATM   22  C   UNL     1      41.179 -15.242   1.280  1.00  0.00     0.135 A 
HETATM   23  N   UNL     1      40.334 -16.228   1.505  1.00  0.00    -0.134 NA
HETATM   24  N   UNL     1      39.888 -16.120   2.795  1.00  0.00    -0.123 NA
BRANCH  21  25
HETATM   25  C   UNL     1      42.197 -13.365   2.620  1.00  0.00     0.128 C 
HETATM   26  C   UNL     1      43.542 -13.740   3.221  1.00  0.00     0.027 C 
ENDBRANCH  21  25
BRANCH  22  27
HETATM   27  C   UNL     1      41.817 -14.967  -0.076  1.00  0.00     0.057 A 
HETATM   28  C   UNL     1      41.042 -15.326  -1.324  1.00  0.00     0.013 A 
HETATM   29  C   UNL     1      41.180 -13.894  -0.938  1.00  0.00     0.013 A 
ENDBRANCH  22  27
ENDBRANCH  19  20
ENDBRANCH  18  19
ENDBRANCH   1  18
TORSDOF 6
ENDMDL
MODEL 4
REMARK VINA RESULT:      -7.4      2.940      7.215
REMARK  6 active torsions:
REMARK  status: ('A' for Active; 'I' for Inactive)
REMARK    1  A    between atoms: C_2  and  N_3 
REMARK    2  A    between atoms: C_4  and  S_5 
REMARK    3  A    between atoms: S_5  and  C_6 
REMARK    4  A    between atoms: C_6  and  C_7 
REMARK       I    between atoms: C_7  and  N_8 
REMARK    5  A    between atoms: N_8  and  C_9 
REMARK    6  A    between atoms: C_23  and  C_24 
ROOT
HETATM    1  C   UNL     1      41.603 -15.753   4.371  1.00  0.00     0.231 C 
HETATM    2  N   UNL     1      42.846 -16.078   3.850  1.00  0.00    -0.325 N 
HETATM    3  O   UNL     1      40.916 -16.500   5.065  1.00  0.00    -0.272 OA
HETATM    4  H   UNL     1      43.509 -15.302   3.825  1.00  0.00     0.169 HD
ENDROOT
BRANCH   2   5
HETATM    5  C   UNL     1      43.418 -17.363   3.983  1.00  0.00     0.054 A 
HETATM    6  C   UNL     1      44.128 -17.787   5.144  1.00  0.00     0.040 A 
HETATM    7 BR   UNL     1      44.213 -16.737   6.734  1.00  0.00    -0.049 Br
HETATM    8  C   UNL     1      44.676 -19.077   5.228  1.00  0.00     0.053 A 
HETATM    9  C   UNL     1      44.481 -19.903   4.150  1.00  0.00     0.064 A 
HETATM   10  C   UNL     1      43.760 -19.505   3.027  1.00  0.00     0.065 A 
HETATM   11  N   UNL     1      44.897 -21.215   3.949  1.00  0.00    -0.306 N 
HETATM   12  N   UNL     1      43.742 -20.568   2.131  1.00  0.00    -0.306 N 
HETATM   13  C   UNL     1      43.199 -18.255   2.920  1.00  0.00     0.063 A 
HETATM   14  C   UNL     1      44.448 -21.642   2.691  1.00  0.00     0.325 A 
HETATM   15  H   UNL     1      43.310 -20.593   1.222  1.00  0.00     0.170 HD
HETATM   16  O   UNL     1      44.635 -22.734   2.185  1.00  0.00    -0.247 OA
HETATM   17  H   UNL     1      45.435 -21.790   4.576  1.00  0.00     0.170 HD
ENDBRANCH   2   5
BRANCH   1  18
HETATM   18  C   UNL     1      41.109 -14.369   3.986  1.00  0.00     0.185 C 
BRANCH  18  19
HETATM   19  S   UNL     1      39.682 -14.417   2.858  1.00  0.00    -0.081 SA
BRANCH  19  20
HETATM   20  C   UNL     1      40.506 -14.779   1.387  1.00  0.00     0.192 A 
HETATM   21  N   UNL     1      40.570 -13.957   0.299  1.00  0.00    -0.311 N 
HETATM   22  C   UNL     1      41.048 -14.749  -0.717  1.00  0.00     0.135 A 
HETATM   23  N   UNL     1      41.331 -15.944  -0.238  1.00  0.00    -0.134 NA
HETATM   24  N   UNL     1      40.995 -15.959   1.090  1.00  0.00    -0.123 NA
BRANCH  21  25
HETATM   25  C   UNL     1      40.182 -12.568   0.203  1.00  0.00     0.128 C 
HETATM   26  C   UNL     1      38.742 -12.388  -0.245  1.00  0.00     0.027 C 
ENDBRANCH  21  25
BRANCH  22  27
HETATM   27  C   UNL     1      41.193 -14.370  -2.185  1.00  0.00     0.057 A 
HETATM   28  C   UNL     1      41.125 -15.469  -3.224  1.00  0.00     0.013 A 
HETATM   29  C   UNL     1      39.972 -14.539  -3.069  1.00  0.00     0.013 A 
ENDBRANCH  22  27
ENDBRANCH  19  20
ENDBRANCH  18  19
ENDBRANCH   1  18
TORSDOF 6
ENDMDL
MODEL 5
REMARK VINA RESULT:      -7.4      1.841      2.563
REMARK  6 active torsions:
REMARK  status: ('A' for Active; 'I' for Inactive)
REMARK    1  A    between atoms: C_2  and  N_3 
REMARK    2  A    between atoms: C_4  and  S_5 
REMARK    3  A    between atoms: S_5  and  C_6 
REMARK    4  A    between atoms: C_6  and  C_7 
REMARK       I    between atoms: C_7  and  N_8 
REMARK    5  A    between atoms: N_8  and  C_9 
REMARK    6  A    between atoms: C_23  and  C_24 
ROOT
HETATM    1  C   UNL     1      41.972 -14.873   2.006  1.00  0.00     0.231 C 
HETATM    2  N   UNL     1      42.461 -14.947   0.711  1.00  0.00    -0.325 N 
HETATM    3  O   UNL     1      40.795 -14.673   2.300  1.00  0.00    -0.272 OA
HETATM    4  H   UNL     1      43.207 -15.633   0.581  1.00  0.00     0.169 HD
ENDROOT
BRANCH   2   5
HETATM    5  C   UNL     1      41.660 -14.698  -0.425  1.00  0.00     0.054 A 
HETATM    6  C   UNL     1      41.341 -13.388  -0.887  1.00  0.00     0.040 A 
HETATM    7 BR   UNL     1      42.128 -11.819  -0.140  1.00  0.00    -0.049 Br
HETATM    8  C   UNL     1      40.542 -13.194  -2.024  1.00  0.00     0.053 A 
HETATM    9  C   UNL     1      40.101 -14.322  -2.670  1.00  0.00     0.064 A 
HETATM   10  C   UNL     1      40.437 -15.604  -2.243  1.00  0.00     0.065 A 
HETATM   11  N   UNL     1      39.309 -14.443  -3.806  1.00  0.00    -0.306 N 
HETATM   12  N   UNL     1      39.841 -16.514  -3.110  1.00  0.00    -0.306 N 
HETATM   13  C   UNL     1      41.229 -15.827  -1.141  1.00  0.00     0.063 A 
HETATM   14  C   UNL     1      39.133 -15.804  -4.091  1.00  0.00     0.325 A 
HETATM   15  H   UNL     1      39.886 -17.518  -3.066  1.00  0.00     0.170 HD
HETATM   16  O   UNL     1      38.492 -16.279  -5.011  1.00  0.00    -0.247 OA
HETATM   17  H   UNL     1      38.908 -13.700  -4.355  1.00  0.00     0.170 HD
ENDBRANCH   2   5
BRANCH   1  18
HETATM   18  C   UNL     1      43.033 -15.027   3.083  1.00  0.00     0.185 C 
BRANCH  18  19
HETATM   19  S   UNL     1      42.558 -16.215   4.376  1.00  0.00    -0.081 SA
BRANCH  19  20
HETATM   20  C   UNL     1      42.799 -17.683   3.505  1.00  0.00     0.192 A 
HETATM   21  N   UNL     1      43.699 -18.655   3.836  1.00  0.00    -0.311 N 
HETATM   22  C   UNL     1      43.761 -19.472   2.732  1.00  0.00     0.135 A 
HETATM   23  N   UNL     1      42.888 -19.057   1.837  1.00  0.00    -0.134 NA
HETATM   24  N   UNL     1      42.277 -17.933   2.328  1.00  0.00    -0.123 NA
BRANCH  21  25
HETATM   25  C   UNL     1      44.463 -18.789   5.056  1.00  0.00     0.128 C 
HETATM   26  C   UNL     1      43.717 -19.554   6.135  1.00  0.00     0.027 C 
ENDBRANCH  21  25
BRANCH  22  27
HETATM   27  C   UNL     1      44.709 -20.643   2.510  1.00  0.00     0.057 A 
HETATM   28  C   UNL     1      44.469 -21.922   3.283  1.00  0.00     0.013 A 
HETATM   29  C   UNL     1      44.143 -21.875   1.830  1.00  0.00     0.013 A 
ENDBRANCH  22  27
ENDBRANCH  19  20
ENDBRANCH  18  19
ENDBRANCH   1  18
TORSDOF 6
ENDMDL
MODEL 6
REMARK VINA RESULT:      -7.3      2.273      2.438
REMARK  6 active torsions:
REMARK  status: ('A' for Active; 'I' for Inactive)
REMARK    1  A    between atoms: C_2  and  N_3 
REMARK    2  A    between atoms: C_4  and  S_5 
REMARK    3  A    between atoms: S_5  and  C_6 
REMARK    4  A    between atoms: C_6  and  C_7 
REMARK       I    between atoms: C_7  and  N_8 
REMARK    5  A    between atoms: N_8  and  C_9 
REMARK    6  A    between atoms: C_23  and  C_24 
ROOT
HETATM    1  C   UNL     1      42.928 -15.193   5.124  1.00  0.00     0.231 C 
HETATM    2  N   UNL     1      41.544 -15.282   5.137  1.00  0.00    -0.325 N 
HETATM    3  O   UNL     1      43.574 -14.428   4.411  1.00  0.00    -0.272 OA
HETATM    4  H   UNL     1      41.142 -15.458   6.060  1.00  0.00     0.169 HD
ENDROOT
BRANCH   2   5
HETATM    5  C   UNL     1      40.722 -14.558   4.244  1.00  0.00     0.054 A 
HETATM    6  C   UNL     1      40.299 -13.218   4.481  1.00  0.00     0.040 A 
HETATM    7 BR   UNL     1      40.959 -12.177   5.936  1.00  0.00    -0.049 Br
HETATM    8  C   UNL     1      39.484 -12.541   3.560  1.00  0.00     0.053 A 
HETATM    9  C   UNL     1      39.133 -13.228   2.424  1.00  0.00     0.064 A 
HETATM   10  C   UNL     1      39.572 -14.525   2.172  1.00  0.00     0.065 A 
HETATM   11  N   UNL     1      38.350 -12.824   1.348  1.00  0.00    -0.306 N 
HETATM   12  N   UNL     1      39.049 -14.923   0.946  1.00  0.00    -0.306 N 
HETATM   13  C   UNL     1      40.381 -15.209   3.047  1.00  0.00     0.063 A 
HETATM   14  C   UNL     1      38.284 -13.872   0.420  1.00  0.00     0.325 A 
HETATM   15  H   UNL     1      39.174 -15.811   0.488  1.00  0.00     0.170 HD
HETATM   16  O   UNL     1      37.680 -13.871  -0.638  1.00  0.00    -0.247 OA
HETATM   17  H   UNL     1      37.890 -11.937   1.224  1.00  0.00     0.170 HD
ENDBRANCH   2   5
BRANCH   1  18
HETATM   18  C   UNL     1      43.624 -16.164   6.061  1.00  0.00     0.185 C 
BRANCH  18  19
HETATM   19  S   UNL     1      42.732 -17.741   6.233  1.00  0.00    -0.081 SA
BRANCH  19  20
HETATM   20  C   UNL     1      43.723 -18.729   5.225  1.00  0.00     0.192 A 
HETATM   21  N   UNL     1      43.569 -18.881   3.877  1.00  0.00    -0.311 N 
HETATM   22  C   UNL     1      44.356 -19.958   3.548  1.00  0.00     0.135 A 
HETATM   23  N   UNL     1      45.003 -20.365   4.622  1.00  0.00    -0.134 NA
HETATM   24  N   UNL     1      44.608 -19.585   5.677  1.00  0.00    -0.123 NA
BRANCH  21  25
HETATM   25  C   UNL     1      42.732 -18.115   2.981  1.00  0.00     0.128 C 
HETATM   26  C   UNL     1      43.527 -17.168   2.099  1.00  0.00     0.027 C 
ENDBRANCH  21  25
BRANCH  22  27
HETATM   27  C   UNL     1      44.455 -20.642   2.191  1.00  0.00     0.057 A 
HETATM   28  C   UNL     1      44.628 -22.145   2.151  1.00  0.00     0.013 A 
HETATM   29  C   UNL     1      43.311 -21.553   1.787  1.00  0.00     0.013 A 
ENDBRANCH  22  27
ENDBRANCH  19  20
ENDBRANCH  18  19
ENDBRANCH   1  18
TORSDOF 6
ENDMDL
MODEL 7
REMARK VINA RESULT:      -7.3      1.160      1.799
REMARK  6 active torsions:
REMARK  status: ('A' for Active; 'I' for Inactive)
REMARK    1  A    between atoms: C_2  and  N_3 
REMARK    2  A    between atoms: C_4  and  S_5 
REMARK    3  A    between atoms: S_5  and  C_6 
REMARK    4  A    between atoms: C_6  and  C_7 
REMARK       I    between atoms: C_7  and  N_8 
REMARK    5  A    between atoms: N_8  and  C_9 
REMARK    6  A    between atoms: C_23  and  C_24 
ROOT
HETATM    1  C   UNL     1      42.765 -14.569   3.592  1.00  0.00     0.231 C 
HETATM    2  N   UNL     1      41.552 -15.020   3.094  1.00  0.00    -0.325 N 
HETATM    3  O   UNL     1      43.490 -13.748   3.035  1.00  0.00    -0.272 OA
HETATM    4  H   UNL     1      40.840 -15.189   3.806  1.00  0.00     0.169 HD
ENDROOT
BRANCH   2   5
HETATM    5  C   UNL     1      41.063 -14.648   1.821  1.00  0.00     0.054 A 
HETATM    6  C   UNL     1      40.166 -13.560   1.614  1.00  0.00     0.040 A 
HETATM    7 BR   UNL     1      39.681 -12.353   3.009  1.00  0.00    -0.049 Br
HETATM    8  C   UNL     1      39.711 -13.229   0.328  1.00  0.00     0.053 A 
HETATM    9  C   UNL     1      40.184 -13.993  -0.710  1.00  0.00     0.064 A 
HETATM   10  C   UNL     1      41.086 -15.036  -0.517  1.00  0.00     0.065 A 
HETATM   11  N   UNL     1      39.917 -13.903  -2.072  1.00  0.00    -0.306 N 
HETATM   12  N   UNL     1      41.366 -15.595  -1.760  1.00  0.00    -0.306 N 
HETATM   13  C   UNL     1      41.561 -15.375   0.727  1.00  0.00     0.063 A 
HETATM   14  C   UNL     1      40.644 -14.899  -2.740  1.00  0.00     0.325 A 
HETATM   15  H   UNL     1      41.975 -16.372  -1.956  1.00  0.00     0.170 HD
HETATM   16  O   UNL     1      40.647 -15.117  -3.938  1.00  0.00    -0.247 OA
HETATM   17  H   UNL     1      39.308 -13.249  -2.535  1.00  0.00     0.170 HD
ENDBRANCH   2   5
BRANCH   1  18
HETATM   18  C   UNL     1      43.172 -15.206   4.910  1.00  0.00     0.185 C 
BRANCH  18  19
HETATM   19  S   UNL     1      41.970 -16.437   5.500  1.00  0.00    -0.081 SA
BRANCH  19  20
HETATM   20  C   UNL     1      42.533 -17.814   4.628  1.00  0.00     0.192 A 
HETATM   21  N   UNL     1      43.482 -18.690   5.070  1.00  0.00    -0.311 N 
HETATM   22  C   UNL     1      43.827 -19.429   3.963  1.00  0.00     0.135 A 
HETATM   23  N   UNL     1      43.065 -19.069   2.949  1.00  0.00    -0.134 NA
HETATM   24  N   UNL     1      42.246 -18.056   3.371  1.00  0.00    -0.123 NA
BRANCH  21  25
HETATM   25  C   UNL     1      44.047 -18.803   6.395  1.00  0.00     0.128 C 
HETATM   26  C   UNL     1      45.310 -17.977   6.569  1.00  0.00     0.027 C 
ENDBRANCH  21  25
BRANCH  22  27
HETATM   27  C   UNL     1      44.938 -20.465   3.861  1.00  0.00     0.057 A 
HETATM   28  C   UNL     1      44.777 -21.771   4.608  1.00  0.00     0.013 A 
HETATM   29  C   UNL     1      44.620 -21.754   3.128  1.00  0.00     0.013 A 
ENDBRANCH  22  27
ENDBRANCH  19  20
ENDBRANCH  18  19
ENDBRANCH   1  18
TORSDOF 6
ENDMDL
MODEL 8
REMARK VINA RESULT:      -7.2      2.809      7.353
REMARK  6 active torsions:
REMARK  status: ('A' for Active; 'I' for Inactive)
REMARK    1  A    between atoms: C_2  and  N_3 
REMARK    2  A    between atoms: C_4  and  S_5 
REMARK    3  A    between atoms: S_5  and  C_6 
REMARK    4  A    between atoms: C_6  and  C_7 
REMARK       I    between atoms: C_7  and  N_8 
REMARK    5  A    between atoms: N_8  and  C_9 
REMARK    6  A    between atoms: C_23  and  C_24 
ROOT
HETATM    1  C   UNL     1      41.206 -15.598   2.960  1.00  0.00     0.231 C 
HETATM    2  N   UNL     1      42.540 -15.906   2.741  1.00  0.00    -0.325 N 
HETATM    3  O   UNL     1      40.412 -16.314   3.565  1.00  0.00    -0.272 OA
HETATM    4  H   UNL     1      43.171 -15.102   2.780  1.00  0.00     0.169 HD
ENDROOT
BRANCH   2   5
HETATM    5  C   UNL     1      43.111 -17.143   3.113  1.00  0.00     0.054 A 
HETATM    6  C   UNL     1      43.669 -17.394   4.401  1.00  0.00     0.040 A 
HETATM    7 BR   UNL     1      43.527 -16.147   5.838  1.00  0.00    -0.049 Br
HETATM    8  C   UNL     1      44.221 -18.643   4.722  1.00  0.00     0.053 A 
HETATM    9  C   UNL     1      44.182 -19.606   3.744  1.00  0.00     0.064 A 
HETATM   10  C   UNL     1      43.608 -19.378   2.497  1.00  0.00     0.065 A 
HETATM   11  N   UNL     1      44.641 -20.918   3.771  1.00  0.00    -0.306 N 
HETATM   12  N   UNL     1      43.725 -20.546   1.752  1.00  0.00    -0.306 N 
HETATM   13  C   UNL     1      43.046 -18.170   2.157  1.00  0.00     0.063 A 
HETATM   14  C   UNL     1      44.368 -21.517   2.533  1.00  0.00     0.325 A 
HETATM   15  H   UNL     1      43.416 -20.701   0.806  1.00  0.00     0.170 HD
HETATM   16  O   UNL     1      44.636 -22.657   2.201  1.00  0.00    -0.247 OA
HETATM   17  H   UNL     1      45.100 -21.391   4.532  1.00  0.00     0.170 HD
ENDBRANCH   2   5
BRANCH   1  18
HETATM   18  C   UNL     1      40.763 -14.279   2.350  1.00  0.00     0.185 C 
BRANCH  18  19
HETATM   19  S   UNL     1      42.024 -13.545   1.264  1.00  0.00    -0.081 SA
BRANCH  19  20
HETATM   20  C   UNL     1      41.649 -14.378  -0.199  1.00  0.00     0.192 A 
HETATM   21  N   UNL     1      41.256 -13.784  -1.363  1.00  0.00    -0.311 N 
HETATM   22  C   UNL     1      40.784 -14.811  -2.145  1.00  0.00     0.135 A 
HETATM   23  N   UNL     1      40.967 -15.954  -1.514  1.00  0.00    -0.134 NA
HETATM   24  N   UNL     1      41.518 -15.680  -0.290  1.00  0.00    -0.123 NA
BRANCH  21  25
HETATM   25  C   UNL     1      41.280 -12.379  -1.703  1.00  0.00     0.128 C 
HETATM   26  C   UNL     1      42.629 -11.926  -2.236  1.00  0.00     0.027 C 
ENDBRANCH  21  25
BRANCH  22  27
HETATM   27  C   UNL     1      40.101 -14.693  -3.501  1.00  0.00     0.057 A 
HETATM   28  C   UNL     1      39.256 -15.850  -3.987  1.00  0.00     0.013 A 
HETATM   29  C   UNL     1      38.587 -14.607  -3.511  1.00  0.00     0.013 A 
ENDBRANCH  22  27
ENDBRANCH  19  20
ENDBRANCH  18  19
ENDBRANCH   1  18
TORSDOF 6
ENDMDL
MODEL 9
REMARK VINA RESULT:      -7.2      2.905      7.884
REMARK  6 active torsions:
REMARK  status: ('A' for Active; 'I' for Inactive)
REMARK    1  A    between atoms: C_2  and  N_3 
REMARK    2  A    between atoms: C_4  and  S_5 
REMARK    3  A    between atoms: S_5  and  C_6 
REMARK    4  A    between atoms: C_6  and  C_7 
REMARK       I    between atoms: C_7  and  N_8 
REMARK    5  A    between atoms: N_8  and  C_9 
REMARK    6  A    between atoms: C_23  and  C_24 
ROOT
HETATM    1  C   UNL     1      42.915 -13.949   2.872  1.00  0.00     0.231 C 
HETATM    2  N   UNL     1      42.309 -15.182   3.062  1.00  0.00    -0.325 N 
HETATM    3  O   UNL     1      44.035 -13.648   3.278  1.00  0.00    -0.272 OA
HETATM    4  H   UNL     1      41.740 -15.498   2.275  1.00  0.00     0.169 HD
ENDROOT
BRANCH   2   5
HETATM    5  C   UNL     1      42.888 -16.206   3.844  1.00  0.00     0.054 A 
HETATM    6  C   UNL     1      43.579 -17.321   3.286  1.00  0.00     0.040 A 
HETATM    7 BR   UNL     1      43.976 -17.453   1.425  1.00  0.00    -0.049 Br
HETATM    8  C   UNL     1      44.141 -18.311   4.107  1.00  0.00     0.053 A 
HETATM    9  C   UNL     1      44.002 -18.142   5.462  1.00  0.00     0.064 A 
HETATM   10  C   UNL     1      43.358 -17.038   6.013  1.00  0.00     0.065 A 
HETATM   11  N   UNL     1      44.449 -18.943   6.508  1.00  0.00    -0.306 N 
HETATM   12  N   UNL     1      43.397 -17.166   7.398  1.00  0.00    -0.306 N 
HETATM   13  C   UNL     1      42.810 -16.044   5.237  1.00  0.00     0.063 A 
HETATM   14  C   UNL     1      44.074 -18.350   7.722  1.00  0.00     0.325 A 
HETATM   15  H   UNL     1      43.009 -16.536   8.081  1.00  0.00     0.170 HD
HETATM   16  O   UNL     1      44.295 -18.780   8.840  1.00  0.00    -0.247 OA
HETATM   17  H   UNL     1      44.954 -19.811   6.441  1.00  0.00     0.170 HD
ENDBRANCH   2   5
BRANCH   1  18
HETATM   18  C   UNL     1      42.056 -12.942   2.126  1.00  0.00     0.185 C 
BRANCH  18  19
HETATM   19  S   UNL     1      40.377 -13.556   1.792  1.00  0.00    -0.081 SA
BRANCH  19  20
HETATM   20  C   UNL     1      40.616 -14.159   0.194  1.00  0.00     0.192 A 
HETATM   21  N   UNL     1      40.013 -13.670  -0.929  1.00  0.00    -0.311 N 
HETATM   22  C   UNL     1      40.250 -14.614  -1.900  1.00  0.00     0.135 A 
HETATM   23  N   UNL     1      41.021 -15.561  -1.402  1.00  0.00    -0.134 NA
HETATM   24  N   UNL     1      41.256 -15.270  -0.085  1.00  0.00    -0.123 NA
BRANCH  21  25
HETATM   25  C   UNL     1      39.249 -12.452  -1.076  1.00  0.00     0.128 C 
HETATM   26  C   UNL     1      37.774 -12.641  -0.767  1.00  0.00     0.027 C 
ENDBRANCH  21  25
BRANCH  22  27
HETATM   27  C   UNL     1      39.691 -14.635  -3.316  1.00  0.00     0.057 A 
HETATM   28  C   UNL     1      39.371 -15.973  -3.946  1.00  0.00     0.013 A 
HETATM   29  C   UNL     1      38.257 -15.097  -3.489  1.00  0.00     0.013 A 
ENDBRANCH  22  27
ENDBRANCH  19  20
ENDBRANCH  18  19
ENDBRANCH   1  18
TORSDOF 6
ENDMDL
MODEL 10
REMARK VINA RESULT:      -7.1      2.939      7.549
REMARK  6 active torsions:
REMARK  status: ('A' for Active; 'I' for Inactive)
REMARK    1  A    between atoms: C_2  and  N_3 
REMARK    2  A    between atoms: C_4  and  S_5 
REMARK    3  A    between atoms: S_5  and  C_6 
REMARK    4  A    between atoms: C_6  and  C_7 
REMARK       I    between atoms: C_7  and  N_8 
REMARK    5  A    between atoms: N_8  and  C_9 
REMARK    6  A    between atoms: C_23  and  C_24 
ROOT
HETATM    1  C   UNL     1      41.823 -15.712   4.419  1.00  0.00     0.231 C 
HETATM    2  N   UNL     1      43.082 -16.085   3.973  1.00  0.00    -0.325 N 
HETATM    3  O   UNL     1      40.928 -16.495   4.726  1.00  0.00    -0.272 OA
HETATM    4  H   UNL     1      43.841 -15.482   4.297  1.00  0.00     0.169 HD
ENDROOT
BRANCH   2   5
HETATM    5  C   UNL     1      43.439 -17.430   3.728  1.00  0.00     0.054 A 
HETATM    6  C   UNL     1      43.362 -18.038   2.441  1.00  0.00     0.040 A 
HETATM    7 BR   UNL     1      42.960 -17.046   0.862  1.00  0.00    -0.049 Br
HETATM    8  C   UNL     1      43.731 -19.378   2.248  1.00  0.00     0.053 A 
HETATM    9  C   UNL     1      44.180 -20.060   3.351  1.00  0.00     0.064 A 
HETATM   10  C   UNL     1      44.289 -19.462   4.604  1.00  0.00     0.065 A 
HETATM   11  N   UNL     1      44.612 -21.377   3.467  1.00  0.00    -0.306 N 
HETATM   12  N   UNL     1      44.777 -20.414   5.492  1.00  0.00    -0.306 N 
HETATM   13  C   UNL     1      43.949 -18.148   4.822  1.00  0.00     0.063 A 
HETATM   14  C   UNL     1      44.983 -21.615   4.798  1.00  0.00     0.325 A 
HETATM   15  H   UNL     1      44.957 -20.296   6.476  1.00  0.00     0.170 HD
HETATM   16  O   UNL     1      45.403 -22.660   5.260  1.00  0.00    -0.247 OA
HETATM   17  H   UNL     1      44.660 -22.072   2.740  1.00  0.00     0.170 HD
ENDBRANCH   2   5
BRANCH   1  18
HETATM   18  C   UNL     1      41.602 -14.210   4.474  1.00  0.00     0.185 C 
BRANCH  18  19
HETATM   19  S   UNL     1      39.994 -13.707   3.790  1.00  0.00    -0.081 SA
BRANCH  19  20
HETATM   20  C   UNL     1      40.449 -13.496   2.140  1.00  0.00     0.192 A 
HETATM   21  N   UNL     1      39.699 -13.874   1.064  1.00  0.00    -0.311 N 
HETATM   22  C   UNL     1      40.553 -13.796  -0.010  1.00  0.00     0.135 A 
HETATM   23  N   UNL     1      41.714 -13.319   0.395  1.00  0.00    -0.134 NA
HETATM   24  N   UNL     1      41.644 -13.124   1.749  1.00  0.00    -0.123 NA
BRANCH  21  25
HETATM   25  C   UNL     1      38.320 -14.307   1.042  1.00  0.00     0.128 C 
HETATM   26  C   UNL     1      37.353 -13.176   0.735  1.00  0.00     0.027 C 
ENDBRANCH  21  25
BRANCH  22  27
HETATM   27  C   UNL     1      40.270 -14.232  -1.442  1.00  0.00     0.057 A 
HETATM   28  C   UNL     1      41.418 -14.263  -2.427  1.00  0.00     0.013 A 
HETATM   29  C   UNL     1      40.875 -15.545  -1.900  1.00  0.00     0.013 A 
ENDBRANCH  22  27
ENDBRANCH  19  20
ENDBRANCH  18  19
ENDBRANCH   1  18
TORSDOF 6
ENDMDL
