MODEL 1
REMARK VINA RESULT:      -7.9      0.000      0.000
REMARK  5 active torsions:
REMARK  status: ('A' for Active; 'I' for Inactive)
REMARK    1  A    between atoms: C_7  and  C_8 
REMARK    2  A    between atoms: N_9  and  N_10 
REMARK       I    between atoms: N_10  and  C_11 
REMARK    3  A    between atoms: C_11  and  C_12 
REMARK    4  A    between atoms: C_12  and  O_13 
REMARK    5  A    between atoms: O_13  and  C_14 
ROOT
HETATM    1  C   UNL     1      43.543 -14.459   3.867  1.00  0.00     0.147 C 
HETATM    2  N   UNL     1      43.308 -14.602   2.596  1.00  0.00    -0.205 NA
ENDROOT
BRANCH   2   3
HETATM    3  N   UNL     1      42.420 -15.531   2.129  1.00  0.00    -0.149 NA
HETATM    4  C   UNL     1      42.798 -16.624   1.366  1.00  0.00     0.241 C 
HETATM    5  O   UNL     1      42.044 -17.002   0.466  1.00  0.00    -0.276 OA
HETATM    6  H   UNL     1      41.623 -15.096   1.665  1.00  0.00     0.158 HD
BRANCH   4   7
HETATM    7  C   UNL     1      44.081 -17.357   1.744  1.00  0.00     0.273 C 
BRANCH   7   8
HETATM    8  O   UNL     1      43.921 -18.099   2.947  1.00  0.00    -0.343 OA
BRANCH   8   9
HETATM    9  C   UNL     1      44.021 -19.461   2.854  1.00  0.00     0.069 A 
HETATM   10  C   UNL     1      44.632 -20.075   3.950  1.00  0.00     0.037 A 
HETATM   11  C   UNL     1      44.817 -21.458   3.979  1.00  0.00     0.003 A 
HETATM   12  C   UNL     1      44.393 -22.238   2.907  1.00  0.00     0.000 A 
HETATM   13  C   UNL     1      43.780 -21.634   1.811  1.00  0.00     0.003 A 
HETATM   14  C   UNL     1      43.588 -20.249   1.785  1.00  0.00     0.037 A 
ENDBRANCH   8   9
ENDBRANCH   7   8
ENDBRANCH   4   7
ENDBRANCH   2   3
BRANCH   1  15
HETATM   15  C   UNL     1      42.967 -15.181   4.986  1.00  0.00     0.017 A 
HETATM   16  C   UNL     1      41.664 -14.951   5.420  1.00  0.00     0.018 A 
HETATM   17  C   UNL     1      40.622 -14.014   4.920  1.00  0.00     0.069 C 
HETATM   18  N   UNL     1      41.433 -15.757   6.504  1.00  0.00    -0.358 N 
HETATM   19  H   UNL     1      40.571 -15.797   7.033  1.00  0.00     0.166 HD
HETATM   20  C   UNL     1      42.538 -16.523   6.778  1.00  0.00     0.043 A 
HETATM   21  C   UNL     1      43.508 -16.213   5.822  1.00  0.00     0.004 A 
HETATM   22  C   UNL     1      42.739 -17.468   7.792  1.00  0.00     0.030 A 
HETATM   23  C   UNL     1      44.725 -16.928   5.866  1.00  0.00     0.014 A 
HETATM   24  C   UNL     1      44.943 -17.873   6.874  1.00  0.00     0.001 A 
HETATM   25  C   UNL     1      43.965 -18.133   7.827  1.00  0.00     0.002 A 
ENDBRANCH   1  15
TORSDOF 5
ENDMDL
MODEL 2
REMARK VINA RESULT:      -7.9      3.307      6.435
REMARK  5 active torsions:
REMARK  status: ('A' for Active; 'I' for Inactive)
REMARK    1  A    between atoms: C_7  and  C_8 
REMARK    2  A    between atoms: N_9  and  N_10 
REMARK       I    between atoms: N_10  and  C_11 
REMARK    3  A    between atoms: C_11  and  C_12 
REMARK    4  A    between atoms: C_12  and  O_13 
REMARK    5  A    between atoms: O_13  and  C_14 
ROOT
HETATM    1  C   UNL     1      41.498 -16.984   4.535  1.00  0.00     0.147 C 
HETATM    2  N   UNL     1      41.652 -15.770   4.091  1.00  0.00    -0.205 NA
ENDROOT
BRANCH   2   3
HETATM    3  N   UNL     1      42.883 -15.275   3.761  1.00  0.00    -0.149 NA
HETATM    4  C   UNL     1      43.464 -14.197   4.409  1.00  0.00     0.241 C 
HETATM    5  O   UNL     1      44.138 -13.406   3.745  1.00  0.00    -0.276 OA
HETATM    6  H   UNL     1      42.971 -15.113   2.760  1.00  0.00     0.158 HD
BRANCH   4   7
HETATM    7  C   UNL     1      43.315 -14.102   5.924  1.00  0.00     0.273 C 
BRANCH   7   8
HETATM    8  O   UNL     1      44.512 -14.487   6.590  1.00  0.00    -0.343 OA
BRANCH   8   9
HETATM    9  C   UNL     1      45.143 -13.529   7.335  1.00  0.00     0.069 A 
HETATM   10  C   UNL     1      44.405 -13.060   8.424  1.00  0.00     0.037 A 
HETATM   11  C   UNL     1      44.920 -12.067   9.259  1.00  0.00     0.003 A 
HETATM   12  C   UNL     1      46.180 -11.533   9.006  1.00  0.00     0.000 A 
HETATM   13  C   UNL     1      46.925 -11.997   7.923  1.00  0.00     0.003 A 
HETATM   14  C   UNL     1      46.411 -12.997   7.092  1.00  0.00     0.037 A 
ENDBRANCH   8   9
ENDBRANCH   7   8
ENDBRANCH   4   7
ENDBRANCH   2   3
BRANCH   1  15
HETATM   15  C   UNL     1      42.504 -18.005   4.759  1.00  0.00     0.017 A 
HETATM   16  C   UNL     1      43.039 -18.251   6.020  1.00  0.00     0.018 A 
HETATM   17  C   UNL     1      42.764 -17.613   7.336  1.00  0.00     0.069 C 
HETATM   18  N   UNL     1      43.978 -19.241   5.894  1.00  0.00    -0.358 N 
HETATM   19  H   UNL     1      44.536 -19.620   6.648  1.00  0.00     0.166 HD
HETATM   20  C   UNL     1      44.057 -19.666   4.591  1.00  0.00     0.043 A 
HETATM   21  C   UNL     1      43.119 -18.936   3.857  1.00  0.00     0.004 A 
HETATM   22  C   UNL     1      44.880 -20.645   4.021  1.00  0.00     0.030 A 
HETATM   23  C   UNL     1      42.975 -19.243   2.487  1.00  0.00     0.014 A 
HETATM   24  C   UNL     1      43.792 -20.216   1.900  1.00  0.00     0.001 A 
HETATM   25  C   UNL     1      44.736 -20.901   2.656  1.00  0.00     0.002 A 
ENDBRANCH   1  15
TORSDOF 5
ENDMDL
MODEL 3
REMARK VINA RESULT:      -7.8      2.041      3.833
REMARK  5 active torsions:
REMARK  status: ('A' for Active; 'I' for Inactive)
REMARK    1  A    between atoms: C_7  and  C_8 
REMARK    2  A    between atoms: N_9  and  N_10 
REMARK       I    between atoms: N_10  and  C_11 
REMARK    3  A    between atoms: C_11  and  C_12 
REMARK    4  A    between atoms: C_12  and  O_13 
REMARK    5  A    between atoms: O_13  and  C_14 
ROOT
HETATM    1  C   UNL     1      43.322 -14.584   5.279  1.00  0.00     0.147 C 
HETATM    2  N   UNL     1      43.739 -15.021   6.432  1.00  0.00    -0.205 NA
ENDROOT
BRANCH   2   3
HETATM    3  N   UNL     1      43.169 -16.105   7.040  1.00  0.00    -0.149 NA
HETATM    4  C   UNL     1      43.247 -17.390   6.526  1.00  0.00     0.241 C 
HETATM    5  O   UNL     1      42.271 -18.133   6.656  1.00  0.00    -0.276 OA
HETATM    6  H   UNL     1      42.197 -15.933   7.288  1.00  0.00     0.158 HD
BRANCH   4   7
HETATM    7  C   UNL     1      44.568 -17.842   5.914  1.00  0.00     0.273 C 
BRANCH   7   8
HETATM    8  O   UNL     1      44.767 -19.241   6.080  1.00  0.00    -0.343 OA
BRANCH   8   9
HETATM    9  C   UNL     1      44.616 -20.025   4.970  1.00  0.00     0.069 A 
HETATM   10  C   UNL     1      44.769 -21.395   5.201  1.00  0.00     0.037 A 
HETATM   11  C   UNL     1      44.660 -22.310   4.153  1.00  0.00     0.003 A 
HETATM   12  C   UNL     1      44.401 -21.859   2.862  1.00  0.00     0.000 A 
HETATM   13  C   UNL     1      44.244 -20.495   2.622  1.00  0.00     0.003 A 
HETATM   14  C   UNL     1      44.346 -19.580   3.674  1.00  0.00     0.037 A 
ENDBRANCH   8   9
ENDBRANCH   7   8
ENDBRANCH   4   7
ENDBRANCH   2   3
BRANCH   1  15
HETATM   15  C   UNL     1      42.256 -15.102   4.442  1.00  0.00     0.017 A 
HETATM   16  C   UNL     1      40.913 -14.877   4.734  1.00  0.00     0.018 A 
HETATM   17  C   UNL     1      40.271 -14.133   5.851  1.00  0.00     0.069 C 
HETATM   18  N   UNL     1      40.163 -15.516   3.783  1.00  0.00    -0.358 N 
HETATM   19  H   UNL     1      39.151 -15.532   3.746  1.00  0.00     0.166 HD
HETATM   20  C   UNL     1      40.974 -16.134   2.865  1.00  0.00     0.043 A 
HETATM   21  C   UNL     1      42.296 -15.864   3.228  1.00  0.00     0.004 A 
HETATM   22  C   UNL     1      40.631 -16.898   1.742  1.00  0.00     0.030 A 
HETATM   23  C   UNL     1      43.320 -16.352   2.388  1.00  0.00     0.014 A 
HETATM   24  C   UNL     1      42.995 -17.120   1.264  1.00  0.00     0.001 A 
HETATM   25  C   UNL     1      41.669 -17.394   0.952  1.00  0.00     0.002 A 
ENDBRANCH   1  15
TORSDOF 5
ENDMDL
MODEL 4
REMARK VINA RESULT:      -7.8      2.263      4.238
REMARK  5 active torsions:
REMARK  status: ('A' for Active; 'I' for Inactive)
REMARK    1  A    between atoms: C_7  and  C_8 
REMARK    2  A    between atoms: N_9  and  N_10 
REMARK       I    between atoms: N_10  and  C_11 
REMARK    3  A    between atoms: C_11  and  C_12 
REMARK    4  A    between atoms: C_12  and  O_13 
REMARK    5  A    between atoms: O_13  and  C_14 
ROOT
HETATM    1  C   UNL     1      40.842 -16.435   6.254  1.00  0.00     0.147 C 
HETATM    2  N   UNL     1      41.897 -16.829   6.906  1.00  0.00    -0.205 NA
ENDROOT
BRANCH   2   3
HETATM    3  N   UNL     1      43.155 -16.692   6.388  1.00  0.00    -0.149 NA
HETATM    4  C   UNL     1      44.102 -17.704   6.421  1.00  0.00     0.241 C 
HETATM    5  O   UNL     1      45.284 -17.397   6.592  1.00  0.00    -0.276 OA
HETATM    6  H   UNL     1      43.609 -15.840   6.711  1.00  0.00     0.158 HD
BRANCH   4   7
HETATM    7  C   UNL     1      43.639 -19.132   6.150  1.00  0.00     0.273 C 
BRANCH   7   8
HETATM    8  O   UNL     1      44.733 -19.979   5.815  1.00  0.00    -0.343 OA
BRANCH   8   9
HETATM    9  C   UNL     1      44.629 -20.698   4.656  1.00  0.00     0.069 A 
HETATM   10  C   UNL     1      44.306 -19.939   3.528  1.00  0.00     0.037 A 
HETATM   11  C   UNL     1      44.149 -20.547   2.282  1.00  0.00     0.003 A 
HETATM   12  C   UNL     1      44.310 -21.924   2.156  1.00  0.00     0.000 A 
HETATM   13  C   UNL     1      44.634 -22.689   3.276  1.00  0.00     0.003 A 
HETATM   14  C   UNL     1      44.799 -22.078   4.522  1.00  0.00     0.037 A 
ENDBRANCH   8   9
ENDBRANCH   7   8
ENDBRANCH   4   7
ENDBRANCH   2   3
BRANCH   1  15
HETATM   15  C   UNL     1      40.760 -15.809   4.948  1.00  0.00     0.017 A 
HETATM   16  C   UNL     1      40.310 -14.502   4.782  1.00  0.00     0.018 A 
HETATM   17  C   UNL     1      39.841 -13.501   5.778  1.00  0.00     0.069 C 
HETATM   18  N   UNL     1      40.320 -14.220   3.442  1.00  0.00    -0.358 N 
HETATM   19  H   UNL     1      40.034 -13.344   3.024  1.00  0.00     0.166 HD
HETATM   20  C   UNL     1      40.784 -15.296   2.727  1.00  0.00     0.043 A 
HETATM   21  C   UNL     1      41.105 -16.299   3.645  1.00  0.00     0.004 A 
HETATM   22  C   UNL     1      40.951 -15.443   1.344  1.00  0.00     0.030 A 
HETATM   23  C   UNL     1      41.665 -17.493   3.142  1.00  0.00     0.014 A 
HETATM   24  C   UNL     1      41.835 -17.659   1.763  1.00  0.00     0.001 A 
HETATM   25  C   UNL     1      41.476 -16.649   0.877  1.00  0.00     0.002 A 
ENDBRANCH   1  15
TORSDOF 5
ENDMDL
MODEL 5
REMARK VINA RESULT:      -7.8      4.625      7.995
REMARK  5 active torsions:
REMARK  status: ('A' for Active; 'I' for Inactive)
REMARK    1  A    between atoms: C_7  and  C_8 
REMARK    2  A    between atoms: N_9  and  N_10 
REMARK       I    between atoms: N_10  and  C_11 
REMARK    3  A    between atoms: C_11  and  C_12 
REMARK    4  A    between atoms: C_12  and  O_13 
REMARK    5  A    between atoms: O_13  and  C_14 
ROOT
HETATM    1  C   UNL     1      42.732 -16.037   5.750  1.00  0.00     0.147 C 
HETATM    2  N   UNL     1      43.279 -14.894   6.045  1.00  0.00    -0.205 NA
ENDROOT
BRANCH   2   3
HETATM    3  N   UNL     1      44.605 -14.791   6.360  1.00  0.00    -0.149 NA
HETATM    4  C   UNL     1      45.158 -13.666   6.953  1.00  0.00     0.241 C 
HETATM    5  O   UNL     1      46.296 -13.327   6.621  1.00  0.00    -0.276 OA
HETATM    6  H   UNL     1      45.203 -15.047   5.577  1.00  0.00     0.158 HD
BRANCH   4   7
HETATM    7  C   UNL     1      44.363 -12.967   8.051  1.00  0.00     0.273 C 
BRANCH   7   8
HETATM    8  O   UNL     1      45.141 -12.801   9.231  1.00  0.00    -0.343 OA
BRANCH   8   9
HETATM    9  C   UNL     1      44.558 -12.124  10.268  1.00  0.00     0.069 A 
HETATM   10  C   UNL     1      44.539 -10.735  10.117  1.00  0.00     0.037 A 
HETATM   11  C   UNL     1      43.993  -9.919  11.108  1.00  0.00     0.003 A 
HETATM   12  C   UNL     1      43.463 -10.489  12.263  1.00  0.00     0.000 A 
HETATM   13  C   UNL     1      43.476 -11.874  12.420  1.00  0.00     0.003 A 
HETATM   14  C   UNL     1      44.016 -12.691  11.423  1.00  0.00     0.037 A 
ENDBRANCH   8   9
ENDBRANCH   7   8
ENDBRANCH   4   7
ENDBRANCH   2   3
BRANCH   1  15
HETATM   15  C   UNL     1      43.347 -17.350   5.686  1.00  0.00     0.017 A 
HETATM   16  C   UNL     1      43.700 -18.056   6.833  1.00  0.00     0.018 A 
HETATM   17  C   UNL     1      43.565 -17.706   8.272  1.00  0.00     0.069 C 
HETATM   18  N   UNL     1      44.281 -19.233   6.440  1.00  0.00    -0.358 N 
HETATM   19  H   UNL     1      44.645 -19.944   7.061  1.00  0.00     0.166 HD
HETATM   20  C   UNL     1      44.298 -19.328   5.071  1.00  0.00     0.043 A 
HETATM   21  C   UNL     1      43.686 -18.179   4.565  1.00  0.00     0.004 A 
HETATM   22  C   UNL     1      44.800 -20.349   4.254  1.00  0.00     0.030 A 
HETATM   23  C   UNL     1      43.532 -18.078   3.166  1.00  0.00     0.014 A 
HETATM   24  C   UNL     1      44.030 -19.088   2.334  1.00  0.00     0.001 A 
HETATM   25  C   UNL     1      44.661 -20.203   2.872  1.00  0.00     0.002 A 
ENDBRANCH   1  15
TORSDOF 5
ENDMDL
MODEL 6
REMARK VINA RESULT:      -7.5      4.294      7.761
REMARK  5 active torsions:
REMARK  status: ('A' for Active; 'I' for Inactive)
REMARK    1  A    between atoms: C_7  and  C_8 
REMARK    2  A    between atoms: N_9  and  N_10 
REMARK       I    between atoms: N_10  and  C_11 
REMARK    3  A    between atoms: C_11  and  C_12 
REMARK    4  A    between atoms: C_12  and  O_13 
REMARK    5  A    between atoms: O_13  and  C_14 
ROOT
HETATM    1  C   UNL     1      42.618 -17.152   6.648  1.00  0.00     0.147 C 
HETATM    2  N   UNL     1      43.389 -16.300   7.258  1.00  0.00    -0.205 NA
ENDROOT
BRANCH   2   3
HETATM    3  N   UNL     1      44.376 -15.622   6.597  1.00  0.00    -0.149 NA
HETATM    4  C   UNL     1      44.624 -14.271   6.786  1.00  0.00     0.241 C 
HETATM    5  O   UNL     1      44.969 -13.596   5.813  1.00  0.00    -0.276 OA
HETATM    6  H   UNL     1      44.346 -15.789   5.593  1.00  0.00     0.158 HD
BRANCH   4   7
HETATM    7  C   UNL     1      44.547 -13.716   8.204  1.00  0.00     0.273 C 
BRANCH   7   8
HETATM    8  O   UNL     1      44.945 -12.351   8.251  1.00  0.00    -0.343 OA
BRANCH   8   9
HETATM    9  C   UNL     1      44.428 -11.588   9.262  1.00  0.00     0.069 A 
HETATM   10  C   UNL     1      43.169 -11.045   8.995  1.00  0.00     0.037 A 
HETATM   11  C   UNL     1      42.531 -10.231   9.931  1.00  0.00     0.003 A 
HETATM   12  C   UNL     1      43.153  -9.949  11.144  1.00  0.00     0.000 A 
HETATM   13  C   UNL     1      44.409 -10.487  11.420  1.00  0.00     0.003 A 
HETATM   14  C   UNL     1      45.043 -11.310  10.485  1.00  0.00     0.037 A 
ENDBRANCH   8   9
ENDBRANCH   7   8
ENDBRANCH   4   7
ENDBRANCH   2   3
BRANCH   1  15
HETATM   15  C   UNL     1      42.619 -17.542   5.250  1.00  0.00     0.017 A 
HETATM   16  C   UNL     1      41.844 -16.884   4.299  1.00  0.00     0.018 A 
HETATM   17  C   UNL     1      40.908 -15.735   4.432  1.00  0.00     0.069 C 
HETATM   18  N   UNL     1      42.039 -17.505   3.094  1.00  0.00    -0.358 N 
HETATM   19  H   UNL     1      41.596 -17.246   2.222  1.00  0.00     0.166 HD
HETATM   20  C   UNL     1      42.936 -18.535   3.223  1.00  0.00     0.043 A 
HETATM   21  C   UNL     1      43.349 -18.565   4.557  1.00  0.00     0.004 A 
HETATM   22  C   UNL     1      43.414 -19.428   2.256  1.00  0.00     0.030 A 
HETATM   23  C   UNL     1      44.327 -19.514   4.921  1.00  0.00     0.014 A 
HETATM   24  C   UNL     1      44.813 -20.417   3.968  1.00  0.00     0.001 A 
HETATM   25  C   UNL     1      44.356 -20.377   2.656  1.00  0.00     0.002 A 
ENDBRANCH   1  15
TORSDOF 5
ENDMDL
MODEL 7
REMARK VINA RESULT:      -7.5      2.709      6.221
REMARK  5 active torsions:
REMARK  status: ('A' for Active; 'I' for Inactive)
REMARK    1  A    between atoms: C_7  and  C_8 
REMARK    2  A    between atoms: N_9  and  N_10 
REMARK       I    between atoms: N_10  and  C_11 
REMARK    3  A    between atoms: C_11  and  C_12 
REMARK    4  A    between atoms: C_12  and  O_13 
REMARK    5  A    between atoms: O_13  and  C_14 
ROOT
HETATM    1  C   UNL     1      43.537 -17.015   3.412  1.00  0.00     0.147 C 
HETATM    2  N   UNL     1      42.430 -16.375   3.653  1.00  0.00    -0.205 NA
ENDROOT
BRANCH   2   3
HETATM    3  N   UNL     1      41.467 -16.887   4.478  1.00  0.00    -0.149 NA
HETATM    4  C   UNL     1      40.978 -16.209   5.584  1.00  0.00     0.241 C 
HETATM    5  O   UNL     1      40.691 -16.860   6.591  1.00  0.00    -0.276 OA
HETATM    6  H   UNL     1      41.686 -17.837   4.775  1.00  0.00     0.158 HD
BRANCH   4   7
HETATM    7  C   UNL     1      40.733 -14.709   5.458  1.00  0.00     0.273 C 
BRANCH   7   8
HETATM    8  O   UNL     1      39.589 -14.434   4.658  1.00  0.00    -0.343 OA
BRANCH   8   9
HETATM    9  C   UNL     1      39.814 -13.951   3.398  1.00  0.00     0.069 A 
HETATM   10  C   UNL     1      39.362 -14.781   2.369  1.00  0.00     0.037 A 
HETATM   11  C   UNL     1      39.543 -14.422   1.033  1.00  0.00     0.003 A 
HETATM   12  C   UNL     1      40.184 -13.227   0.716  1.00  0.00     0.000 A 
HETATM   13  C   UNL     1      40.636 -12.392   1.736  1.00  0.00     0.003 A 
HETATM   14  C   UNL     1      40.447 -12.749   3.075  1.00  0.00     0.037 A 
ENDBRANCH   8   9
ENDBRANCH   7   8
ENDBRANCH   4   7
ENDBRANCH   2   3
BRANCH   1  15
HETATM   15  C   UNL     1      43.973 -18.302   3.922  1.00  0.00     0.017 A 
HETATM   16  C   UNL     1      44.446 -18.459   5.222  1.00  0.00     0.018 A 
HETATM   17  C   UNL     1      44.617 -17.472   6.322  1.00  0.00     0.069 C 
HETATM   18  N   UNL     1      44.805 -19.771   5.384  1.00  0.00    -0.358 N 
HETATM   19  H   UNL     1      45.191 -20.175   6.228  1.00  0.00     0.166 HD
HETATM   20  C   UNL     1      44.561 -20.482   4.235  1.00  0.00     0.043 A 
HETATM   21  C   UNL     1      44.004 -19.598   3.308  1.00  0.00     0.004 A 
HETATM   22  C   UNL     1      44.783 -21.838   3.961  1.00  0.00     0.030 A 
HETATM   23  C   UNL     1      43.610 -20.120   2.058  1.00  0.00     0.014 A 
HETATM   24  C   UNL     1      43.828 -21.472   1.765  1.00  0.00     0.001 A 
HETATM   25  C   UNL     1      44.413 -22.315   2.703  1.00  0.00     0.002 A 
ENDBRANCH   1  15
TORSDOF 5
ENDMDL
MODEL 8
REMARK VINA RESULT:      -7.5      1.998      4.234
REMARK  5 active torsions:
REMARK  status: ('A' for Active; 'I' for Inactive)
REMARK    1  A    between atoms: C_7  and  C_8 
REMARK    2  A    between atoms: N_9  and  N_10 
REMARK       I    between atoms: N_10  and  C_11 
REMARK    3  A    between atoms: C_11  and  C_12 
REMARK    4  A    between atoms: C_12  and  O_13 
REMARK    5  A    between atoms: O_13  and  C_14 
ROOT
HETATM    1  C   UNL     1      40.760 -16.070   5.811  1.00  0.00     0.147 C 
HETATM    2  N   UNL     1      41.655 -16.466   6.668  1.00  0.00    -0.205 NA
ENDROOT
BRANCH   2   3
HETATM    3  N   UNL     1      42.994 -16.340   6.421  1.00  0.00    -0.149 NA
HETATM    4  C   UNL     1      43.851 -17.424   6.317  1.00  0.00     0.241 C 
HETATM    5  O   UNL     1      44.997 -17.310   6.757  1.00  0.00    -0.276 OA
HETATM    6  H   UNL     1      43.433 -15.663   7.043  1.00  0.00     0.158 HD
BRANCH   4   7
HETATM    7  C   UNL     1      43.357 -18.663   5.578  1.00  0.00     0.273 C 
BRANCH   7   8
HETATM    8  O   UNL     1      44.428 -19.550   5.274  1.00  0.00    -0.343 OA
BRANCH   8   9
HETATM    9  C   UNL     1      44.344 -20.245   4.099  1.00  0.00     0.069 A 
HETATM   10  C   UNL     1      44.741 -21.582   4.186  1.00  0.00     0.037 A 
HETATM   11  C   UNL     1      44.725 -22.404   3.058  1.00  0.00     0.003 A 
HETATM   12  C   UNL     1      44.313 -21.891   1.831  1.00  0.00     0.000 A 
HETATM   13  C   UNL     1      43.912 -20.559   1.736  1.00  0.00     0.003 A 
HETATM   14  C   UNL     1      43.922 -19.739   2.868  1.00  0.00     0.037 A 
ENDBRANCH   8   9
ENDBRANCH   7   8
ENDBRANCH   4   7
ENDBRANCH   2   3
BRANCH   1  15
HETATM   15  C   UNL     1      40.955 -15.451   4.513  1.00  0.00     0.017 A 
HETATM   16  C   UNL     1      41.047 -14.071   4.360  1.00  0.00     0.018 A 
HETATM   17  C   UNL     1      40.978 -12.973   5.362  1.00  0.00     0.069 C 
HETATM   18  N   UNL     1      41.194 -13.804   3.024  1.00  0.00    -0.358 N 
HETATM   19  H   UNL     1      41.278 -12.882   2.615  1.00  0.00     0.166 HD
HETATM   20  C   UNL     1      41.224 -14.970   2.301  1.00  0.00     0.043 A 
HETATM   21  C   UNL     1      41.113 -16.026   3.208  1.00  0.00     0.004 A 
HETATM   22  C   UNL     1      41.351 -15.159   0.919  1.00  0.00     0.030 A 
HETATM   23  C   UNL     1      41.180 -17.340   2.697  1.00  0.00     0.014 A 
HETATM   24  C   UNL     1      41.303 -17.548   1.319  1.00  0.00     0.001 A 
HETATM   25  C   UNL     1      41.381 -16.471   0.443  1.00  0.00     0.002 A 
ENDBRANCH   1  15
TORSDOF 5
ENDMDL
MODEL 9
REMARK VINA RESULT:      -7.4      2.353      5.212
REMARK  5 active torsions:
REMARK  status: ('A' for Active; 'I' for Inactive)
REMARK    1  A    between atoms: C_7  and  C_8 
REMARK    2  A    between atoms: N_9  and  N_10 
REMARK       I    between atoms: N_10  and  C_11 
REMARK    3  A    between atoms: C_11  and  C_12 
REMARK    4  A    between atoms: C_12  and  O_13 
REMARK    5  A    between atoms: O_13  and  C_14 
ROOT
HETATM    1  C   UNL     1      41.507 -16.637   5.668  1.00  0.00     0.147 C 
HETATM    2  N   UNL     1      41.602 -15.340   5.726  1.00  0.00    -0.205 NA
ENDROOT
BRANCH   2   3
HETATM    3  N   UNL     1      42.813 -14.706   5.703  1.00  0.00    -0.149 NA
HETATM    4  C   UNL     1      43.145 -13.740   4.767  1.00  0.00     0.241 C 
HETATM    5  O   UNL     1      44.306 -13.699   4.352  1.00  0.00    -0.276 OA
HETATM    6  H   UNL     1      43.588 -15.365   5.750  1.00  0.00     0.158 HD
BRANCH   4   7
HETATM    7  C   UNL     1      42.079 -12.722   4.373  1.00  0.00     0.273 C 
BRANCH   7   8
HETATM    8  O   UNL     1      41.839 -12.736   2.971  1.00  0.00    -0.343 OA
BRANCH   8   9
HETATM    9  C   UNL     1      41.341 -13.894   2.439  1.00  0.00     0.069 A 
HETATM   10  C   UNL     1      42.167 -14.499   1.488  1.00  0.00     0.037 A 
HETATM   11  C   UNL     1      41.775 -15.676   0.850  1.00  0.00     0.003 A 
HETATM   12  C   UNL     1      40.547 -16.256   1.156  1.00  0.00     0.000 A 
HETATM   13  C   UNL     1      39.717 -15.661   2.104  1.00  0.00     0.003 A 
HETATM   14  C   UNL     1      40.114 -14.485   2.749  1.00  0.00     0.037 A 
ENDBRANCH   8   9
ENDBRANCH   7   8
ENDBRANCH   4   7
ENDBRANCH   2   3
BRANCH   1  15
HETATM   15  C   UNL     1      42.566 -17.623   5.569  1.00  0.00     0.017 A 
HETATM   16  C   UNL     1      43.330 -17.999   6.671  1.00  0.00     0.018 A 
HETATM   17  C   UNL     1      43.282 -17.549   8.088  1.00  0.00     0.069 C 
HETATM   18  N   UNL     1      44.258 -18.914   6.248  1.00  0.00    -0.358 N 
HETATM   19  H   UNL     1      44.956 -19.356   6.833  1.00  0.00     0.166 HD
HETATM   20  C   UNL     1      44.110 -19.164   4.906  1.00  0.00     0.043 A 
HETATM   21  C   UNL     1      43.033 -18.398   4.456  1.00  0.00     0.004 A 
HETATM   22  C   UNL     1      44.843 -20.018   4.072  1.00  0.00     0.030 A 
HETATM   23  C   UNL     1      42.649 -18.536   3.105  1.00  0.00     0.014 A 
HETATM   24  C   UNL     1      43.372 -19.382   2.256  1.00  0.00     0.001 A 
HETATM   25  C   UNL     1      44.458 -20.106   2.734  1.00  0.00     0.002 A 
ENDBRANCH   1  15
TORSDOF 5
ENDMDL
MODEL 10
REMARK VINA RESULT:      -7.4      3.019      6.027
REMARK  5 active torsions:
REMARK  status: ('A' for Active; 'I' for Inactive)
REMARK    1  A    between atoms: C_7  and  C_8 
REMARK    2  A    between atoms: N_9  and  N_10 
REMARK       I    between atoms: N_10  and  C_11 
REMARK    3  A    between atoms: C_11  and  C_12 
REMARK    4  A    between atoms: C_12  and  O_13 
REMARK    5  A    between atoms: O_13  and  C_14 
ROOT
HETATM    1  C   UNL     1      43.928 -16.991   3.994  1.00  0.00     0.147 C 
HETATM    2  N   UNL     1      42.873 -16.457   3.449  1.00  0.00    -0.205 NA
ENDROOT
BRANCH   2   3
HETATM    3  N   UNL     1      41.793 -17.212   3.082  1.00  0.00    -0.149 NA
HETATM    4  C   UNL     1      41.067 -16.982   1.924  1.00  0.00     0.241 C 
HETATM    5  O   UNL     1      39.846 -17.159   1.952  1.00  0.00    -0.276 OA
HETATM    6  H   UNL     1      41.126 -17.317   3.845  1.00  0.00     0.158 HD
BRANCH   4   7
HETATM    7  C   UNL     1      41.831 -16.616   0.656  1.00  0.00     0.273 C 
BRANCH   7   8
HETATM    8  O   UNL     1      41.594 -15.265   0.278  1.00  0.00    -0.343 OA
BRANCH   8   9
HETATM    9  C   UNL     1      40.852 -15.057  -0.853  1.00  0.00     0.069 A 
HETATM   10  C   UNL     1      39.812 -14.137  -0.704  1.00  0.00     0.037 A 
HETATM   11  C   UNL     1      38.963 -13.844  -1.773  1.00  0.00     0.003 A 
HETATM   12  C   UNL     1      39.148 -14.475  -2.999  1.00  0.00     0.000 A 
HETATM   13  C   UNL     1      40.185 -15.393  -3.157  1.00  0.00     0.003 A 
HETATM   14  C   UNL     1      41.039 -15.680  -2.089  1.00  0.00     0.037 A 
ENDBRANCH   8   9
ENDBRANCH   7   8
ENDBRANCH   4   7
ENDBRANCH   2   3
BRANCH   1  15
HETATM   15  C   UNL     1      44.180 -18.383   4.316  1.00  0.00     0.017 A 
HETATM   16  C   UNL     1      44.511 -18.794   5.605  1.00  0.00     0.018 A 
HETATM   17  C   UNL     1      44.681 -18.015   6.861  1.00  0.00     0.069 C 
HETATM   18  N   UNL     1      44.716 -20.148   5.575  1.00  0.00    -0.358 N 
HETATM   19  H   UNL     1      44.979 -20.719   6.368  1.00  0.00     0.166 HD
HETATM   20  C   UNL     1      44.507 -20.639   4.311  1.00  0.00     0.043 A 
HETATM   21  C   UNL     1      44.133 -19.563   3.502  1.00  0.00     0.004 A 
HETATM   22  C   UNL     1      44.613 -21.952   3.835  1.00  0.00     0.030 A 
HETATM   23  C   UNL     1      43.805 -19.836   2.157  1.00  0.00     0.014 A 
HETATM   24  C   UNL     1      43.908 -21.142   1.664  1.00  0.00     0.001 A 
HETATM   25  C   UNL     1      44.314 -22.182   2.492  1.00  0.00     0.002 A 
ENDBRANCH   1  15
TORSDOF 5
ENDMDL
