MODEL 1
REMARK VINA RESULT:      -8.2      0.000      0.000
REMARK  9 active torsions:
REMARK  status: ('A' for Active; 'I' for Inactive)
REMARK    1  A    between atoms: C_4  and  C_5 
REMARK    2  A    between atoms: C_5  and  N_6 
REMARK    3  A    between atoms: C_11  and  C_12 
REMARK       I    between atoms: C_12  and  N_13 
REMARK    4  A    between atoms: C_15  and  N_16 
REMARK       I    between atoms: N_16  and  C_17 
REMARK    5  A    between atoms: C_17  and  C_18 
REMARK    6  A    between atoms: C_18  and  C_19 
REMARK    7  A    between atoms: C_19  and  C_20 
REMARK    8  A    between atoms: C_20  and  S_21 
REMARK    9  A    between atoms: S_21  and  C_22 
ROOT
HETATM    1  N   UNL     1      43.401 -17.785   5.164  1.00  0.00    -0.063 N 
HETATM    2  H   UNL     1      43.442 -18.195   6.101  1.00  0.00     0.280 HD
HETATM    3  C   UNL     1      43.466 -16.273   5.374  1.00  0.00     0.282 C 
HETATM    4  C   UNL     1      42.981 -15.545   4.169  1.00  0.00     0.018 C 
HETATM    5  C   UNL     1      42.274 -16.104   3.124  1.00  0.00    -0.023 C 
HETATM    6  C   UNL     1      42.084 -15.158   2.048  1.00  0.00     0.073 C 
HETATM    7  C   UNL     1      42.390 -13.875   2.480  1.00  0.00     0.093 C 
HETATM    8  S   UNL     1      43.205 -13.878   3.976  1.00  0.00    -0.074 SA
HETATM    9  C   UNL     1      41.859 -17.551   3.149  1.00  0.00     0.068 C 
HETATM   10  C   UNL     1      42.060 -18.179   4.547  1.00  0.00     0.240 C 
ENDROOT
BRANCH   7  11
HETATM   11  N   UNL     1      42.154 -12.686   1.805  1.00  0.00    -0.320 N 
HETATM   12  C   UNL     1      40.935 -12.021   1.746  1.00  0.00     0.222 C 
HETATM   13  O   UNL     1      39.882 -12.382   2.257  1.00  0.00    -0.273 OA
HETATM   14  H   UNL     1      42.823 -12.454   1.079  1.00  0.00     0.169 HD
BRANCH  12  15
HETATM   15  C   UNL     1      41.039 -10.733   0.942  1.00  0.00     0.104 C 
BRANCH  15  16
HETATM   16  C   UNL     1      42.272 -10.674   0.041  1.00  0.00     0.020 C 
BRANCH  16  17
HETATM   17  C   UNL     1      42.078 -10.941  -1.455  1.00  0.00     0.080 C 
BRANCH  17  18
HETATM   18  S   UNL     1      42.672 -12.546  -2.101  1.00  0.00    -0.130 SA
BRANCH  18  19
HETATM   19  C   UNL     1      41.171 -13.411  -2.518  1.00  0.00     0.000 A 
HETATM   20  C   UNL     1      41.142 -14.663  -3.141  1.00  0.00     0.020 A 
HETATM   21  C   UNL     1      39.920 -15.271  -3.452  1.00  0.00     0.025 A 
HETATM   22  C   UNL     1      38.724 -14.638  -3.120  1.00  0.00     0.034 A 
HETATM   23 CL   UNL     1      37.224 -15.382  -3.511  1.00  0.00    -0.084 Cl
HETATM   24  C   UNL     1      38.738 -13.407  -2.472  1.00  0.00     0.025 A 
HETATM   25  C   UNL     1      39.959 -12.799  -2.169  1.00  0.00     0.020 A 
ENDBRANCH  18  19
ENDBRANCH  17  18
ENDBRANCH  16  17
ENDBRANCH  15  16
ENDBRANCH  12  15
ENDBRANCH   7  11
BRANCH   6  26
HETATM   26  C   UNL     1      41.545 -15.496   0.734  1.00  0.00     0.252 C 
HETATM   27  N   UNL     1      42.331 -16.309  -0.041  1.00  0.00    -0.366 N 
HETATM   28  H   UNL     1      42.998 -16.928   0.404  1.00  0.00     0.159 HD
HETATM   29  H   UNL     1      41.869 -16.680  -0.865  1.00  0.00     0.159 HD
HETATM   30  O   UNL     1      40.427 -15.162   0.365  1.00  0.00    -0.268 OA
ENDBRANCH   6  26
BRANCH   1  31
HETATM   31  C   UNL     1      44.564 -18.372   4.395  1.00  0.00     0.273 C 
BRANCH  31  32
HETATM   32  C   UNL     1      44.526 -19.859   4.177  1.00  0.00    -0.033 A 
HETATM   33  C   UNL     1      44.354 -20.417   2.902  1.00  0.00     0.009 A 
HETATM   34  C   UNL     1      44.349 -21.803   2.736  1.00  0.00     0.001 A 
HETATM   35  C   UNL     1      44.535 -22.643   3.833  1.00  0.00     0.000 A 
HETATM   36  C   UNL     1      44.724 -22.101   5.100  1.00  0.00     0.001 A 
HETATM   37  C   UNL     1      44.718 -20.718   5.273  1.00  0.00     0.009 A 
ENDBRANCH  31  32
ENDBRANCH   1  31
TORSDOF 9
ENDMDL
MODEL 2
REMARK VINA RESULT:      -8.1      5.926      8.473
REMARK  9 active torsions:
REMARK  status: ('A' for Active; 'I' for Inactive)
REMARK    1  A    between atoms: C_4  and  C_5 
REMARK    2  A    between atoms: C_5  and  N_6 
REMARK    3  A    between atoms: C_11  and  C_12 
REMARK       I    between atoms: C_12  and  N_13 
REMARK    4  A    between atoms: C_15  and  N_16 
REMARK       I    between atoms: N_16  and  C_17 
REMARK    5  A    between atoms: C_17  and  C_18 
REMARK    6  A    between atoms: C_18  and  C_19 
REMARK    7  A    between atoms: C_19  and  C_20 
REMARK    8  A    between atoms: C_20  and  S_21 
REMARK    9  A    between atoms: S_21  and  C_22 
ROOT
HETATM    1  N   UNL     1      44.170 -18.856   6.302  1.00  0.00    -0.063 N 
HETATM    2  H   UNL     1      44.407 -19.611   6.952  1.00  0.00     0.280 HD
HETATM    3  C   UNL     1      44.362 -17.561   7.089  1.00  0.00     0.282 C 
HETATM    4  C   UNL     1      43.649 -16.429   6.438  1.00  0.00     0.018 C 
HETATM    5  C   UNL     1      42.689 -16.545   5.453  1.00  0.00    -0.023 C 
HETATM    6  C   UNL     1      42.303 -15.252   4.935  1.00  0.00     0.073 C 
HETATM    7  C   UNL     1      42.770 -14.244   5.769  1.00  0.00     0.093 C 
HETATM    8  S   UNL     1      43.910 -14.820   6.896  1.00  0.00    -0.074 SA
HETATM    9  C   UNL     1      42.215 -17.894   4.983  1.00  0.00     0.068 C 
HETATM   10  C   UNL     1      42.703 -19.028   5.912  1.00  0.00     0.240 C 
ENDROOT
BRANCH   7  11
HETATM   11  N   UNL     1      42.447 -12.897   5.714  1.00  0.00    -0.320 N 
HETATM   12  C   UNL     1      41.202 -12.353   6.012  1.00  0.00     0.222 C 
HETATM   13  O   UNL     1      40.199 -12.970   6.348  1.00  0.00    -0.273 OA
HETATM   14  H   UNL     1      43.058 -12.322   5.143  1.00  0.00     0.169 HD
BRANCH  12  15
HETATM   15  C   UNL     1      41.205 -10.837   5.873  1.00  0.00     0.104 C 
BRANCH  15  16
HETATM   16  C   UNL     1      40.595 -10.114   7.073  1.00  0.00     0.020 C 
BRANCH  16  17
HETATM   17  C   UNL     1      40.874 -10.683   8.468  1.00  0.00     0.080 C 
BRANCH  17  18
HETATM   18  S   UNL     1      42.604 -10.629   9.061  1.00  0.00    -0.130 SA
BRANCH  18  19
HETATM   19  C   UNL     1      42.435 -10.502  10.831  1.00  0.00     0.000 A 
HETATM   20  C   UNL     1      41.343 -11.002  11.546  1.00  0.00     0.020 A 
HETATM   21  C   UNL     1      41.274 -10.848  12.935  1.00  0.00     0.025 A 
HETATM   22  C   UNL     1      42.311 -10.212  13.615  1.00  0.00     0.034 A 
HETATM   23 CL   UNL     1      42.222 -10.015  15.322  1.00  0.00    -0.084 Cl
HETATM   24  C   UNL     1      43.419  -9.738  12.921  1.00  0.00     0.025 A 
HETATM   25  C   UNL     1      43.481  -9.887  11.534  1.00  0.00     0.020 A 
ENDBRANCH  18  19
ENDBRANCH  17  18
ENDBRANCH  16  17
ENDBRANCH  15  16
ENDBRANCH  12  15
ENDBRANCH   7  11
BRANCH   6  26
HETATM   26  C   UNL     1      41.455 -15.049   3.764  1.00  0.00     0.252 C 
HETATM   27  N   UNL     1      40.105 -15.070   3.996  1.00  0.00    -0.366 N 
HETATM   28  H   UNL     1      39.754 -14.839   4.917  1.00  0.00     0.159 HD
HETATM   29  H   UNL     1      39.539 -14.748   3.217  1.00  0.00     0.159 HD
HETATM   30  O   UNL     1      41.901 -14.784   2.656  1.00  0.00    -0.268 OA
ENDBRANCH   6  26
BRANCH   1  31
HETATM   31  C   UNL     1      45.088 -19.021   5.112  1.00  0.00     0.273 C 
BRANCH  31  32
HETATM   32  C   UNL     1      44.773 -20.166   4.190  1.00  0.00    -0.033 A 
HETATM   33  C   UNL     1      44.358 -19.961   2.867  1.00  0.00     0.009 A 
HETATM   34  C   UNL     1      44.100 -21.051   2.034  1.00  0.00     0.001 A 
HETATM   35  C   UNL     1      44.271 -22.351   2.505  1.00  0.00     0.000 A 
HETATM   36  C   UNL     1      44.698 -22.568   3.810  1.00  0.00     0.001 A 
HETATM   37  C   UNL     1      44.947 -21.483   4.650  1.00  0.00     0.009 A 
ENDBRANCH  31  32
ENDBRANCH   1  31
TORSDOF 9
ENDMDL
MODEL 3
REMARK VINA RESULT:      -8.1      3.005      8.414
REMARK  9 active torsions:
REMARK  status: ('A' for Active; 'I' for Inactive)
REMARK    1  A    between atoms: C_4  and  C_5 
REMARK    2  A    between atoms: C_5  and  N_6 
REMARK    3  A    between atoms: C_11  and  C_12 
REMARK       I    between atoms: C_12  and  N_13 
REMARK    4  A    between atoms: C_15  and  N_16 
REMARK       I    between atoms: N_16  and  C_17 
REMARK    5  A    between atoms: C_17  and  C_18 
REMARK    6  A    between atoms: C_18  and  C_19 
REMARK    7  A    between atoms: C_19  and  C_20 
REMARK    8  A    between atoms: C_20  and  S_21 
REMARK    9  A    between atoms: S_21  and  C_22 
ROOT
HETATM    1  N   UNL     1      39.230 -11.906  -0.668  1.00  0.00    -0.063 N 
HETATM    2  H   UNL     1      38.469 -11.450  -1.179  1.00  0.00     0.280 HD
HETATM    3  C   UNL     1      38.593 -13.099   0.041  1.00  0.00     0.282 C 
HETATM    4  C   UNL     1      39.459 -13.588   1.150  1.00  0.00     0.018 C 
HETATM    5  C   UNL     1      40.526 -12.903   1.695  1.00  0.00    -0.023 C 
HETATM    6  C   UNL     1      41.242 -13.716   2.652  1.00  0.00     0.073 C 
HETATM    7  C   UNL     1      40.491 -14.836   2.984  1.00  0.00     0.093 C 
HETATM    8  S   UNL     1      39.176 -15.065   1.927  1.00  0.00    -0.074 SA
HETATM    9  C   UNL     1      40.878 -11.514   1.235  1.00  0.00     0.068 C 
HETATM   10  C   UNL     1      39.765 -10.904   0.354  1.00  0.00     0.240 C 
ENDROOT
BRANCH   7  11
HETATM   11  N   UNL     1      40.750 -15.745   4.000  1.00  0.00    -0.320 N 
HETATM   12  C   UNL     1      40.640 -15.486   5.361  1.00  0.00     0.222 C 
HETATM   13  O   UNL     1      40.321 -14.423   5.878  1.00  0.00    -0.273 OA
HETATM   14  H   UNL     1      41.332 -16.535   3.743  1.00  0.00     0.169 HD
BRANCH  12  15
HETATM   15  C   UNL     1      40.974 -16.716   6.194  1.00  0.00     0.104 C 
BRANCH  15  16
HETATM   16  C   UNL     1      42.331 -16.629   6.892  1.00  0.00     0.020 C 
BRANCH  16  17
HETATM   17  C   UNL     1      43.588 -16.845   6.041  1.00  0.00     0.080 C 
BRANCH  17  18
HETATM   18  S   UNL     1      44.666 -18.254   6.487  1.00  0.00    -0.130 SA
BRANCH  18  19
HETATM   19  C   UNL     1      44.525 -19.348   5.087  1.00  0.00     0.000 A 
HETATM   20  C   UNL     1      44.839 -20.710   5.130  1.00  0.00     0.020 A 
HETATM   21  C   UNL     1      44.719 -21.501   3.982  1.00  0.00     0.025 A 
HETATM   22  C   UNL     1      44.263 -20.936   2.793  1.00  0.00     0.034 A 
HETATM   23 CL   UNL     1      44.124 -21.906   1.380  1.00  0.00    -0.084 Cl
HETATM   24  C   UNL     1      43.917 -19.589   2.743  1.00  0.00     0.025 A 
HETATM   25  C   UNL     1      44.045 -18.800   3.889  1.00  0.00     0.020 A 
ENDBRANCH  18  19
ENDBRANCH  17  18
ENDBRANCH  16  17
ENDBRANCH  15  16
ENDBRANCH  12  15
ENDBRANCH   7  11
BRANCH   6  26
HETATM   26  C   UNL     1      42.520 -13.351   3.256  1.00  0.00     0.252 C 
HETATM   27  N   UNL     1      42.448 -12.531   4.351  1.00  0.00    -0.366 N 
HETATM   28  H   UNL     1      41.605 -12.523   4.913  1.00  0.00     0.159 HD
HETATM   29  H   UNL     1      43.319 -12.437   4.865  1.00  0.00     0.159 HD
HETATM   30  O   UNL     1      43.590 -13.810   2.881  1.00  0.00    -0.268 OA
ENDBRANCH   6  26
BRANCH   1  31
HETATM   31  C   UNL     1      40.276 -12.263  -1.701  1.00  0.00     0.273 C 
BRANCH  31  32
HETATM   32  C   UNL     1      40.096 -13.585  -2.392  1.00  0.00    -0.033 A 
HETATM   33  C   UNL     1      40.962 -14.664  -2.167  1.00  0.00     0.009 A 
HETATM   34  C   UNL     1      40.747 -15.886  -2.808  1.00  0.00     0.001 A 
HETATM   35  C   UNL     1      39.658 -16.047  -3.663  1.00  0.00     0.000 A 
HETATM   36  C   UNL     1      38.781 -14.990  -3.882  1.00  0.00     0.001 A 
HETATM   37  C   UNL     1      38.999 -13.765  -3.253  1.00  0.00     0.009 A 
ENDBRANCH  31  32
ENDBRANCH   1  31
TORSDOF 9
ENDMDL
MODEL 4
REMARK VINA RESULT:      -7.8      3.094      9.100
REMARK  9 active torsions:
REMARK  status: ('A' for Active; 'I' for Inactive)
REMARK    1  A    between atoms: C_4  and  C_5 
REMARK    2  A    between atoms: C_5  and  N_6 
REMARK    3  A    between atoms: C_11  and  C_12 
REMARK       I    between atoms: C_12  and  N_13 
REMARK    4  A    between atoms: C_15  and  N_16 
REMARK       I    between atoms: N_16  and  C_17 
REMARK    5  A    between atoms: C_17  and  C_18 
REMARK    6  A    between atoms: C_18  and  C_19 
REMARK    7  A    between atoms: C_19  and  C_20 
REMARK    8  A    between atoms: C_20  and  S_21 
REMARK    9  A    between atoms: S_21  and  C_22 
ROOT
HETATM    1  N   UNL     1      40.333 -12.305  -0.877  1.00  0.00    -0.063 N 
HETATM    2  H   UNL     1      39.648 -11.945  -1.547  1.00  0.00     0.280 HD
HETATM    3  C   UNL     1      39.728 -13.594  -0.324  1.00  0.00     0.282 C 
HETATM    4  C   UNL     1      40.386 -13.988   0.952  1.00  0.00     0.018 C 
HETATM    5  C   UNL     1      41.198 -13.178   1.720  1.00  0.00    -0.023 C 
HETATM    6  C   UNL     1      41.789 -13.910   2.817  1.00  0.00     0.073 C 
HETATM    7  C   UNL     1      41.149 -15.131   2.977  1.00  0.00     0.093 C 
HETATM    8  S   UNL     1      40.148 -15.511   1.653  1.00  0.00    -0.074 SA
HETATM    9  C   UNL     1      41.444 -11.741   1.345  1.00  0.00     0.068 C 
HETATM   10  C   UNL     1      40.480 -11.267   0.234  1.00  0.00     0.240 C 
ENDROOT
BRANCH   7  11
HETATM   11  N   UNL     1      41.301 -16.023   4.029  1.00  0.00    -0.320 N 
HETATM   12  C   UNL     1      40.858 -15.818   5.331  1.00  0.00     0.222 C 
HETATM   13  O   UNL     1      40.288 -14.823   5.759  1.00  0.00    -0.273 OA
HETATM   14  H   UNL     1      42.029 -16.720   3.911  1.00  0.00     0.169 HD
BRANCH  12  15
HETATM   15  C   UNL     1      41.168 -17.013   6.222  1.00  0.00     0.104 C 
BRANCH  15  16
HETATM   16  C   UNL     1      42.439 -16.840   7.053  1.00  0.00     0.020 C 
BRANCH  16  17
HETATM   17  C   UNL     1      43.781 -16.826   6.311  1.00  0.00     0.080 C 
BRANCH  17  18
HETATM   18  S   UNL     1      44.867 -18.282   6.521  1.00  0.00    -0.130 SA
BRANCH  18  19
HETATM   19  C   UNL     1      44.599 -19.223   5.031  1.00  0.00     0.000 A 
HETATM   20  C   UNL     1      44.079 -18.680   3.852  1.00  0.00     0.020 A 
HETATM   21  C   UNL     1      43.881 -19.489   2.727  1.00  0.00     0.025 A 
HETATM   22  C   UNL     1      44.225 -20.838   2.772  1.00  0.00     0.034 A 
HETATM   23 CL   UNL     1      43.973 -21.833   1.392  1.00  0.00    -0.084 Cl
HETATM   24  C   UNL     1      44.773 -21.385   3.928  1.00  0.00     0.025 A 
HETATM   25  C   UNL     1      44.962 -20.577   5.052  1.00  0.00     0.020 A 
ENDBRANCH  18  19
ENDBRANCH  17  18
ENDBRANCH  16  17
ENDBRANCH  15  16
ENDBRANCH  12  15
ENDBRANCH   7  11
BRANCH   6  26
HETATM   26  C   UNL     1      42.837 -13.388   3.691  1.00  0.00     0.252 C 
HETATM   27  N   UNL     1      42.404 -12.694   4.789  1.00  0.00    -0.366 N 
HETATM   28  H   UNL     1      41.482 -12.879   5.165  1.00  0.00     0.159 HD
HETATM   29  H   UNL     1      43.126 -12.499   5.476  1.00  0.00     0.159 HD
HETATM   30  O   UNL     1      44.026 -13.623   3.520  1.00  0.00    -0.268 OA
ENDBRANCH   6  26
BRANCH   1  31
HETATM   31  C   UNL     1      41.622 -12.485  -1.648  1.00  0.00     0.273 C 
BRANCH  31  32
HETATM   32  C   UNL     1      41.929 -11.430  -2.674  1.00  0.00    -0.033 A 
HETATM   33  C   UNL     1      42.272 -10.121  -2.311  1.00  0.00     0.009 A 
HETATM   34  C   UNL     1      42.576  -9.175  -3.292  1.00  0.00     0.001 A 
HETATM   35  C   UNL     1      42.559  -9.531  -4.640  1.00  0.00     0.000 A 
HETATM   36  C   UNL     1      42.236 -10.832  -5.012  1.00  0.00     0.001 A 
HETATM   37  C   UNL     1      41.921 -11.777  -4.036  1.00  0.00     0.009 A 
ENDBRANCH  31  32
ENDBRANCH   1  31
TORSDOF 9
ENDMDL
MODEL 5
REMARK VINA RESULT:      -7.6      5.825      8.548
REMARK  9 active torsions:
REMARK  status: ('A' for Active; 'I' for Inactive)
REMARK    1  A    between atoms: C_4  and  C_5 
REMARK    2  A    between atoms: C_5  and  N_6 
REMARK    3  A    between atoms: C_11  and  C_12 
REMARK       I    between atoms: C_12  and  N_13 
REMARK    4  A    between atoms: C_15  and  N_16 
REMARK       I    between atoms: N_16  and  C_17 
REMARK    5  A    between atoms: C_17  and  C_18 
REMARK    6  A    between atoms: C_18  and  C_19 
REMARK    7  A    between atoms: C_19  and  C_20 
REMARK    8  A    between atoms: C_20  and  S_21 
REMARK    9  A    between atoms: S_21  and  C_22 
ROOT
HETATM    1  N   UNL     1      42.574 -17.411   1.299  1.00  0.00    -0.063 N 
HETATM    2  H   UNL     1      42.649 -17.845   0.375  1.00  0.00     0.280 HD
HETATM    3  C   UNL     1      41.580 -16.263   1.135  1.00  0.00     0.282 C 
HETATM    4  C   UNL     1      41.701 -15.287   2.253  1.00  0.00     0.018 C 
HETATM    5  C   UNL     1      42.749 -15.219   3.149  1.00  0.00    -0.023 C 
HETATM    6  C   UNL     1      42.488 -14.257   4.195  1.00  0.00     0.073 C 
HETATM    7  C   UNL     1      41.409 -13.455   3.849  1.00  0.00     0.093 C 
HETATM    8  S   UNL     1      40.550 -14.075   2.516  1.00  0.00    -0.074 SA
HETATM    9  C   UNL     1      43.942 -16.127   3.022  1.00  0.00     0.068 C 
HETATM   10  C   UNL     1      43.955 -16.870   1.667  1.00  0.00     0.240 C 
ENDROOT
BRANCH   7  11
HETATM   11  N   UNL     1      40.978 -12.307   4.498  1.00  0.00    -0.320 N 
HETATM   12  C   UNL     1      40.237 -12.275   5.673  1.00  0.00     0.222 C 
HETATM   13  O   UNL     1      39.833 -13.242   6.307  1.00  0.00    -0.273 OA
HETATM   14  H   UNL     1      40.946 -11.468   3.929  1.00  0.00     0.169 HD
BRANCH  12  15
HETATM   15  C   UNL     1      39.958 -10.847   6.121  1.00  0.00     0.104 C 
BRANCH  15  16
HETATM   16  C   UNL     1      40.195 -10.620   7.614  1.00  0.00     0.020 C 
BRANCH  16  17
HETATM   17  C   UNL     1      41.489  -9.913   8.033  1.00  0.00     0.080 C 
BRANCH  17  18
HETATM   18  S   UNL     1      42.838 -10.960   8.689  1.00  0.00    -0.130 SA
BRANCH  18  19
HETATM   19  C   UNL     1      42.755 -10.695  10.449  1.00  0.00     0.000 A 
HETATM   20  C   UNL     1      43.771 -10.088  11.193  1.00  0.00     0.020 A 
HETATM   21  C   UNL     1      43.639  -9.931  12.578  1.00  0.00     0.025 A 
HETATM   22  C   UNL     1      42.478 -10.362  13.218  1.00  0.00     0.034 A 
HETATM   23 CL   UNL     1      42.320 -10.177  14.920  1.00  0.00    -0.084 Cl
HETATM   24  C   UNL     1      41.446 -10.939  12.486  1.00  0.00     0.025 A 
HETATM   25  C   UNL     1      41.584 -11.101  11.105  1.00  0.00     0.020 A 
ENDBRANCH  18  19
ENDBRANCH  17  18
ENDBRANCH  16  17
ENDBRANCH  15  16
ENDBRANCH  12  15
ENDBRANCH   7  11
BRANCH   6  26
HETATM   26  C   UNL     1      43.311 -14.090   5.390  1.00  0.00     0.252 C 
HETATM   27  N   UNL     1      42.781 -14.584   6.552  1.00  0.00    -0.366 N 
HETATM   28  H   UNL     1      42.101 -15.334   6.511  1.00  0.00     0.159 HD
HETATM   29  H   UNL     1      43.433 -14.626   7.329  1.00  0.00     0.159 HD
HETATM   30  O   UNL     1      44.443 -13.624   5.360  1.00  0.00    -0.268 OA
ENDBRANCH   6  26
BRANCH   1  31
HETATM   31  C   UNL     1      42.132 -18.507   2.244  1.00  0.00     0.273 C 
BRANCH  31  32
HETATM   32  C   UNL     1      43.114 -19.624   2.462  1.00  0.00    -0.033 A 
HETATM   33  C   UNL     1      43.970 -19.653   3.572  1.00  0.00     0.009 A 
HETATM   34  C   UNL     1      44.850 -20.721   3.754  1.00  0.00     0.001 A 
HETATM   35  C   UNL     1      44.872 -21.776   2.844  1.00  0.00     0.000 A 
HETATM   36  C   UNL     1      44.016 -21.768   1.747  1.00  0.00     0.001 A 
HETATM   37  C   UNL     1      43.142 -20.697   1.555  1.00  0.00     0.009 A 
ENDBRANCH  31  32
ENDBRANCH   1  31
TORSDOF 9
ENDMDL
MODEL 6
REMARK VINA RESULT:      -7.6      5.603      8.202
REMARK  9 active torsions:
REMARK  status: ('A' for Active; 'I' for Inactive)
REMARK    1  A    between atoms: C_4  and  C_5 
REMARK    2  A    between atoms: C_5  and  N_6 
REMARK    3  A    between atoms: C_11  and  C_12 
REMARK       I    between atoms: C_12  and  N_13 
REMARK    4  A    between atoms: C_15  and  N_16 
REMARK       I    between atoms: N_16  and  C_17 
REMARK    5  A    between atoms: C_17  and  C_18 
REMARK    6  A    between atoms: C_18  and  C_19 
REMARK    7  A    between atoms: C_19  and  C_20 
REMARK    8  A    between atoms: C_20  and  S_21 
REMARK    9  A    between atoms: S_21  and  C_22 
ROOT
HETATM    1  N   UNL     1      41.329 -17.899   2.926  1.00  0.00    -0.063 N 
HETATM    2  H   UNL     1      40.994 -18.858   2.792  1.00  0.00     0.280 HD
HETATM    3  C   UNL     1      40.949 -17.528   4.358  1.00  0.00     0.282 C 
HETATM    4  C   UNL     1      40.971 -16.052   4.551  1.00  0.00     0.018 C 
HETATM    5  C   UNL     1      41.010 -15.111   3.542  1.00  0.00    -0.023 C 
HETATM    6  C   UNL     1      41.169 -13.776   4.070  1.00  0.00     0.073 C 
HETATM    7  C   UNL     1      40.934 -13.771   5.438  1.00  0.00     0.093 C 
HETATM    8  S   UNL     1      40.889 -15.345   6.087  1.00  0.00    -0.074 SA
HETATM    9  C   UNL     1      40.964 -15.520   2.094  1.00  0.00     0.068 C 
HETATM   10  C   UNL     1      40.586 -17.009   1.931  1.00  0.00     0.240 C 
ENDROOT
BRANCH   7  11
HETATM   11  N   UNL     1      40.805 -12.662   6.262  1.00  0.00    -0.320 N 
HETATM   12  C   UNL     1      39.644 -11.918   6.436  1.00  0.00     0.222 C 
HETATM   13  O   UNL     1      38.568 -12.106   5.883  1.00  0.00    -0.273 OA
HETATM   14  H   UNL     1      41.673 -12.199   6.512  1.00  0.00     0.169 HD
BRANCH  12  15
HETATM   15  C   UNL     1      39.850 -10.784   7.431  1.00  0.00     0.104 C 
BRANCH  15  16
HETATM   16  C   UNL     1      39.468 -11.154   8.863  1.00  0.00     0.020 C 
BRANCH  16  17
HETATM   17  C   UNL     1      38.831 -10.067   9.737  1.00  0.00     0.080 C 
BRANCH  17  18
HETATM   18  S   UNL     1      39.964  -8.979  10.673  1.00  0.00    -0.130 SA
BRANCH  18  19
HETATM   19  C   UNL     1      41.436  -9.967  10.858  1.00  0.00     0.000 A 
HETATM   20  C   UNL     1      41.653 -10.848  11.922  1.00  0.00     0.020 A 
HETATM   21  C   UNL     1      42.844 -11.578  12.006  1.00  0.00     0.025 A 
HETATM   22  C   UNL     1      43.812 -11.444  11.013  1.00  0.00     0.034 A 
HETATM   23 CL   UNL     1      45.279 -12.335  11.122  1.00  0.00    -0.084 Cl
HETATM   24  C   UNL     1      43.597 -10.596   9.932  1.00  0.00     0.025 A 
HETATM   25  C   UNL     1      42.410  -9.863   9.855  1.00  0.00     0.020 A 
ENDBRANCH  18  19
ENDBRANCH  17  18
ENDBRANCH  16  17
ENDBRANCH  15  16
ENDBRANCH  12  15
ENDBRANCH   7  11
BRANCH   6  26
HETATM   26  C   UNL     1      41.433 -12.591   3.259  1.00  0.00     0.252 C 
HETATM   27  N   UNL     1      42.593 -12.614   2.530  1.00  0.00    -0.366 N 
HETATM   28  H   UNL     1      42.999 -13.505   2.267  1.00  0.00     0.159 HD
HETATM   29  H   UNL     1      42.672 -11.875   1.839  1.00  0.00     0.159 HD
HETATM   30  O   UNL     1      40.639 -11.666   3.151  1.00  0.00    -0.268 OA
ENDBRANCH   6  26
BRANCH   1  31
HETATM   31  C   UNL     1      42.816 -17.930   2.648  1.00  0.00     0.273 C 
BRANCH  31  32
HETATM   32  C   UNL     1      43.481 -19.273   2.767  1.00  0.00    -0.033 A 
HETATM   33  C   UNL     1      43.320 -20.269   1.794  1.00  0.00     0.009 A 
HETATM   34  C   UNL     1      43.975 -21.495   1.927  1.00  0.00     0.001 A 
HETATM   35  C   UNL     1      44.808 -21.731   3.019  1.00  0.00     0.000 A 
HETATM   36  C   UNL     1      44.989 -20.744   3.983  1.00  0.00     0.001 A 
HETATM   37  C   UNL     1      44.328 -19.523   3.860  1.00  0.00     0.009 A 
ENDBRANCH  31  32
ENDBRANCH   1  31
TORSDOF 9
ENDMDL
MODEL 7
REMARK VINA RESULT:      -7.5      2.817      8.507
REMARK  9 active torsions:
REMARK  status: ('A' for Active; 'I' for Inactive)
REMARK    1  A    between atoms: C_4  and  C_5 
REMARK    2  A    between atoms: C_5  and  N_6 
REMARK    3  A    between atoms: C_11  and  C_12 
REMARK       I    between atoms: C_12  and  N_13 
REMARK    4  A    between atoms: C_15  and  N_16 
REMARK       I    between atoms: N_16  and  C_17 
REMARK    5  A    between atoms: C_17  and  C_18 
REMARK    6  A    between atoms: C_18  and  C_19 
REMARK    7  A    between atoms: C_19  and  C_20 
REMARK    8  A    between atoms: C_20  and  S_21 
REMARK    9  A    between atoms: S_21  and  C_22 
ROOT
HETATM    1  N   UNL     1      39.927 -13.397  -3.228  1.00  0.00    -0.063 N 
HETATM    2  H   UNL     1      39.867 -12.893  -4.117  1.00  0.00     0.280 HD
HETATM    3  C   UNL     1      40.541 -12.412  -2.236  1.00  0.00     0.282 C 
HETATM    4  C   UNL     1      41.087 -13.121  -1.047  1.00  0.00     0.018 C 
HETATM    5  C   UNL     1      41.313 -14.480  -0.956  1.00  0.00    -0.023 C 
HETATM    6  C   UNL     1      41.709 -14.863   0.379  1.00  0.00     0.073 C 
HETATM    7  C   UNL     1      42.048 -13.737   1.119  1.00  0.00     0.093 C 
HETATM    8  S   UNL     1      41.561 -12.296   0.353  1.00  0.00    -0.074 SA
HETATM    9  C   UNL     1      41.076 -15.389  -2.132  1.00  0.00     0.068 C 
HETATM   10  C   UNL     1      40.856 -14.591  -3.437  1.00  0.00     0.240 C 
ENDROOT
BRANCH   7  11
HETATM   11  N   UNL     1      42.652 -13.706   2.367  1.00  0.00    -0.320 N 
HETATM   12  C   UNL     1      41.985 -13.717   3.586  1.00  0.00     0.222 C 
HETATM   13  O   UNL     1      40.772 -13.735   3.753  1.00  0.00    -0.273 OA
HETATM   14  H   UNL     1      43.605 -13.358   2.384  1.00  0.00     0.169 HD
BRANCH  12  15
HETATM   15  C   UNL     1      42.957 -13.702   4.757  1.00  0.00     0.104 C 
BRANCH  15  16
HETATM   16  C   UNL     1      43.667 -15.038   4.977  1.00  0.00     0.020 C 
BRANCH  16  17
HETATM   17  C   UNL     1      42.800 -16.266   5.277  1.00  0.00     0.080 C 
BRANCH  17  18
HETATM   18  S   UNL     1      43.571 -17.619   6.236  1.00  0.00    -0.130 SA
BRANCH  18  19
HETATM   19  C   UNL     1      43.891 -18.872   5.010  1.00  0.00     0.000 A 
HETATM   20  C   UNL     1      44.616 -20.040   5.263  1.00  0.00     0.020 A 
HETATM   21  C   UNL     1      44.840 -20.971   4.242  1.00  0.00     0.025 A 
HETATM   22  C   UNL     1      44.318 -20.745   2.970  1.00  0.00     0.034 A 
HETATM   23 CL   UNL     1      44.601 -21.884   1.713  1.00  0.00    -0.084 Cl
HETATM   24  C   UNL     1      43.567 -19.603   2.712  1.00  0.00     0.025 A 
HETATM   25  C   UNL     1      43.352 -18.672   3.732  1.00  0.00     0.020 A 
ENDBRANCH  18  19
ENDBRANCH  17  18
ENDBRANCH  16  17
ENDBRANCH  15  16
ENDBRANCH  12  15
ENDBRANCH   7  11
BRANCH   6  26
HETATM   26  C   UNL     1      41.835 -16.242   0.843  1.00  0.00     0.252 C 
HETATM   27  N   UNL     1      43.027 -16.857   0.566  1.00  0.00    -0.366 N 
HETATM   28  H   UNL     1      43.859 -16.294   0.429  1.00  0.00     0.159 HD
HETATM   29  H   UNL     1      43.168 -17.739   1.048  1.00  0.00     0.159 HD
HETATM   30  O   UNL     1      40.979 -16.799   1.517  1.00  0.00    -0.268 OA
ENDBRANCH   6  26
BRANCH   1  31
HETATM   31  C   UNL     1      38.517 -13.837  -2.899  1.00  0.00     0.273 C 
BRANCH  31  32
HETATM   32  C   UNL     1      37.873 -13.160  -1.722  1.00  0.00    -0.033 A 
HETATM   33  C   UNL     1      37.238 -11.915  -1.839  1.00  0.00     0.009 A 
HETATM   34  C   UNL     1      36.629 -11.329  -0.727  1.00  0.00     0.001 A 
HETATM   35  C   UNL     1      36.630 -11.986   0.502  1.00  0.00     0.000 A 
HETATM   36  C   UNL     1      37.241 -13.229   0.627  1.00  0.00     0.001 A 
HETATM   37  C   UNL     1      37.861 -13.813  -0.478  1.00  0.00     0.009 A 
ENDBRANCH  31  32
ENDBRANCH   1  31
TORSDOF 9
ENDMDL
MODEL 8
REMARK VINA RESULT:      -7.4      2.009      2.505
REMARK  9 active torsions:
REMARK  status: ('A' for Active; 'I' for Inactive)
REMARK    1  A    between atoms: C_4  and  C_5 
REMARK    2  A    between atoms: C_5  and  N_6 
REMARK    3  A    between atoms: C_11  and  C_12 
REMARK       I    between atoms: C_12  and  N_13 
REMARK    4  A    between atoms: C_15  and  N_16 
REMARK       I    between atoms: N_16  and  C_17 
REMARK    5  A    between atoms: C_17  and  C_18 
REMARK    6  A    between atoms: C_18  and  C_19 
REMARK    7  A    between atoms: C_19  and  C_20 
REMARK    8  A    between atoms: C_20  and  S_21 
REMARK    9  A    between atoms: S_21  and  C_22 
ROOT
HETATM    1  N   UNL     1      43.528 -18.014   5.549  1.00  0.00    -0.063 N 
HETATM    2  H   UNL     1      43.862 -18.462   6.407  1.00  0.00     0.280 HD
HETATM    3  C   UNL     1      43.498 -16.517   5.852  1.00  0.00     0.282 C 
HETATM    4  C   UNL     1      42.637 -15.792   4.879  1.00  0.00     0.018 C 
HETATM    5  C   UNL     1      41.732 -16.377   4.016  1.00  0.00    -0.023 C 
HETATM    6  C   UNL     1      41.166 -15.408   3.106  1.00  0.00     0.073 C 
HETATM    7  C   UNL     1      41.450 -14.120   3.542  1.00  0.00     0.093 C 
HETATM    8  S   UNL     1      42.635 -14.103   4.765  1.00  0.00    -0.074 SA
HETATM    9  C   UNL     1      41.484 -17.861   4.037  1.00  0.00     0.068 C 
HETATM   10  C   UNL     1      42.116 -18.530   5.278  1.00  0.00     0.240 C 
ENDROOT
BRANCH   7  11
HETATM   11  N   UNL     1      40.925 -12.935   3.048  1.00  0.00    -0.320 N 
HETATM   12  C   UNL     1      39.889 -12.210   3.626  1.00  0.00     0.222 C 
HETATM   13  O   UNL     1      39.268 -12.506   4.639  1.00  0.00    -0.273 OA
HETATM   14  H   UNL     1      41.101 -12.752   2.066  1.00  0.00     0.169 HD
BRANCH  12  15
HETATM   15  C   UNL     1      39.582 -10.945   2.836  1.00  0.00     0.104 C 
BRANCH  15  16
HETATM   16  C   UNL     1      38.158 -10.903   2.282  1.00  0.00     0.020 C 
BRANCH  16  17
HETATM   17  C   UNL     1      37.984 -10.756   0.766  1.00  0.00     0.080 C 
BRANCH  17  18
HETATM   18  S   UNL     1      36.991 -12.032  -0.089  1.00  0.00    -0.130 SA
BRANCH  18  19
HETATM   19  C   UNL     1      38.200 -12.946  -1.026  1.00  0.00     0.000 A 
HETATM   20  C   UNL     1      37.883 -13.774  -2.107  1.00  0.00     0.020 A 
HETATM   21  C   UNL     1      38.889 -14.473  -2.783  1.00  0.00     0.025 A 
HETATM   22  C   UNL     1      40.218 -14.328  -2.392  1.00  0.00     0.034 A 
HETATM   23 CL   UNL     1      41.454 -15.195  -3.218  1.00  0.00    -0.084 Cl
HETATM   24  C   UNL     1      40.553 -13.484  -1.339  1.00  0.00     0.025 A 
HETATM   25  C   UNL     1      39.545 -12.792  -0.661  1.00  0.00     0.020 A 
ENDBRANCH  18  19
ENDBRANCH  17  18
ENDBRANCH  16  17
ENDBRANCH  15  16
ENDBRANCH  12  15
ENDBRANCH   7  11
BRANCH   6  26
HETATM   26  C   UNL     1      40.328 -15.741   1.958  1.00  0.00     0.252 C 
HETATM   27  N   UNL     1      38.979 -15.588   2.141  1.00  0.00    -0.366 N 
HETATM   28  H   UNL     1      38.641 -14.935   2.838  1.00  0.00     0.159 HD
HETATM   29  H   UNL     1      38.429 -15.645   1.290  1.00  0.00     0.159 HD
HETATM   30  O   UNL     1      40.786 -16.049   0.866  1.00  0.00    -0.268 OA
ENDBRANCH   6  26
BRANCH   1  31
HETATM   31  C   UNL     1      44.492 -18.424   4.458  1.00  0.00     0.273 C 
BRANCH  31  32
HETATM   32  C   UNL     1      44.550 -19.894   4.148  1.00  0.00    -0.033 A 
HETATM   33  C   UNL     1      44.792 -20.852   5.142  1.00  0.00     0.009 A 
HETATM   34  C   UNL     1      44.813 -22.211   4.819  1.00  0.00     0.001 A 
HETATM   35  C   UNL     1      44.575 -22.625   3.510  1.00  0.00     0.000 A 
HETATM   36  C   UNL     1      44.317 -21.685   2.518  1.00  0.00     0.001 A 
HETATM   37  C   UNL     1      44.307 -20.327   2.833  1.00  0.00     0.009 A 
ENDBRANCH  31  32
ENDBRANCH   1  31
TORSDOF 9
ENDMDL
MODEL 9
REMARK VINA RESULT:      -7.4      6.283      9.528
REMARK  9 active torsions:
REMARK  status: ('A' for Active; 'I' for Inactive)
REMARK    1  A    between atoms: C_4  and  C_5 
REMARK    2  A    between atoms: C_5  and  N_6 
REMARK    3  A    between atoms: C_11  and  C_12 
REMARK       I    between atoms: C_12  and  N_13 
REMARK    4  A    between atoms: C_15  and  N_16 
REMARK       I    between atoms: N_16  and  C_17 
REMARK    5  A    between atoms: C_17  and  C_18 
REMARK    6  A    between atoms: C_18  and  C_19 
REMARK    7  A    between atoms: C_19  and  C_20 
REMARK    8  A    between atoms: C_20  and  S_21 
REMARK    9  A    between atoms: S_21  and  C_22 
ROOT
HETATM    1  N   UNL     1      42.682 -10.302   9.519  1.00  0.00    -0.063 N 
HETATM    2  H   UNL     1      43.370  -9.709   9.992  1.00  0.00     0.280 HD
HETATM    3  C   UNL     1      43.481 -11.152   8.533  1.00  0.00     0.282 C 
HETATM    4  C   UNL     1      42.595 -11.730   7.486  1.00  0.00     0.018 C 
HETATM    5  C   UNL     1      41.301 -11.330   7.219  1.00  0.00    -0.023 C 
HETATM    6  C   UNL     1      40.673 -12.190   6.242  1.00  0.00     0.073 C 
HETATM    7  C   UNL     1      41.627 -12.985   5.621  1.00  0.00     0.093 C 
HETATM    8  S   UNL     1      43.123 -12.946   6.433  1.00  0.00    -0.074 SA
HETATM    9  C   UNL     1      40.674 -10.178   7.957  1.00  0.00     0.068 C 
HETATM   10  C   UNL     1      41.720  -9.382   8.770  1.00  0.00     0.240 C 
ENDROOT
BRANCH   7  11
HETATM   11  N   UNL     1      41.446 -13.793   4.508  1.00  0.00    -0.320 N 
HETATM   12  C   UNL     1      40.869 -15.058   4.515  1.00  0.00     0.222 C 
HETATM   13  O   UNL     1      40.451 -15.663   5.495  1.00  0.00    -0.273 OA
HETATM   14  H   UNL     1      42.032 -13.576   3.709  1.00  0.00     0.169 HD
BRANCH  12  15
HETATM   15  C   UNL     1      40.805 -15.653   3.116  1.00  0.00     0.104 C 
BRANCH  15  16
HETATM   16  C   UNL     1      41.269 -17.107   3.049  1.00  0.00     0.020 C 
BRANCH  16  17
HETATM   17  C   UNL     1      41.755 -17.641   1.696  1.00  0.00     0.080 C 
BRANCH  17  18
HETATM   18  S   UNL     1      43.562 -17.782   1.454  1.00  0.00    -0.130 SA
BRANCH  18  19
HETATM   19  C   UNL     1      44.036 -19.076   2.585  1.00  0.00     0.000 A 
HETATM   20  C   UNL     1      44.383 -18.852   3.921  1.00  0.00     0.020 A 
HETATM   21  C   UNL     1      44.761 -19.919   4.743  1.00  0.00     0.025 A 
HETATM   22  C   UNL     1      44.771 -21.217   4.236  1.00  0.00     0.034 A 
HETATM   23 CL   UNL     1      45.245 -22.527   5.245  1.00  0.00    -0.084 Cl
HETATM   24  C   UNL     1      44.398 -21.459   2.918  1.00  0.00     0.025 A 
HETATM   25  C   UNL     1      44.028 -20.390   2.098  1.00  0.00     0.020 A 
ENDBRANCH  18  19
ENDBRANCH  17  18
ENDBRANCH  16  17
ENDBRANCH  15  16
ENDBRANCH  12  15
ENDBRANCH   7  11
BRANCH   6  26
HETATM   26  C   UNL     1      39.256 -12.147   5.891  1.00  0.00     0.252 C 
HETATM   27  N   UNL     1      38.512 -13.228   6.284  1.00  0.00    -0.366 N 
HETATM   28  H   UNL     1      38.818 -13.782   7.075  1.00  0.00     0.159 HD
HETATM   29  H   UNL     1      37.509 -13.103   6.198  1.00  0.00     0.159 HD
HETATM   30  O   UNL     1      38.730 -11.178   5.362  1.00  0.00    -0.268 OA
ENDBRANCH   6  26
BRANCH   1  31
HETATM   31  C   UNL     1      41.978 -11.081  10.608  1.00  0.00     0.273 C 
BRANCH  31  32
HETATM   32  C   UNL     1      42.188 -10.588  12.012  1.00  0.00    -0.033 A 
HETATM   33  C   UNL     1      43.326  -9.855  12.378  1.00  0.00     0.009 A 
HETATM   34  C   UNL     1      43.473  -9.392  13.687  1.00  0.00     0.001 A 
HETATM   35  C   UNL     1      42.482  -9.639  14.635  1.00  0.00     0.000 A 
HETATM   36  C   UNL     1      41.341 -10.350  14.281  1.00  0.00     0.001 A 
HETATM   37  C   UNL     1      41.194 -10.824  12.977  1.00  0.00     0.009 A 
ENDBRANCH  31  32
ENDBRANCH   1  31
TORSDOF 9
ENDMDL
MODEL 10
REMARK VINA RESULT:      -7.3      2.945      9.139
REMARK  9 active torsions:
REMARK  status: ('A' for Active; 'I' for Inactive)
REMARK    1  A    between atoms: C_4  and  C_5 
REMARK    2  A    between atoms: C_5  and  N_6 
REMARK    3  A    between atoms: C_11  and  C_12 
REMARK       I    between atoms: C_12  and  N_13 
REMARK    4  A    between atoms: C_15  and  N_16 
REMARK       I    between atoms: N_16  and  C_17 
REMARK    5  A    between atoms: C_17  and  C_18 
REMARK    6  A    between atoms: C_18  and  C_19 
REMARK    7  A    between atoms: C_19  and  C_20 
REMARK    8  A    between atoms: C_20  and  S_21 
REMARK    9  A    between atoms: S_21  and  C_22 
ROOT
HETATM    1  N   UNL     1      40.221 -12.478  -1.864  1.00  0.00    -0.063 N 
HETATM    2  H   UNL     1      40.360 -11.808  -2.626  1.00  0.00     0.280 HD
HETATM    3  C   UNL     1      41.114 -11.995  -0.723  1.00  0.00     0.282 C 
HETATM    4  C   UNL     1      41.353 -13.081   0.266  1.00  0.00     0.018 C 
HETATM    5  C   UNL     1      41.095 -14.422   0.062  1.00  0.00    -0.023 C 
HETATM    6  C   UNL     1      41.303 -15.189   1.269  1.00  0.00     0.073 C 
HETATM    7  C   UNL     1      41.991 -14.430   2.206  1.00  0.00     0.093 C 
HETATM    8  S   UNL     1      42.050 -12.782   1.779  1.00  0.00    -0.074 SA
HETATM    9  C   UNL     1      40.587 -14.926  -1.262  1.00  0.00     0.068 C 
HETATM   10  C   UNL     1      40.687 -13.845  -2.362  1.00  0.00     0.240 C 
ENDROOT
BRANCH   7  11
HETATM   11  N   UNL     1      42.539 -14.871   3.401  1.00  0.00    -0.320 N 
HETATM   12  C   UNL     1      41.898 -14.860   4.635  1.00  0.00     0.222 C 
HETATM   13  O   UNL     1      40.769 -14.447   4.866  1.00  0.00    -0.273 OA
HETATM   14  H   UNL     1      43.552 -14.923   3.427  1.00  0.00     0.169 HD
BRANCH  12  15
HETATM   15  C   UNL     1      42.782 -15.441   5.730  1.00  0.00     0.104 C 
BRANCH  15  16
HETATM   16  C   UNL     1      42.073 -16.482   6.596  1.00  0.00     0.020 C 
BRANCH  16  17
HETATM   17  C   UNL     1      42.804 -17.801   6.871  1.00  0.00     0.080 C 
BRANCH  17  18
HETATM   18  S   UNL     1      44.529 -17.938   6.278  1.00  0.00    -0.130 SA
BRANCH  18  19
HETATM   19  C   UNL     1      44.400 -19.006   4.857  1.00  0.00     0.000 A 
HETATM   20  C   UNL     1      43.880 -18.600   3.624  1.00  0.00     0.020 A 
HETATM   21  C   UNL     1      43.795 -19.503   2.558  1.00  0.00     0.025 A 
HETATM   22  C   UNL     1      44.252 -20.810   2.718  1.00  0.00     0.034 A 
HETATM   23 CL   UNL     1      44.139 -21.923   1.411  1.00  0.00    -0.084 Cl
HETATM   24  C   UNL     1      44.801 -21.219   3.929  1.00  0.00     0.025 A 
HETATM   25  C   UNL     1      44.877 -20.317   4.992  1.00  0.00     0.020 A 
ENDBRANCH  18  19
ENDBRANCH  17  18
ENDBRANCH  16  17
ENDBRANCH  15  16
ENDBRANCH  12  15
ENDBRANCH   7  11
BRANCH   6  26
HETATM   26  C   UNL     1      40.935 -16.593   1.432  1.00  0.00     0.252 C 
HETATM   27  N   UNL     1      39.772 -16.828   2.116  1.00  0.00    -0.366 N 
HETATM   28  H   UNL     1      39.054 -16.114   2.140  1.00  0.00     0.159 HD
HETATM   29  H   UNL     1      39.438 -17.785   2.063  1.00  0.00     0.159 HD
HETATM   30  O   UNL     1      41.562 -17.510   0.918  1.00  0.00    -0.268 OA
ENDBRANCH   6  26
BRANCH   1  31
HETATM   31  C   UNL     1      38.738 -12.469  -1.562  1.00  0.00     0.273 C 
BRANCH  31  32
HETATM   32  C   UNL     1      37.827 -12.267  -2.739  1.00  0.00    -0.033 A 
HETATM   33  C   UNL     1      37.580 -10.996  -3.276  1.00  0.00     0.009 A 
HETATM   34  C   UNL     1      36.746 -10.851  -4.388  1.00  0.00     0.001 A 
HETATM   35  C   UNL     1      36.169 -11.971  -4.983  1.00  0.00     0.000 A 
HETATM   36  C   UNL     1      36.419 -13.240  -4.469  1.00  0.00     0.001 A 
HETATM   37  C   UNL     1      37.242 -13.388  -3.353  1.00  0.00     0.009 A 
ENDBRANCH  31  32
ENDBRANCH   1  31
TORSDOF 9
ENDMDL
