MODEL 1
REMARK VINA RESULT:      -8.1      0.000      0.000
REMARK  6 active torsions:
REMARK  status: ('A' for Active; 'I' for Inactive)
REMARK    1  A    between atoms: C_5  and  N_6 
REMARK    2  A    between atoms: N_6  and  C_7 
REMARK    3  A    between atoms: C_7  and  C_8 
REMARK    4  A    between atoms: N_10  and  C_12 
REMARK    5  A    between atoms: C_12  and  C_13 
REMARK    6  A    between atoms: C_14  and  O_15 
ROOT
HETATM    1  C   UNL     1      42.699 -15.831   4.851  1.00  0.00     0.031 C 
HETATM    2  C   UNL     1      42.823 -15.837   6.368  1.00  0.00     0.241 C 
HETATM    3  N   UNL     1      43.353 -14.457   6.681  1.00  0.00    -0.067 N 
HETATM    4  H   UNL     1      42.914 -14.132   7.563  1.00  0.00     0.280 HD
HETATM    5  C   UNL     1      42.951 -13.541   5.548  1.00  0.00     0.235 C 
HETATM    6  C   UNL     1      42.156 -14.429   4.595  1.00  0.00     0.035 C 
ENDROOT
BRANCH   1   7
HETATM    7  C   UNL     1      41.809 -16.945   4.287  1.00  0.00     0.127 C 
BRANCH   7   8
HETATM    8  N   UNL     1      42.474 -17.597   3.166  1.00  0.00    -0.376 N 
HETATM    9  H   UNL     1      41.872 -17.734   2.347  1.00  0.00     0.161 HD
BRANCH   8  10
HETATM   10  C   UNL     1      43.271 -18.735   3.327  1.00  0.00     0.101 A 
HETATM   11  N   UNL     1      43.311 -19.738   2.433  1.00  0.00    -0.347 N 
HETATM   12  C   UNL     1      44.077 -20.839   2.577  1.00  0.00     0.007 A 
HETATM   13  H   UNL     1      42.754 -19.657   1.591  1.00  0.00     0.167 HD
HETATM   14  C   UNL     1      44.083 -21.867   1.492  1.00  0.00     0.068 C 
HETATM   15  C   UNL     1      44.853 -20.985   3.725  1.00  0.00     0.025 A 
HETATM   16  C   UNL     1      44.827 -19.992   4.694  1.00  0.00     0.006 A 
HETATM   17  C   UNL     1      44.037 -18.866   4.494  1.00  0.00     0.048 A 
ENDBRANCH   8  10
ENDBRANCH   7   8
ENDBRANCH   1   7
BRANCH   3  18
HETATM   18  C   UNL     1      44.832 -14.393   6.998  1.00  0.00     0.276 C 
BRANCH  18  19
HETATM   19  C   UNL     1      45.206 -13.235   7.880  1.00  0.00     0.002 A 
HETATM   20  C   UNL     1      46.373 -12.496   7.651  1.00  0.00     0.073 A 
HETATM   21  C   UNL     1      46.736 -11.436   8.480  1.00  0.00     0.038 A 
HETATM   22  C   UNL     1      45.919 -11.098   9.560  1.00  0.00     0.022 A 
HETATM   23  C   UNL     1      44.756 -11.825   9.803  1.00  0.00     0.011 A 
HETATM   24 BR   UNL     1      43.639 -11.358  11.253  1.00  0.00    -0.051 Br
HETATM   25  C   UNL     1      44.400 -12.893   8.977  1.00  0.00     0.030 A 
BRANCH  20  26
HETATM   26  O   UNL     1      47.145 -12.826   6.569  1.00  0.00    -0.360 OA
HETATM   27  H   UNL     1      47.714 -13.580   6.830  1.00  0.00     0.217 HD
ENDBRANCH  20  26
ENDBRANCH  18  19
ENDBRANCH   3  18
TORSDOF 6
ENDMDL
MODEL 2
REMARK VINA RESULT:      -8.0      3.366      8.485
REMARK  6 active torsions:
REMARK  status: ('A' for Active; 'I' for Inactive)
REMARK    1  A    between atoms: C_5  and  N_6 
REMARK    2  A    between atoms: N_6  and  C_7 
REMARK    3  A    between atoms: C_7  and  C_8 
REMARK    4  A    between atoms: N_10  and  C_12 
REMARK    5  A    between atoms: C_12  and  C_13 
REMARK    6  A    between atoms: C_14  and  O_15 
ROOT
HETATM    1  C   UNL     1      43.083 -14.418   5.914  1.00  0.00     0.031 C 
HETATM    2  C   UNL     1      43.266 -14.880   4.475  1.00  0.00     0.241 C 
HETATM    3  N   UNL     1      41.849 -15.024   3.970  1.00  0.00    -0.067 N 
HETATM    4  H   UNL     1      41.824 -14.721   2.979  1.00  0.00     0.280 HD
HETATM    5  C   UNL     1      40.971 -14.116   4.800  1.00  0.00     0.235 C 
HETATM    6  C   UNL     1      41.927 -13.433   5.771  1.00  0.00     0.035 C 
ENDROOT
BRANCH   1   7
HETATM    7  C   UNL     1      44.339 -13.803   6.543  1.00  0.00     0.127 C 
BRANCH   7   8
HETATM    8  N   UNL     1      44.321 -13.998   7.987  1.00  0.00    -0.376 N 
HETATM    9  H   UNL     1      43.497 -14.504   8.329  1.00  0.00     0.161 HD
BRANCH   8  10
HETATM   10  C   UNL     1      44.614 -12.967   8.886  1.00  0.00     0.101 A 
HETATM   11  N   UNL     1      43.882 -12.721   9.986  1.00  0.00    -0.347 N 
HETATM   12  C   UNL     1      44.157 -11.731  10.860  1.00  0.00     0.007 A 
HETATM   13  H   UNL     1      43.093 -13.322  10.187  1.00  0.00     0.167 HD
HETATM   14  C   UNL     1      43.305 -11.582  12.080  1.00  0.00     0.068 C 
HETATM   15  C   UNL     1      45.233 -10.881  10.614  1.00  0.00     0.025 A 
HETATM   16  C   UNL     1      46.005 -11.074   9.476  1.00  0.00     0.006 A 
HETATM   17  C   UNL     1      45.696 -12.119   8.613  1.00  0.00     0.048 A 
ENDBRANCH   8  10
ENDBRANCH   7   8
ENDBRANCH   1   7
BRANCH   3  18
HETATM   18  C   UNL     1      41.333 -16.445   3.900  1.00  0.00     0.276 C 
BRANCH  18  19
HETATM   19  C   UNL     1      42.347 -17.426   3.381  1.00  0.00     0.002 A 
HETATM   20  C   UNL     1      42.698 -17.457   2.025  1.00  0.00     0.073 A 
HETATM   21  C   UNL     1      43.620 -18.381   1.535  1.00  0.00     0.038 A 
HETATM   22  C   UNL     1      44.211 -19.292   2.411  1.00  0.00     0.022 A 
HETATM   23  C   UNL     1      43.871 -19.275   3.762  1.00  0.00     0.011 A 
HETATM   24 BR   UNL     1      44.683 -20.496   4.953  1.00  0.00    -0.051 Br
HETATM   25  C   UNL     1      42.939 -18.356   4.249  1.00  0.00     0.030 A 
BRANCH  20  26
HETATM   26  O   UNL     1      42.128 -16.535   1.189  1.00  0.00    -0.360 OA
HETATM   27  H   UNL     1      41.190 -16.433   1.456  1.00  0.00     0.217 HD
ENDBRANCH  20  26
ENDBRANCH  18  19
ENDBRANCH   3  18
TORSDOF 6
ENDMDL
MODEL 3
REMARK VINA RESULT:      -8.0      3.643      8.872
REMARK  6 active torsions:
REMARK  status: ('A' for Active; 'I' for Inactive)
REMARK    1  A    between atoms: C_5  and  N_6 
REMARK    2  A    between atoms: N_6  and  C_7 
REMARK    3  A    between atoms: C_7  and  C_8 
REMARK    4  A    between atoms: N_10  and  C_12 
REMARK    5  A    between atoms: C_12  and  C_13 
REMARK    6  A    between atoms: C_14  and  O_15 
ROOT
HETATM    1  C   UNL     1      44.153 -15.975   6.987  1.00  0.00     0.031 C 
HETATM    2  C   UNL     1      43.545 -16.811   5.870  1.00  0.00     0.241 C 
HETATM    3  N   UNL     1      43.562 -18.213   6.432  1.00  0.00    -0.067 N 
HETATM    4  H   UNL     1      42.702 -18.700   6.118  1.00  0.00     0.280 HD
HETATM    5  C   UNL     1      43.559 -18.104   7.940  1.00  0.00     0.235 C 
HETATM    6  C   UNL     1      43.514 -16.606   8.221  1.00  0.00     0.035 C 
ENDROOT
BRANCH   1   7
HETATM    7  C   UNL     1      43.890 -14.470   6.863  1.00  0.00     0.127 C 
BRANCH   7   8
HETATM    8  N   UNL     1      44.987 -13.720   7.463  1.00  0.00    -0.376 N 
HETATM    9  H   UNL     1      45.747 -14.308   7.819  1.00  0.00     0.161 HD
BRANCH   8  10
HETATM   10  C   UNL     1      44.773 -12.674   8.366  1.00  0.00     0.101 A 
HETATM   11  N   UNL     1      43.574 -12.095   8.550  1.00  0.00    -0.347 N 
HETATM   12  C   UNL     1      43.356 -11.087   9.420  1.00  0.00     0.007 A 
HETATM   13  H   UNL     1      42.782 -12.446   8.026  1.00  0.00     0.167 HD
HETATM   14  C   UNL     1      41.968 -10.555   9.582  1.00  0.00     0.068 C 
HETATM   15  C   UNL     1      44.423 -10.577  10.156  1.00  0.00     0.025 A 
HETATM   16  C   UNL     1      45.689 -11.119   9.982  1.00  0.00     0.006 A 
HETATM   17  C   UNL     1      45.863 -12.170   9.089  1.00  0.00     0.048 A 
ENDBRANCH   8  10
ENDBRANCH   7   8
ENDBRANCH   1   7
BRANCH   3  18
HETATM   18  C   UNL     1      44.665 -19.104   5.904  1.00  0.00     0.276 C 
BRANCH  18  19
HETATM   19  C   UNL     1      44.443 -19.558   4.489  1.00  0.00     0.002 A 
HETATM   20  C   UNL     1      44.618 -20.897   4.120  1.00  0.00     0.073 A 
HETATM   21  C   UNL     1      44.436 -21.318   2.803  1.00  0.00     0.038 A 
HETATM   22  C   UNL     1      44.068 -20.388   1.830  1.00  0.00     0.022 A 
HETATM   23  C   UNL     1      43.893 -19.051   2.180  1.00  0.00     0.011 A 
HETATM   24 BR   UNL     1      43.377 -17.794   0.869  1.00  0.00    -0.051 Br
HETATM   25  C   UNL     1      44.086 -18.630   3.498  1.00  0.00     0.030 A 
BRANCH  20  26
HETATM   26  O   UNL     1      44.950 -21.798   5.096  1.00  0.00    -0.360 OA
HETATM   27  H   UNL     1      45.821 -22.182   4.861  1.00  0.00     0.217 HD
ENDBRANCH  20  26
ENDBRANCH  18  19
ENDBRANCH   3  18
TORSDOF 6
ENDMDL
MODEL 4
REMARK VINA RESULT:      -7.9      5.630      8.035
REMARK  6 active torsions:
REMARK  status: ('A' for Active; 'I' for Inactive)
REMARK    1  A    between atoms: C_5  and  N_6 
REMARK    2  A    between atoms: N_6  and  C_7 
REMARK    3  A    between atoms: C_7  and  C_8 
REMARK    4  A    between atoms: N_10  and  C_12 
REMARK    5  A    between atoms: C_12  and  C_13 
REMARK    6  A    between atoms: C_14  and  O_15 
ROOT
HETATM    1  C   UNL     1      40.328 -15.041   2.192  1.00  0.00     0.031 C 
HETATM    2  C   UNL     1      40.635 -16.530   2.259  1.00  0.00     0.241 C 
HETATM    3  N   UNL     1      41.589 -16.639   3.425  1.00  0.00    -0.067 N 
HETATM    4  H   UNL     1      41.382 -17.519   3.934  1.00  0.00     0.280 HD
HETATM    5  C   UNL     1      41.340 -15.459   4.335  1.00  0.00     0.235 C 
HETATM    6  C   UNL     1      40.203 -14.690   3.671  1.00  0.00     0.035 C 
ENDROOT
BRANCH   1   7
HETATM    7  C   UNL     1      39.081 -14.690   1.371  1.00  0.00     0.127 C 
BRANCH   7   8
HETATM    8  N   UNL     1      39.452 -13.871   0.224  1.00  0.00    -0.376 N 
HETATM    9  H   UNL     1      38.974 -12.964   0.188  1.00  0.00     0.161 HD
BRANCH   8  10
HETATM   10  C   UNL     1      39.523 -14.388  -1.074  1.00  0.00     0.101 A 
HETATM   11  N   UNL     1      38.468 -14.436  -1.905  1.00  0.00    -0.347 N 
HETATM   12  C   UNL     1      38.525 -14.930  -3.159  1.00  0.00     0.007 A 
HETATM   13  H   UNL     1      37.583 -14.060  -1.585  1.00  0.00     0.167 HD
HETATM   14  C   UNL     1      37.300 -14.884  -4.015  1.00  0.00     0.068 C 
HETATM   15  C   UNL     1      39.726 -15.459  -3.630  1.00  0.00     0.025 A 
HETATM   16  C   UNL     1      40.839 -15.460  -2.802  1.00  0.00     0.006 A 
HETATM   17  C   UNL     1      40.738 -14.922  -1.524  1.00  0.00     0.048 A 
ENDBRANCH   8  10
ENDBRANCH   7   8
ENDBRANCH   1   7
BRANCH   3  18
HETATM   18  C   UNL     1      43.046 -16.802   3.050  1.00  0.00     0.276 C 
BRANCH  18  19
HETATM   19  C   UNL     1      43.627 -18.125   3.463  1.00  0.00     0.002 A 
HETATM   20  C   UNL     1      44.158 -18.317   4.745  1.00  0.00     0.073 A 
HETATM   21  C   UNL     1      44.719 -19.535   5.125  1.00  0.00     0.038 A 
HETATM   22  C   UNL     1      44.750 -20.590   4.212  1.00  0.00     0.022 A 
HETATM   23  C   UNL     1      44.229 -20.415   2.932  1.00  0.00     0.011 A 
HETATM   24 BR   UNL     1      44.254 -21.848   1.701  1.00  0.00    -0.051 Br
HETATM   25  C   UNL     1      43.677 -19.191   2.551  1.00  0.00     0.030 A 
BRANCH  20  26
HETATM   26  O   UNL     1      44.090 -17.277   5.634  1.00  0.00    -0.360 OA
HETATM   27  H   UNL     1      44.600 -16.531   5.256  1.00  0.00     0.217 HD
ENDBRANCH  20  26
ENDBRANCH  18  19
ENDBRANCH   3  18
TORSDOF 6
ENDMDL
MODEL 5
REMARK VINA RESULT:      -7.9      3.343      4.240
REMARK  6 active torsions:
REMARK  status: ('A' for Active; 'I' for Inactive)
REMARK    1  A    between atoms: C_5  and  N_6 
REMARK    2  A    between atoms: N_6  and  C_7 
REMARK    3  A    between atoms: C_7  and  C_8 
REMARK    4  A    between atoms: N_10  and  C_12 
REMARK    5  A    between atoms: C_12  and  C_13 
REMARK    6  A    between atoms: C_14  and  O_15 
ROOT
HETATM    1  C   UNL     1      41.816 -15.366   2.465  1.00  0.00     0.031 C 
HETATM    2  C   UNL     1      40.671 -16.030   3.216  1.00  0.00     0.241 C 
HETATM    3  N   UNL     1      39.820 -14.863   3.662  1.00  0.00    -0.067 N 
HETATM    4  H   UNL     1      38.824 -15.144   3.600  1.00  0.00     0.280 HD
HETATM    5  C   UNL     1      40.081 -13.715   2.714  1.00  0.00     0.235 C 
HETATM    6  C   UNL     1      41.082 -14.266   1.704  1.00  0.00     0.035 C 
ENDROOT
BRANCH   1   7
HETATM    7  C   UNL     1      42.609 -16.314   1.559  1.00  0.00     0.127 C 
BRANCH   7   8
HETATM    8  N   UNL     1      42.208 -17.693   1.805  1.00  0.00    -0.376 N 
HETATM    9  H   UNL     1      41.261 -17.790   2.186  1.00  0.00     0.161 HD
BRANCH   8  10
HETATM   10  C   UNL     1      43.042 -18.612   2.450  1.00  0.00     0.101 A 
HETATM   11  N   UNL     1      43.347 -19.816   1.935  1.00  0.00    -0.347 N 
HETATM   12  C   UNL     1      44.152 -20.709   2.547  1.00  0.00     0.007 A 
HETATM   13  H   UNL     1      42.972 -20.062   1.027  1.00  0.00     0.167 HD
HETATM   14  C   UNL     1      44.466 -21.997   1.856  1.00  0.00     0.068 C 
HETATM   15  C   UNL     1      44.682 -20.405   3.799  1.00  0.00     0.025 A 
HETATM   16  C   UNL     1      44.375 -19.187   4.389  1.00  0.00     0.006 A 
HETATM   17  C   UNL     1      43.557 -18.289   3.713  1.00  0.00     0.048 A 
ENDBRANCH   8  10
ENDBRANCH   7   8
ENDBRANCH   1   7
BRANCH   3  18
HETATM   18  C   UNL     1      39.971 -14.477   5.117  1.00  0.00     0.276 C 
BRANCH  18  19
HETATM   19  C   UNL     1      41.158 -15.112   5.786  1.00  0.00     0.002 A 
HETATM   20  C   UNL     1      41.071 -16.386   6.362  1.00  0.00     0.073 A 
HETATM   21  C   UNL     1      42.162 -16.969   7.004  1.00  0.00     0.038 A 
HETATM   22  C   UNL     1      43.370 -16.274   7.072  1.00  0.00     0.022 A 
HETATM   23  C   UNL     1      43.472 -15.005   6.507  1.00  0.00     0.011 A 
HETATM   24 BR   UNL     1      45.112 -14.070   6.583  1.00  0.00    -0.051 Br
HETATM   25  C   UNL     1      42.375 -14.419   5.873  1.00  0.00     0.030 A 
BRANCH  20  26
HETATM   26  O   UNL     1      39.885 -17.063   6.257  1.00  0.00    -0.360 OA
HETATM   27  H   UNL     1      39.982 -17.720   5.537  1.00  0.00     0.217 HD
ENDBRANCH  20  26
ENDBRANCH  18  19
ENDBRANCH   3  18
TORSDOF 6
ENDMDL
MODEL 6
REMARK VINA RESULT:      -7.9      4.818      6.869
REMARK  6 active torsions:
REMARK  status: ('A' for Active; 'I' for Inactive)
REMARK    1  A    between atoms: C_5  and  N_6 
REMARK    2  A    between atoms: N_6  and  C_7 
REMARK    3  A    between atoms: C_7  and  C_8 
REMARK    4  A    between atoms: N_10  and  C_12 
REMARK    5  A    between atoms: C_12  and  C_13 
REMARK    6  A    between atoms: C_14  and  O_15 
ROOT
HETATM    1  C   UNL     1      42.895 -16.047   3.971  1.00  0.00     0.031 C 
HETATM    2  C   UNL     1      43.240 -15.529   2.582  1.00  0.00     0.241 C 
HETATM    3  N   UNL     1      42.849 -14.071   2.645  1.00  0.00    -0.067 N 
HETATM    4  H   UNL     1      43.541 -13.525   2.098  1.00  0.00     0.280 HD
HETATM    5  C   UNL     1      42.899 -13.643   4.094  1.00  0.00     0.235 C 
HETATM    6  C   UNL     1      43.352 -14.888   4.850  1.00  0.00     0.035 C 
ENDROOT
BRANCH   1   7
HETATM    7  C   UNL     1      43.555 -17.384   4.328  1.00  0.00     0.127 C 
BRANCH   7   8
HETATM    8  N   UNL     1      43.952 -18.085   3.113  1.00  0.00    -0.376 N 
HETATM    9  H   UNL     1      43.463 -17.766   2.270  1.00  0.00     0.161 HD
BRANCH   8  10
HETATM   10  C   UNL     1      44.073 -19.477   3.057  1.00  0.00     0.101 A 
HETATM   11  N   UNL     1      44.563 -20.213   4.069  1.00  0.00    -0.347 N 
HETATM   12  C   UNL     1      44.683 -21.557   4.027  1.00  0.00     0.007 A 
HETATM   13  H   UNL     1      44.839 -19.741   4.922  1.00  0.00     0.167 HD
HETATM   14  C   UNL     1      45.192 -22.279   5.233  1.00  0.00     0.068 C 
HETATM   15  C   UNL     1      44.317 -22.239   2.868  1.00  0.00     0.025 A 
HETATM   16  C   UNL     1      43.832 -21.523   1.783  1.00  0.00     0.006 A 
HETATM   17  C   UNL     1      43.708 -20.142   1.878  1.00  0.00     0.048 A 
ENDBRANCH   8  10
ENDBRANCH   7   8
ENDBRANCH   1   7
BRANCH   3  18
HETATM   18  C   UNL     1      41.539 -13.727   1.970  1.00  0.00     0.276 C 
BRANCH  18  19
HETATM   19  C   UNL     1      41.665 -13.523   0.486  1.00  0.00     0.002 A 
HETATM   20  C   UNL     1      42.214 -12.348  -0.041  1.00  0.00     0.073 A 
HETATM   21  C   UNL     1      42.311 -12.145  -1.417  1.00  0.00     0.038 A 
HETATM   22  C   UNL     1      41.857 -13.134  -2.290  1.00  0.00     0.022 A 
HETATM   23  C   UNL     1      41.305 -14.307  -1.782  1.00  0.00     0.011 A 
HETATM   24 BR   UNL     1      40.705 -15.655  -2.962  1.00  0.00    -0.051 Br
HETATM   25  C   UNL     1      41.200 -14.504  -0.403  1.00  0.00     0.030 A 
BRANCH  20  26
HETATM   26  O   UNL     1      42.681 -11.403   0.834  1.00  0.00    -0.360 OA
HETATM   27  H   UNL     1      42.494 -11.723   1.741  1.00  0.00     0.217 HD
ENDBRANCH  20  26
ENDBRANCH  18  19
ENDBRANCH   3  18
TORSDOF 6
ENDMDL
MODEL 7
REMARK VINA RESULT:      -7.9      3.730      5.624
REMARK  6 active torsions:
REMARK  status: ('A' for Active; 'I' for Inactive)
REMARK    1  A    between atoms: C_5  and  N_6 
REMARK    2  A    between atoms: N_6  and  C_7 
REMARK    3  A    between atoms: C_7  and  C_8 
REMARK    4  A    between atoms: N_10  and  C_12 
REMARK    5  A    between atoms: C_12  and  C_13 
REMARK    6  A    between atoms: C_14  and  O_15 
ROOT
HETATM    1  C   UNL     1      42.218 -14.549   5.275  1.00  0.00     0.031 C 
HETATM    2  C   UNL     1      42.297 -15.590   6.383  1.00  0.00     0.241 C 
HETATM    3  N   UNL     1      43.550 -15.206   7.135  1.00  0.00    -0.067 N 
HETATM    4  H   UNL     1      43.388 -15.374   8.146  1.00  0.00     0.280 HD
HETATM    5  C   UNL     1      43.795 -13.733   6.900  1.00  0.00     0.235 C 
HETATM    6  C   UNL     1      42.636 -13.284   6.017  1.00  0.00     0.035 C 
ENDROOT
BRANCH   1   7
HETATM    7  C   UNL     1      40.842 -14.442   4.608  1.00  0.00     0.127 C 
BRANCH   7   8
HETATM    8  N   UNL     1      40.453 -15.733   4.054  1.00  0.00    -0.376 N 
HETATM    9  H   UNL     1      40.332 -16.469   4.758  1.00  0.00     0.161 HD
BRANCH   8  10
HETATM   10  C   UNL     1      41.083 -16.287   2.935  1.00  0.00     0.101 A 
HETATM   11  N   UNL     1      40.913 -15.817   1.688  1.00  0.00    -0.347 N 
HETATM   12  C   UNL     1      41.517 -16.342   0.601  1.00  0.00     0.007 A 
HETATM   13  H   UNL     1      40.318 -15.008   1.552  1.00  0.00     0.167 HD
HETATM   14  C   UNL     1      41.298 -15.703  -0.732  1.00  0.00     0.068 C 
HETATM   15  C   UNL     1      42.340 -17.457   0.750  1.00  0.00     0.025 A 
HETATM   16  C   UNL     1      42.526 -18.001   2.013  1.00  0.00     0.006 A 
HETATM   17  C   UNL     1      41.899 -17.414   3.106  1.00  0.00     0.048 A 
ENDBRANCH   8  10
ENDBRANCH   7   8
ENDBRANCH   1   7
BRANCH   3  18
HETATM   18  C   UNL     1      44.763 -16.063   6.843  1.00  0.00     0.276 C 
BRANCH  18  19
HETATM   19  C   UNL     1      44.450 -17.529   6.740  1.00  0.00     0.002 A 
HETATM   20  C   UNL     1      43.938 -18.241   7.833  1.00  0.00     0.073 A 
HETATM   21  C   UNL     1      43.669 -19.606   7.749  1.00  0.00     0.038 A 
HETATM   22  C   UNL     1      43.909 -20.280   6.551  1.00  0.00     0.022 A 
HETATM   23  C   UNL     1      44.421 -19.588   5.456  1.00  0.00     0.011 A 
HETATM   24 BR   UNL     1      44.731 -20.495   3.829  1.00  0.00    -0.051 Br
HETATM   25  C   UNL     1      44.700 -18.223   5.546  1.00  0.00     0.030 A 
BRANCH  20  26
HETATM   26  O   UNL     1      43.681 -17.553   8.989  1.00  0.00    -0.360 OA
HETATM   27  H   UNL     1      43.120 -18.123   9.555  1.00  0.00     0.217 HD
ENDBRANCH  20  26
ENDBRANCH  18  19
ENDBRANCH   3  18
TORSDOF 6
ENDMDL
MODEL 8
REMARK VINA RESULT:      -7.7      4.840      7.799
REMARK  6 active torsions:
REMARK  status: ('A' for Active; 'I' for Inactive)
REMARK    1  A    between atoms: C_5  and  N_6 
REMARK    2  A    between atoms: N_6  and  C_7 
REMARK    3  A    between atoms: C_7  and  C_8 
REMARK    4  A    between atoms: N_10  and  C_12 
REMARK    5  A    between atoms: C_12  and  C_13 
REMARK    6  A    between atoms: C_14  and  O_15 
ROOT
HETATM    1  C   UNL     1      41.121 -15.288   4.367  1.00  0.00     0.031 C 
HETATM    2  C   UNL     1      41.221 -16.774   4.055  1.00  0.00     0.241 C 
HETATM    3  N   UNL     1      42.180 -17.289   5.104  1.00  0.00    -0.067 N 
HETATM    4  H   UNL     1      41.866 -18.233   5.397  1.00  0.00     0.280 HD
HETATM    5  C   UNL     1      42.119 -16.347   6.285  1.00  0.00     0.235 C 
HETATM    6  C   UNL     1      41.082 -15.299   5.892  1.00  0.00     0.035 C 
ENDROOT
BRANCH   1   7
HETATM    7  C   UNL     1      39.915 -14.589   3.728  1.00  0.00     0.127 C 
BRANCH   7   8
HETATM    8  N   UNL     1      39.388 -15.400   2.638  1.00  0.00    -0.376 N 
HETATM    9  H   UNL     1      39.819 -16.327   2.562  1.00  0.00     0.161 HD
BRANCH   8  10
HETATM   10  C   UNL     1      39.200 -14.890   1.349  1.00  0.00     0.101 A 
HETATM   11  N   UNL     1      40.132 -14.973   0.383  1.00  0.00    -0.347 N 
HETATM   12  C   UNL     1      39.961 -14.487  -0.864  1.00  0.00     0.007 A 
HETATM   13  H   UNL     1      41.003 -15.445   0.590  1.00  0.00     0.167 HD
HETATM   14  C   UNL     1      41.045 -14.683  -1.875  1.00  0.00     0.068 C 
HETATM   15  C   UNL     1      38.775 -13.828  -1.184  1.00  0.00     0.025 A 
HETATM   16  C   UNL     1      37.792 -13.689  -0.214  1.00  0.00     0.006 A 
HETATM   17  C   UNL     1      38.004 -14.223   1.052  1.00  0.00     0.048 A 
ENDBRANCH   8  10
ENDBRANCH   7   8
ENDBRANCH   1   7
BRANCH   3  18
HETATM   18  C   UNL     1      43.591 -17.538   4.618  1.00  0.00     0.276 C 
BRANCH  18  19
HETATM   19  C   UNL     1      43.946 -18.997   4.534  1.00  0.00     0.002 A 
HETATM   20  C   UNL     1      44.273 -19.731   5.681  1.00  0.00     0.073 A 
HETATM   21  C   UNL     1      44.626 -21.077   5.605  1.00  0.00     0.038 A 
HETATM   22  C   UNL     1      44.652 -21.711   4.362  1.00  0.00     0.022 A 
HETATM   23  C   UNL     1      44.332 -20.994   3.212  1.00  0.00     0.011 A 
HETATM   24 BR   UNL     1      44.348 -21.855   1.530  1.00  0.00    -0.051 Br
HETATM   25  C   UNL     1      43.988 -19.643   3.289  1.00  0.00     0.030 A 
BRANCH  20  26
HETATM   26  O   UNL     1      44.213 -19.097   6.893  1.00  0.00    -0.360 OA
HETATM   27  H   UNL     1      45.131 -18.891   7.165  1.00  0.00     0.217 HD
ENDBRANCH  20  26
ENDBRANCH  18  19
ENDBRANCH   3  18
TORSDOF 6
ENDMDL
MODEL 9
REMARK VINA RESULT:      -7.7      5.764      7.667
REMARK  6 active torsions:
REMARK  status: ('A' for Active; 'I' for Inactive)
REMARK    1  A    between atoms: C_5  and  N_6 
REMARK    2  A    between atoms: N_6  and  C_7 
REMARK    3  A    between atoms: C_7  and  C_8 
REMARK    4  A    between atoms: N_10  and  C_12 
REMARK    5  A    between atoms: C_12  and  C_13 
REMARK    6  A    between atoms: C_14  and  O_15 
ROOT
HETATM    1  C   UNL     1      41.684 -16.855   3.064  1.00  0.00     0.031 C 
HETATM    2  C   UNL     1      42.556 -16.190   2.009  1.00  0.00     0.241 C 
HETATM    3  N   UNL     1      41.603 -15.250   1.308  1.00  0.00    -0.067 N 
HETATM    4  H   UNL     1      42.119 -14.383   1.067  1.00  0.00     0.280 HD
HETATM    5  C   UNL     1      40.487 -14.922   2.273  1.00  0.00     0.235 C 
HETATM    6  C   UNL     1      40.843 -15.678   3.549  1.00  0.00     0.035 C 
ENDROOT
BRANCH   1   7
HETATM    7  C   UNL     1      42.468 -17.550   4.183  1.00  0.00     0.127 C 
BRANCH   7   8
HETATM    8  N   UNL     1      43.732 -18.060   3.666  1.00  0.00    -0.376 N 
HETATM    9  H   UNL     1      44.116 -17.511   2.889  1.00  0.00     0.161 HD
BRANCH   8  10
HETATM   10  C   UNL     1      43.938 -19.417   3.396  1.00  0.00     0.101 A 
HETATM   11  N   UNL     1      44.482 -20.268   4.282  1.00  0.00    -0.347 N 
HETATM   12  C   UNL     1      44.684 -21.579   4.033  1.00  0.00     0.007 A 
HETATM   13  H   UNL     1      44.737 -19.917   5.197  1.00  0.00     0.167 HD
HETATM   14  C   UNL     1      45.248 -22.445   5.114  1.00  0.00     0.068 C 
HETATM   15  C   UNL     1      44.348 -22.096   2.783  1.00  0.00     0.025 A 
HETATM   16  C   UNL     1      43.809 -21.253   1.822  1.00  0.00     0.006 A 
HETATM   17  C   UNL     1      43.602 -19.914   2.129  1.00  0.00     0.048 A 
ENDBRANCH   8  10
ENDBRANCH   7   8
ENDBRANCH   1   7
BRANCH   3  18
HETATM   18  C   UNL     1      41.102 -15.729  -0.037  1.00  0.00     0.276 C 
BRANCH  18  19
HETATM   19  C   UNL     1      41.310 -14.733  -1.143  1.00  0.00     0.002 A 
HETATM   20  C   UNL     1      40.905 -15.009  -2.455  1.00  0.00     0.073 A 
HETATM   21  C   UNL     1      41.118 -14.098  -3.489  1.00  0.00     0.038 A 
HETATM   22  C   UNL     1      41.744 -12.882  -3.213  1.00  0.00     0.022 A 
HETATM   23  C   UNL     1      42.155 -12.593  -1.914  1.00  0.00     0.011 A 
HETATM   24 BR   UNL     1      42.986 -10.939  -1.535  1.00  0.00    -0.051 Br
HETATM   25  C   UNL     1      41.950 -13.511  -0.883  1.00  0.00     0.030 A 
BRANCH  20  26
HETATM   26  O   UNL     1      40.267 -16.196  -2.697  1.00  0.00    -0.360 OA
HETATM   27  H   UNL     1      39.554 -16.022  -3.347  1.00  0.00     0.217 HD
ENDBRANCH  20  26
ENDBRANCH  18  19
ENDBRANCH   3  18
TORSDOF 6
ENDMDL
MODEL 10
REMARK VINA RESULT:      -7.5      5.844      7.711
REMARK  6 active torsions:
REMARK  status: ('A' for Active; 'I' for Inactive)
REMARK    1  A    between atoms: C_5  and  N_6 
REMARK    2  A    between atoms: N_6  and  C_7 
REMARK    3  A    between atoms: C_7  and  C_8 
REMARK    4  A    between atoms: N_10  and  C_12 
REMARK    5  A    between atoms: C_12  and  C_13 
REMARK    6  A    between atoms: C_14  and  O_15 
ROOT
HETATM    1  C   UNL     1      40.937 -16.343   1.826  1.00  0.00     0.031 C 
HETATM    2  C   UNL     1      42.047 -15.471   1.256  1.00  0.00     0.241 C 
HETATM    3  N   UNL     1      41.301 -14.441   0.440  1.00  0.00    -0.067 N 
HETATM    4  H   UNL     1      41.790 -13.532   0.537  1.00  0.00     0.280 HD
HETATM    5  C   UNL     1      39.905 -14.327   1.008  1.00  0.00     0.235 C 
HETATM    6  C   UNL     1      39.884 -15.298   2.184  1.00  0.00     0.035 C 
ENDROOT
BRANCH   1   7
HETATM    7  C   UNL     1      41.365 -17.214   3.012  1.00  0.00     0.127 C 
BRANCH   7   8
HETATM    8  N   UNL     1      42.819 -17.287   3.080  1.00  0.00    -0.376 N 
HETATM    9  H   UNL     1      43.296 -16.795   2.317  1.00  0.00     0.161 HD
BRANCH   8  10
HETATM   10  C   UNL     1      43.497 -18.484   3.330  1.00  0.00     0.101 A 
HETATM   11  N   UNL     1      43.484 -19.527   2.482  1.00  0.00    -0.347 N 
HETATM   12  C   UNL     1      44.137 -20.686   2.712  1.00  0.00     0.007 A 
HETATM   13  H   UNL     1      42.977 -19.436   1.611  1.00  0.00     0.167 HD
HETATM   14  C   UNL     1      44.097 -21.761   1.674  1.00  0.00     0.068 C 
HETATM   15  C   UNL     1      44.842 -20.848   3.903  1.00  0.00     0.025 A 
HETATM   16  C   UNL     1      44.864 -19.812   4.826  1.00  0.00     0.006 A 
HETATM   17  C   UNL     1      44.193 -18.628   4.538  1.00  0.00     0.048 A 
ENDBRANCH   8  10
ENDBRANCH   7   8
ENDBRANCH   1   7
BRANCH   3  18
HETATM   18  C   UNL     1      41.315 -14.674  -1.055  1.00  0.00     0.276 C 
BRANCH  18  19
HETATM   19  C   UNL     1      41.710 -13.459  -1.847  1.00  0.00     0.002 A 
HETATM   20  C   UNL     1      41.483 -13.386  -3.227  1.00  0.00     0.073 A 
HETATM   21  C   UNL     1      41.869 -12.271  -3.969  1.00  0.00     0.038 A 
HETATM   22  C   UNL     1      42.491 -11.200  -3.325  1.00  0.00     0.022 A 
HETATM   23  C   UNL     1      42.727 -11.258  -1.954  1.00  0.00     0.011 A 
HETATM   24 BR   UNL     1      43.553  -9.803  -1.077  1.00  0.00    -0.051 Br
HETATM   25  C   UNL     1      42.348 -12.381  -1.214  1.00  0.00     0.030 A 
BRANCH  20  26
HETATM   26  O   UNL     1      40.844 -14.435  -3.832  1.00  0.00    -0.360 OA
HETATM   27  H   UNL     1      39.939 -14.137  -4.063  1.00  0.00     0.217 HD
ENDBRANCH  20  26
ENDBRANCH  18  19
ENDBRANCH   3  18
TORSDOF 6
ENDMDL
