MODEL 1
REMARK VINA RESULT:      -8.9      0.000      0.000
REMARK  5 active torsions:
REMARK  status: ('A' for Active; 'I' for Inactive)
REMARK    1  A    between atoms: C_4  and  N_5 
REMARK       I    between atoms: N_5  and  C_6 
REMARK       I    between atoms: C_6  and  N_7 
REMARK    2  A    between atoms: N_7  and  C_8 
REMARK    3  A    between atoms: C_8  and  C_9 
REMARK       I    between atoms: C_9  and  N_10 
REMARK    4  A    between atoms: N_10  and  C_11 
REMARK    5  A    between atoms: C_16  and  C_17 
ROOT
HETATM    1  C   UNL     1      45.194 -13.660   7.142  1.00  0.00     0.239 C 
HETATM    2  N   UNL     1      44.169 -14.559   7.387  1.00  0.00    -0.325 N 
HETATM    3  O   UNL     1      45.907 -13.608   6.145  1.00  0.00    -0.271 OA
HETATM    4  H   UNL     1      43.894 -14.631   8.367  1.00  0.00     0.169 HD
ENDROOT
BRANCH   1   5
HETATM    5  C   UNL     1      45.438 -12.720   8.327  1.00  0.00     0.227 C 
BRANCH   5   6
HETATM    6  N   UNL     1      44.393 -12.829   9.329  1.00  0.00    -0.334 N 
HETATM    7  C   UNL     1      43.997 -11.709  10.028  1.00  0.00     0.321 C 
HETATM    8  N   UNL     1      43.059 -12.033  10.977  1.00  0.00    -0.309 N 
HETATM    9  O   UNL     1      44.474 -10.604   9.796  1.00  0.00    -0.247 OA
HETATM   10  H   UNL     1      43.041 -13.009  11.238  1.00  0.00     0.170 HD
HETATM   11  H   UNL     1      43.661 -13.498   9.133  1.00  0.00     0.164 HD
BRANCH   8  12
HETATM   12  C   UNL     1      42.327 -11.147  11.790  1.00  0.00     0.036 A 
HETATM   13  C   UNL     1      42.746 -10.742  13.060  1.00  0.00     0.036 A 
HETATM   14  C   UNL     1      41.989  -9.826  13.809  1.00  0.00    -0.060 A 
HETATM   15  C   UNL     1      42.443  -9.410  15.176  1.00  0.00     0.048 C 
HETATM   16  C   UNL     1      40.783  -9.347  13.286  1.00  0.00     0.007 A 
HETATM   17  C   UNL     1      40.360  -9.743  12.019  1.00  0.00     0.003 A 
HETATM   18  C   UNL     1      41.135 -10.630  11.270  1.00  0.00     0.029 A 
ENDBRANCH   8  12
ENDBRANCH   5   6
ENDBRANCH   1   5
BRANCH   2  19
HETATM   19  C   UNL     1      43.556 -15.452   6.481  1.00  0.00     0.041 A 
HETATM   20  C   UNL     1      42.464 -14.995   5.713  1.00  0.00    -0.035 A 
HETATM   21  C   UNL     1      41.897 -13.607   5.862  1.00  0.00     0.050 C 
HETATM   22  C   UNL     1      41.869 -15.858   4.780  1.00  0.00     0.010 A 
HETATM   23  C   UNL     1      42.351 -17.154   4.597  1.00  0.00     0.016 A 
HETATM   24  C   UNL     1      43.436 -17.622   5.346  1.00  0.00     0.019 A 
HETATM   25  C   UNL     1      44.025 -16.759   6.286  1.00  0.00     0.046 A 
BRANCH  24  26
HETATM   26  C   UNL     1      43.971 -18.970   5.161  1.00  0.00     0.179 A 
HETATM   27  O   UNL     1      44.383 -19.305   3.893  1.00  0.00    -0.302 OA
HETATM   28  C   UNL     1      44.835 -20.584   4.015  1.00  0.00     0.163 A 
HETATM   29  C   UNL     1      44.682 -20.965   5.322  1.00  0.00     0.144 A 
HETATM   30  N   UNL     1      44.136 -19.936   6.046  1.00  0.00    -0.234 NA
ENDBRANCH  24  26
ENDBRANCH   2  19
TORSDOF 5
ENDMDL
MODEL 2
REMARK VINA RESULT:      -8.5      1.957      3.240
REMARK  5 active torsions:
REMARK  status: ('A' for Active; 'I' for Inactive)
REMARK    1  A    between atoms: C_4  and  N_5 
REMARK       I    between atoms: N_5  and  C_6 
REMARK       I    between atoms: C_6  and  N_7 
REMARK    2  A    between atoms: N_7  and  C_8 
REMARK    3  A    between atoms: C_8  and  C_9 
REMARK       I    between atoms: C_9  and  N_10 
REMARK    4  A    between atoms: N_10  and  C_11 
REMARK    5  A    between atoms: C_16  and  C_17 
ROOT
HETATM    1  C   UNL     1      45.098 -13.657   7.175  1.00  0.00     0.239 C 
HETATM    2  N   UNL     1      44.053 -14.527   7.435  1.00  0.00    -0.325 N 
HETATM    3  O   UNL     1      45.832 -13.657   6.192  1.00  0.00    -0.271 OA
HETATM    4  H   UNL     1      43.757 -14.554   8.412  1.00  0.00     0.169 HD
ENDROOT
BRANCH   1   5
HETATM    5  C   UNL     1      45.336 -12.674   8.326  1.00  0.00     0.227 C 
BRANCH   5   6
HETATM    6  N   UNL     1      44.324 -12.796   9.360  1.00  0.00    -0.334 N 
HETATM    7  C   UNL     1      43.926 -11.678  10.062  1.00  0.00     0.321 C 
HETATM    8  N   UNL     1      43.024 -12.014  11.042  1.00  0.00    -0.309 N 
HETATM    9  O   UNL     1      44.371 -10.566   9.806  1.00  0.00    -0.247 OA
HETATM   10  H   UNL     1      43.035 -12.987  11.311  1.00  0.00     0.170 HD
HETATM   11  H   UNL     1      43.602 -13.482   9.192  1.00  0.00     0.164 HD
BRANCH   8  12
HETATM   12  C   UNL     1      42.298 -11.137  11.869  1.00  0.00     0.036 A 
HETATM   13  C   UNL     1      40.990 -10.725  11.596  1.00  0.00     0.036 A 
HETATM   14  C   UNL     1      40.304  -9.877  12.480  1.00  0.00    -0.060 A 
HETATM   15  C   UNL     1      38.907  -9.432  12.168  1.00  0.00     0.048 C 
HETATM   16  C   UNL     1      40.956  -9.412  13.627  1.00  0.00     0.007 A 
HETATM   17  C   UNL     1      42.259  -9.822  13.909  1.00  0.00     0.003 A 
HETATM   18  C   UNL     1      42.921 -10.689  13.039  1.00  0.00     0.029 A 
ENDBRANCH   8  12
ENDBRANCH   5   6
ENDBRANCH   1   5
BRANCH   2  19
HETATM   19  C   UNL     1      43.441 -15.446   6.554  1.00  0.00     0.041 A 
HETATM   20  C   UNL     1      43.124 -16.735   7.033  1.00  0.00    -0.035 A 
HETATM   21  C   UNL     1      43.461 -17.182   8.431  1.00  0.00     0.050 C 
HETATM   22  C   UNL     1      42.480 -17.646   6.182  1.00  0.00     0.010 A 
HETATM   23  C   UNL     1      42.142 -17.289   4.876  1.00  0.00     0.016 A 
HETATM   24  C   UNL     1      42.444 -16.014   4.388  1.00  0.00     0.019 A 
HETATM   25  C   UNL     1      43.097 -15.105   5.238  1.00  0.00     0.046 A 
BRANCH  24  26
HETATM   26  C   UNL     1      42.085 -15.608   3.029  1.00  0.00     0.179 A 
HETATM   27  O   UNL     1      41.197 -16.413   2.356  1.00  0.00    -0.302 OA
HETATM   28  C   UNL     1      41.040 -15.802   1.149  1.00  0.00     0.163 A 
HETATM   29  C   UNL     1      41.823 -14.678   1.138  1.00  0.00     0.144 A 
HETATM   30  N   UNL     1      42.481 -14.557   2.335  1.00  0.00    -0.234 NA
ENDBRANCH  24  26
ENDBRANCH   2  19
TORSDOF 5
ENDMDL
MODEL 3
REMARK VINA RESULT:      -8.5      5.241      9.594
REMARK  5 active torsions:
REMARK  status: ('A' for Active; 'I' for Inactive)
REMARK    1  A    between atoms: C_4  and  N_5 
REMARK       I    between atoms: N_5  and  C_6 
REMARK       I    between atoms: C_6  and  N_7 
REMARK    2  A    between atoms: N_7  and  C_8 
REMARK    3  A    between atoms: C_8  and  C_9 
REMARK       I    between atoms: C_9  and  N_10 
REMARK    4  A    between atoms: N_10  and  C_11 
REMARK    5  A    between atoms: C_16  and  C_17 
ROOT
HETATM    1  C   UNL     1      43.192 -13.981   3.570  1.00  0.00     0.239 C 
HETATM    2  N   UNL     1      42.618 -15.119   4.110  1.00  0.00    -0.325 N 
HETATM    3  O   UNL     1      44.386 -13.705   3.528  1.00  0.00    -0.271 OA
HETATM    4  H   UNL     1      41.620 -15.036   4.310  1.00  0.00     0.169 HD
ENDROOT
BRANCH   1   5
HETATM    5  C   UNL     1      42.143 -12.985   3.063  1.00  0.00     0.227 C 
BRANCH   5   6
HETATM    6  N   UNL     1      42.114 -12.920   1.613  1.00  0.00    -0.334 N 
HETATM    7  C   UNL     1      41.269 -13.749   0.907  1.00  0.00     0.321 C 
HETATM    8  N   UNL     1      41.446 -13.590  -0.445  1.00  0.00    -0.309 N 
HETATM    9  O   UNL     1      40.500 -14.516   1.474  1.00  0.00    -0.247 OA
HETATM   10  H   UNL     1      42.327 -13.174  -0.711  1.00  0.00     0.170 HD
HETATM   11  H   UNL     1      42.259 -12.004   1.209  1.00  0.00     0.164 HD
BRANCH   8  12
HETATM   12  C   UNL     1      40.680 -14.161  -1.479  1.00  0.00     0.036 A 
HETATM   13  C   UNL     1      39.498 -13.594  -1.965  1.00  0.00     0.036 A 
HETATM   14  C   UNL     1      38.797 -14.193  -3.025  1.00  0.00    -0.060 A 
HETATM   15  C   UNL     1      37.523 -13.582  -3.528  1.00  0.00     0.048 C 
HETATM   16  C   UNL     1      39.273 -15.389  -3.571  1.00  0.00     0.007 A 
HETATM   17  C   UNL     1      40.453 -15.958  -3.094  1.00  0.00     0.003 A 
HETATM   18  C   UNL     1      41.159 -15.340  -2.061  1.00  0.00     0.029 A 
ENDBRANCH   8  12
ENDBRANCH   5   6
ENDBRANCH   1   5
BRANCH   2  19
HETATM   19  C   UNL     1      43.256 -16.311   4.516  1.00  0.00     0.041 A 
HETATM   20  C   UNL     1      43.811 -16.374   5.812  1.00  0.00    -0.035 A 
HETATM   21  C   UNL     1      43.792 -15.201   6.756  1.00  0.00     0.050 C 
HETATM   22  C   UNL     1      44.414 -17.565   6.245  1.00  0.00     0.010 A 
HETATM   23  C   UNL     1      44.461 -18.685   5.415  1.00  0.00     0.016 A 
HETATM   24  C   UNL     1      43.911 -18.642   4.130  1.00  0.00     0.019 A 
HETATM   25  C   UNL     1      43.315 -17.446   3.695  1.00  0.00     0.046 A 
BRANCH  24  26
HETATM   26  C   UNL     1      43.931 -19.807   3.247  1.00  0.00     0.179 A 
HETATM   27  O   UNL     1      44.675 -20.886   3.661  1.00  0.00    -0.302 OA
HETATM   28  C   UNL     1      44.507 -21.808   2.673  1.00  0.00     0.163 A 
HETATM   29  C   UNL     1      43.688 -21.263   1.720  1.00  0.00     0.144 A 
HETATM   30  N   UNL     1      43.322 -19.995   2.090  1.00  0.00    -0.234 NA
ENDBRANCH  24  26
ENDBRANCH   2  19
TORSDOF 5
ENDMDL
MODEL 4
REMARK VINA RESULT:      -8.4      2.382      9.887
REMARK  5 active torsions:
REMARK  status: ('A' for Active; 'I' for Inactive)
REMARK    1  A    between atoms: C_4  and  N_5 
REMARK       I    between atoms: N_5  and  C_6 
REMARK       I    between atoms: C_6  and  N_7 
REMARK    2  A    between atoms: N_7  and  C_8 
REMARK    3  A    between atoms: C_8  and  C_9 
REMARK       I    between atoms: C_9  and  N_10 
REMARK    4  A    between atoms: N_10  and  C_11 
REMARK    5  A    between atoms: C_16  and  C_17 
ROOT
HETATM    1  C   UNL     1      41.924 -10.692   7.263  1.00  0.00     0.239 C 
HETATM    2  N   UNL     1      42.147 -11.408   8.427  1.00  0.00    -0.325 N 
HETATM    3  O   UNL     1      41.943  -9.472   7.131  1.00  0.00    -0.271 OA
HETATM    4  H   UNL     1      41.808 -12.371   8.404  1.00  0.00     0.169 HD
ENDROOT
BRANCH   1   5
HETATM    5  C   UNL     1      41.549 -11.598   6.086  1.00  0.00     0.227 C 
BRANCH   5   6
HETATM    6  N   UNL     1      41.577 -13.003   6.454  1.00  0.00    -0.334 N 
HETATM    7  C   UNL     1      42.463 -13.856   5.831  1.00  0.00     0.321 C 
HETATM    8  N   UNL     1      42.280 -15.147   6.260  1.00  0.00    -0.309 N 
HETATM    9  O   UNL     1      43.268 -13.452   5.000  1.00  0.00    -0.247 OA
HETATM   10  H   UNL     1      41.380 -15.330   6.679  1.00  0.00     0.170 HD
HETATM   11  H   UNL     1      41.388 -13.209   7.425  1.00  0.00     0.164 HD
BRANCH   8  12
HETATM   12  C   UNL     1      43.075 -16.268   5.954  1.00  0.00     0.036 A 
HETATM   13  C   UNL     1      42.907 -17.040   4.801  1.00  0.00     0.036 A 
HETATM   14  C   UNL     1      43.757 -18.126   4.534  1.00  0.00    -0.060 A 
HETATM   15  C   UNL     1      43.558 -18.955   3.300  1.00  0.00     0.048 C 
HETATM   16  C   UNL     1      44.757 -18.456   5.455  1.00  0.00     0.007 A 
HETATM   17  C   UNL     1      44.933 -17.688   6.605  1.00  0.00     0.003 A 
HETATM   18  C   UNL     1      44.103 -16.593   6.847  1.00  0.00     0.029 A 
ENDBRANCH   8  12
ENDBRANCH   5   6
ENDBRANCH   1   5
BRANCH   2  19
HETATM   19  C   UNL     1      42.668 -10.941   9.654  1.00  0.00     0.041 A 
HETATM   20  C   UNL     1      44.020 -11.202   9.959  1.00  0.00    -0.035 A 
HETATM   21  C   UNL     1      44.913 -12.005   9.049  1.00  0.00     0.050 C 
HETATM   22  C   UNL     1      44.563 -10.710  11.156  1.00  0.00     0.010 A 
HETATM   23  C   UNL     1      43.786  -9.959  12.038  1.00  0.00     0.016 A 
HETATM   24  C   UNL     1      42.446  -9.685  11.748  1.00  0.00     0.019 A 
HETATM   25  C   UNL     1      41.901 -10.186  10.553  1.00  0.00     0.046 A 
BRANCH  24  26
HETATM   26  C   UNL     1      41.614  -8.886  12.647  1.00  0.00     0.179 A 
HETATM   27  O   UNL     1      40.351  -8.570  12.205  1.00  0.00    -0.302 OA
HETATM   28  C   UNL     1      39.810  -7.848  13.225  1.00  0.00     0.163 A 
HETATM   29  C   UNL     1      40.746  -7.755  14.221  1.00  0.00     0.144 A 
HETATM   30  N   UNL     1      41.887  -8.419  13.851  1.00  0.00    -0.234 NA
ENDBRANCH  24  26
ENDBRANCH   2  19
TORSDOF 5
ENDMDL
MODEL 5
REMARK VINA RESULT:      -8.4      5.730     10.185
REMARK  5 active torsions:
REMARK  status: ('A' for Active; 'I' for Inactive)
REMARK    1  A    between atoms: C_4  and  N_5 
REMARK       I    between atoms: N_5  and  C_6 
REMARK       I    between atoms: C_6  and  N_7 
REMARK    2  A    between atoms: N_7  and  C_8 
REMARK    3  A    between atoms: C_8  and  C_9 
REMARK       I    between atoms: C_9  and  N_10 
REMARK    4  A    between atoms: N_10  and  C_11 
REMARK    5  A    between atoms: C_16  and  C_17 
ROOT
HETATM    1  C   UNL     1      41.668 -14.832   4.265  1.00  0.00     0.239 C 
HETATM    2  N   UNL     1      42.358 -15.242   3.136  1.00  0.00    -0.325 N 
HETATM    3  O   UNL     1      40.777 -13.991   4.321  1.00  0.00    -0.271 OA
HETATM    4  H   UNL     1      43.238 -15.722   3.328  1.00  0.00     0.169 HD
ENDROOT
BRANCH   1   5
HETATM    5  C   UNL     1      42.193 -15.500   5.540  1.00  0.00     0.227 C 
BRANCH   5   6
HETATM    6  N   UNL     1      43.288 -16.412   5.264  1.00  0.00    -0.334 N 
HETATM    7  C   UNL     1      43.024 -17.737   4.992  1.00  0.00     0.321 C 
HETATM    8  N   UNL     1      44.190 -18.445   4.835  1.00  0.00    -0.309 N 
HETATM    9  O   UNL     1      41.877 -18.164   4.932  1.00  0.00    -0.247 OA
HETATM   10  H   UNL     1      45.007 -18.010   5.240  1.00  0.00     0.170 HD
HETATM   11  H   UNL     1      44.077 -16.017   4.769  1.00  0.00     0.164 HD
BRANCH   8  12
HETATM   12  C   UNL     1      44.326 -19.784   4.422  1.00  0.00     0.036 A 
HETATM   13  C   UNL     1      44.150 -20.204   3.100  1.00  0.00     0.036 A 
HETATM   14  C   UNL     1      44.336 -21.549   2.744  1.00  0.00    -0.060 A 
HETATM   15  C   UNL     1      44.130 -21.989   1.325  1.00  0.00     0.048 C 
HETATM   16  C   UNL     1      44.665 -22.481   3.734  1.00  0.00     0.007 A 
HETATM   17  C   UNL     1      44.846 -22.069   5.053  1.00  0.00     0.003 A 
HETATM   18  C   UNL     1      44.689 -20.725   5.392  1.00  0.00     0.029 A 
ENDBRANCH   8  12
ENDBRANCH   5   6
ENDBRANCH   1   5
BRANCH   2  19
HETATM   19  C   UNL     1      42.054 -14.976   1.783  1.00  0.00     0.041 A 
HETATM   20  C   UNL     1      41.573 -16.031   0.977  1.00  0.00    -0.035 A 
HETATM   21  C   UNL     1      41.422 -17.437   1.494  1.00  0.00     0.050 C 
HETATM   22  C   UNL     1      41.229 -15.773  -0.358  1.00  0.00     0.010 A 
HETATM   23  C   UNL     1      41.347 -14.490  -0.893  1.00  0.00     0.016 A 
HETATM   24  C   UNL     1      41.816 -13.433  -0.108  1.00  0.00     0.019 A 
HETATM   25  C   UNL     1      42.169 -13.694   1.228  1.00  0.00     0.046 A 
BRANCH  24  26
HETATM   26  C   UNL     1      41.933 -12.076  -0.638  1.00  0.00     0.179 A 
HETATM   27  O   UNL     1      43.136 -11.437  -0.446  1.00  0.00    -0.302 OA
HETATM   28  C   UNL     1      42.967 -10.222  -1.038  1.00  0.00     0.163 A 
HETATM   29  C   UNL     1      41.698 -10.173  -1.552  1.00  0.00     0.144 A 
HETATM   30  N   UNL     1      41.048 -11.353  -1.298  1.00  0.00    -0.234 NA
ENDBRANCH  24  26
ENDBRANCH   2  19
TORSDOF 5
ENDMDL
MODEL 6
REMARK VINA RESULT:      -8.3      1.932      9.673
REMARK  5 active torsions:
REMARK  status: ('A' for Active; 'I' for Inactive)
REMARK    1  A    between atoms: C_4  and  N_5 
REMARK       I    between atoms: N_5  and  C_6 
REMARK       I    between atoms: C_6  and  N_7 
REMARK    2  A    between atoms: N_7  and  C_8 
REMARK    3  A    between atoms: C_8  and  C_9 
REMARK       I    between atoms: C_9  and  N_10 
REMARK    4  A    between atoms: N_10  and  C_11 
REMARK    5  A    between atoms: C_16  and  C_17 
ROOT
HETATM    1  C   UNL     1      44.892 -11.340   9.230  1.00  0.00     0.239 C 
HETATM    2  N   UNL     1      43.517 -11.422   9.368  1.00  0.00    -0.325 N 
HETATM    3  O   UNL     1      45.604 -10.374   9.486  1.00  0.00    -0.271 OA
HETATM    4  H   UNL     1      43.083 -12.182   8.842  1.00  0.00     0.169 HD
ENDROOT
BRANCH   1   5
HETATM    5  C   UNL     1      45.492 -12.610   8.618  1.00  0.00     0.227 C 
BRANCH   5   6
HETATM    6  N   UNL     1      44.490 -13.643   8.423  1.00  0.00    -0.334 N 
HETATM    7  C   UNL     1      44.505 -14.402   7.272  1.00  0.00     0.321 C 
HETATM    8  N   UNL     1      43.437 -15.264   7.243  1.00  0.00    -0.309 N 
HETATM    9  O   UNL     1      45.374 -14.261   6.421  1.00  0.00    -0.247 OA
HETATM   10  H   UNL     1      42.670 -15.010   7.850  1.00  0.00     0.170 HD
HETATM   11  H   UNL     1      44.186 -14.127   9.257  1.00  0.00     0.164 HD
BRANCH   8  12
HETATM   12  C   UNL     1      43.187 -16.282   6.303  1.00  0.00     0.036 A 
HETATM   13  C   UNL     1      43.949 -17.451   6.212  1.00  0.00     0.036 A 
HETATM   14  C   UNL     1      43.627 -18.447   5.276  1.00  0.00    -0.060 A 
HETATM   15  C   UNL     1      44.461 -19.690   5.180  1.00  0.00     0.048 C 
HETATM   16  C   UNL     1      42.554 -18.244   4.402  1.00  0.00     0.007 A 
HETATM   17  C   UNL     1      41.787 -17.083   4.489  1.00  0.00     0.003 A 
HETATM   18  C   UNL     1      42.096 -16.112   5.443  1.00  0.00     0.029 A 
ENDBRANCH   8  12
ENDBRANCH   5   6
ENDBRANCH   1   5
BRANCH   2  19
HETATM   19  C   UNL     1      42.651 -10.530  10.037  1.00  0.00     0.041 A 
HETATM   20  C   UNL     1      41.731  -9.779   9.274  1.00  0.00    -0.035 A 
HETATM   21  C   UNL     1      41.675  -9.857   7.771  1.00  0.00     0.050 C 
HETATM   22  C   UNL     1      40.836  -8.918   9.928  1.00  0.00     0.010 A 
HETATM   23  C   UNL     1      40.840  -8.804  11.318  1.00  0.00     0.016 A 
HETATM   24  C   UNL     1      41.742  -9.545  12.089  1.00  0.00     0.019 A 
HETATM   25  C   UNL     1      42.643 -10.401  11.433  1.00  0.00     0.046 A 
BRANCH  24  26
HETATM   26  C   UNL     1      41.755  -9.458  13.549  1.00  0.00     0.179 A 
HETATM   27  O   UNL     1      40.774  -8.693  14.134  1.00  0.00    -0.302 OA
HETATM   28  C   UNL     1      41.018  -8.798  15.469  1.00  0.00     0.163 A 
HETATM   29  C   UNL     1      42.114  -9.602  15.638  1.00  0.00     0.144 A 
HETATM   30  N   UNL     1      42.576 -10.021  14.416  1.00  0.00    -0.234 NA
ENDBRANCH  24  26
ENDBRANCH   2  19
TORSDOF 5
ENDMDL
MODEL 7
REMARK VINA RESULT:      -8.3      6.247     10.204
REMARK  5 active torsions:
REMARK  status: ('A' for Active; 'I' for Inactive)
REMARK    1  A    between atoms: C_4  and  N_5 
REMARK       I    between atoms: N_5  and  C_6 
REMARK       I    between atoms: C_6  and  N_7 
REMARK    2  A    between atoms: N_7  and  C_8 
REMARK    3  A    between atoms: C_8  and  C_9 
REMARK       I    between atoms: C_9  and  N_10 
REMARK    4  A    between atoms: N_10  and  C_11 
REMARK    5  A    between atoms: C_16  and  C_17 
ROOT
HETATM    1  C   UNL     1      42.856 -14.102   2.797  1.00  0.00     0.239 C 
HETATM    2  N   UNL     1      42.206 -15.324   2.851  1.00  0.00    -0.325 N 
HETATM    3  O   UNL     1      43.979 -13.844   3.217  1.00  0.00    -0.271 OA
HETATM    4  H   UNL     1      41.195 -15.272   2.720  1.00  0.00     0.169 HD
ENDROOT
BRANCH   1   5
HETATM    5  C   UNL     1      41.974 -13.001   2.200  1.00  0.00     0.227 C 
BRANCH   5   6
HETATM    6  N   UNL     1      41.898 -13.091   0.753  1.00  0.00    -0.334 N 
HETATM    7  C   UNL     1      40.951 -13.903   0.167  1.00  0.00     0.321 C 
HETATM    8  N   UNL     1      41.093 -13.911  -1.199  1.00  0.00    -0.309 N 
HETATM    9  O   UNL     1      40.133 -14.523   0.836  1.00  0.00    -0.247 OA
HETATM   10  H   UNL     1      42.000 -13.617  -1.532  1.00  0.00     0.170 HD
HETATM   11  H   UNL     1      42.116 -12.244   0.246  1.00  0.00     0.164 HD
BRANCH   8  12
HETATM   12  C   UNL     1      40.238 -14.511  -2.142  1.00  0.00     0.036 A 
HETATM   13  C   UNL     1      39.050 -13.925  -2.587  1.00  0.00     0.036 A 
HETATM   14  C   UNL     1      38.257 -14.557  -3.559  1.00  0.00    -0.060 A 
HETATM   15  C   UNL     1      36.977 -13.924  -4.017  1.00  0.00     0.048 C 
HETATM   16  C   UNL     1      38.648 -15.805  -4.055  1.00  0.00     0.007 A 
HETATM   17  C   UNL     1      39.834 -16.394  -3.619  1.00  0.00     0.003 A 
HETATM   18  C   UNL     1      40.630 -15.744  -2.676  1.00  0.00     0.029 A 
ENDBRANCH   8  12
ENDBRANCH   5   6
ENDBRANCH   1   5
BRANCH   2  19
HETATM   19  C   UNL     1      42.747 -16.587   3.176  1.00  0.00     0.041 A 
HETATM   20  C   UNL     1      43.122 -17.454   2.126  1.00  0.00    -0.035 A 
HETATM   21  C   UNL     1      42.918 -17.101   0.676  1.00  0.00     0.050 C 
HETATM   22  C   UNL     1      43.699 -18.695   2.433  1.00  0.00     0.010 A 
HETATM   23  C   UNL     1      43.914 -19.077   3.757  1.00  0.00     0.016 A 
HETATM   24  C   UNL     1      43.554 -18.228   4.809  1.00  0.00     0.019 A 
HETATM   25  C   UNL     1      42.969 -16.988   4.501  1.00  0.00     0.046 A 
BRANCH  24  26
HETATM   26  C   UNL     1      43.784 -18.596   6.205  1.00  0.00     0.179 A 
HETATM   27  O   UNL     1      43.610 -19.920   6.534  1.00  0.00    -0.302 OA
HETATM   28  C   UNL     1      43.895 -19.974   7.864  1.00  0.00     0.163 A 
HETATM   29  C   UNL     1      44.221 -18.711   8.281  1.00  0.00     0.144 A 
HETATM   30  N   UNL     1      44.152 -17.840   7.223  1.00  0.00    -0.234 NA
ENDBRANCH  24  26
ENDBRANCH   2  19
TORSDOF 5
ENDMDL
MODEL 8
REMARK VINA RESULT:      -8.3      5.491      9.835
REMARK  5 active torsions:
REMARK  status: ('A' for Active; 'I' for Inactive)
REMARK    1  A    between atoms: C_4  and  N_5 
REMARK       I    between atoms: N_5  and  C_6 
REMARK       I    between atoms: C_6  and  N_7 
REMARK    2  A    between atoms: N_7  and  C_8 
REMARK    3  A    between atoms: C_8  and  C_9 
REMARK       I    between atoms: C_9  and  N_10 
REMARK    4  A    between atoms: N_10  and  C_11 
REMARK    5  A    between atoms: C_16  and  C_17 
ROOT
HETATM    1  C   UNL     1      42.440 -14.753   4.397  1.00  0.00     0.239 C 
HETATM    2  N   UNL     1      41.201 -15.068   3.865  1.00  0.00    -0.325 N 
HETATM    3  O   UNL     1      43.280 -13.998   3.917  1.00  0.00    -0.271 OA
HETATM    4  H   UNL     1      40.779 -15.916   4.246  1.00  0.00     0.169 HD
ENDROOT
BRANCH   1   5
HETATM    5  C   UNL     1      42.737 -15.535   5.681  1.00  0.00     0.227 C 
BRANCH   5   6
HETATM    6  N   UNL     1      43.742 -16.562   5.470  1.00  0.00    -0.334 N 
HETATM    7  C   UNL     1      43.358 -17.822   5.065  1.00  0.00     0.321 C 
HETATM    8  N   UNL     1      44.441 -18.664   4.998  1.00  0.00    -0.309 N 
HETATM    9  O   UNL     1      42.186 -18.093   4.832  1.00  0.00    -0.247 OA
HETATM   10  H   UNL     1      45.244 -18.364   5.532  1.00  0.00     0.170 HD
HETATM   11  H   UNL     1      44.630 -16.242   5.108  1.00  0.00     0.164 HD
BRANCH   8  12
HETATM   12  C   UNL     1      44.468 -19.981   4.502  1.00  0.00     0.036 A 
HETATM   13  C   UNL     1      44.277 -20.300   3.154  1.00  0.00     0.036 A 
HETATM   14  C   UNL     1      44.353 -21.632   2.714  1.00  0.00    -0.060 A 
HETATM   15  C   UNL     1      44.132 -21.962   1.268  1.00  0.00     0.048 C 
HETATM   16  C   UNL     1      44.585 -22.649   3.646  1.00  0.00     0.007 A 
HETATM   17  C   UNL     1      44.781 -22.337   4.990  1.00  0.00     0.003 A 
HETATM   18  C   UNL     1      44.734 -21.008   5.413  1.00  0.00     0.029 A 
ENDBRANCH   8  12
ENDBRANCH   5   6
ENDBRANCH   1   5
BRANCH   2  19
HETATM   19  C   UNL     1      40.522 -14.437   2.799  1.00  0.00     0.041 A 
HETATM   20  C   UNL     1      39.711 -13.317   3.082  1.00  0.00    -0.035 A 
HETATM   21  C   UNL     1      39.503 -12.803   4.483  1.00  0.00     0.050 C 
HETATM   22  C   UNL     1      39.063 -12.654   2.029  1.00  0.00     0.010 A 
HETATM   23  C   UNL     1      39.218 -13.083   0.710  1.00  0.00     0.016 A 
HETATM   24  C   UNL     1      40.022 -14.188   0.412  1.00  0.00     0.019 A 
HETATM   25  C   UNL     1      40.665 -14.855   1.469  1.00  0.00     0.046 A 
BRANCH  24  26
HETATM   26  C   UNL     1      40.216 -14.647  -0.962  1.00  0.00     0.179 A 
HETATM   27  O   UNL     1      39.353 -14.149  -1.910  1.00  0.00    -0.302 OA
HETATM   28  C   UNL     1      39.765 -14.726  -3.073  1.00  0.00     0.163 A 
HETATM   29  C   UNL     1      40.834 -15.534  -2.791  1.00  0.00     0.144 A 
HETATM   30  N   UNL     1      41.119 -15.477  -1.451  1.00  0.00    -0.234 NA
ENDBRANCH  24  26
ENDBRANCH   2  19
TORSDOF 5
ENDMDL
MODEL 9
REMARK VINA RESULT:      -8.2      6.826     10.661
REMARK  5 active torsions:
REMARK  status: ('A' for Active; 'I' for Inactive)
REMARK    1  A    between atoms: C_4  and  N_5 
REMARK       I    between atoms: N_5  and  C_6 
REMARK       I    between atoms: C_6  and  N_7 
REMARK    2  A    between atoms: N_7  and  C_8 
REMARK    3  A    between atoms: C_8  and  C_9 
REMARK       I    between atoms: C_9  and  N_10 
REMARK    4  A    between atoms: N_10  and  C_11 
REMARK    5  A    between atoms: C_16  and  C_17 
ROOT
HETATM    1  C   UNL     1      40.640 -14.569   2.649  1.00  0.00     0.239 C 
HETATM    2  N   UNL     1      41.396 -13.983   1.648  1.00  0.00    -0.325 N 
HETATM    3  O   UNL     1      39.416 -14.595   2.730  1.00  0.00    -0.271 OA
HETATM    4  H   UNL     1      42.371 -13.812   1.898  1.00  0.00     0.169 HD
ENDROOT
BRANCH   1   5
HETATM    5  C   UNL     1      41.509 -15.155   3.767  1.00  0.00     0.227 C 
BRANCH   5   6
HETATM    6  N   UNL     1      42.554 -16.017   3.245  1.00  0.00    -0.334 N 
HETATM    7  C   UNL     1      42.531 -17.367   3.522  1.00  0.00     0.321 C 
HETATM    8  N   UNL     1      43.640 -17.990   3.007  1.00  0.00    -0.309 N 
HETATM    9  O   UNL     1      41.620 -17.874   4.166  1.00  0.00    -0.247 OA
HETATM   10  H   UNL     1      44.417 -17.376   2.809  1.00  0.00     0.170 HD
HETATM   11  H   UNL     1      42.918 -15.768   2.334  1.00  0.00     0.164 HD
BRANCH   8  12
HETATM   12  C   UNL     1      43.903 -19.373   2.972  1.00  0.00     0.036 A 
HETATM   13  C   UNL     1      44.457 -20.079   4.044  1.00  0.00     0.036 A 
HETATM   14  C   UNL     1      44.661 -21.466   3.961  1.00  0.00    -0.060 A 
HETATM   15  C   UNL     1      45.269 -22.209   5.113  1.00  0.00     0.048 C 
HETATM   16  C   UNL     1      44.338 -22.136   2.777  1.00  0.00     0.007 A 
HETATM   17  C   UNL     1      43.781 -21.439   1.705  1.00  0.00     0.003 A 
HETATM   18  C   UNL     1      43.554 -20.066   1.808  1.00  0.00     0.029 A 
ENDBRANCH   8  12
ENDBRANCH   5   6
ENDBRANCH   1   5
BRANCH   2  19
HETATM   19  C   UNL     1      40.961 -13.497   0.396  1.00  0.00     0.041 A 
HETATM   20  C   UNL     1      41.164 -12.134   0.090  1.00  0.00    -0.035 A 
HETATM   21  C   UNL     1      41.779 -11.170   1.071  1.00  0.00     0.050 C 
HETATM   22  C   UNL     1      40.774 -11.645  -1.166  1.00  0.00     0.010 A 
HETATM   23  C   UNL     1      40.200 -12.490  -2.115  1.00  0.00     0.016 A 
HETATM   24  C   UNL     1      39.997 -13.844  -1.832  1.00  0.00     0.019 A 
HETATM   25  C   UNL     1      40.380 -14.332  -0.570  1.00  0.00     0.046 A 
BRANCH  24  26
HETATM   26  C   UNL     1      39.413 -14.756  -2.815  1.00  0.00     0.179 A 
HETATM   27  O   UNL     1      38.045 -14.731  -2.948  1.00  0.00    -0.302 OA
HETATM   28  C   UNL     1      37.785 -15.650  -3.918  1.00  0.00     0.163 A 
HETATM   29  C   UNL     1      38.979 -16.186  -4.324  1.00  0.00     0.144 A 
HETATM   30  N   UNL     1      40.009 -15.613  -3.624  1.00  0.00    -0.234 NA
ENDBRANCH  24  26
ENDBRANCH   2  19
TORSDOF 5
ENDMDL
MODEL 10
REMARK VINA RESULT:      -8.2      6.509     10.201
REMARK  5 active torsions:
REMARK  status: ('A' for Active; 'I' for Inactive)
REMARK    1  A    between atoms: C_4  and  N_5 
REMARK       I    between atoms: N_5  and  C_6 
REMARK       I    between atoms: C_6  and  N_7 
REMARK    2  A    between atoms: N_7  and  C_8 
REMARK    3  A    between atoms: C_8  and  C_9 
REMARK       I    between atoms: C_9  and  N_10 
REMARK    4  A    between atoms: N_10  and  C_11 
REMARK    5  A    between atoms: C_16  and  C_17 
ROOT
HETATM    1  C   UNL     1      41.134 -12.227   1.674  1.00  0.00     0.239 C 
HETATM    2  N   UNL     1      42.022 -12.541   0.659  1.00  0.00    -0.325 N 
HETATM    3  O   UNL     1      40.026 -11.714   1.554  1.00  0.00    -0.271 OA
HETATM    4  H   UNL     1      42.984 -12.686   0.968  1.00  0.00     0.169 HD
ENDROOT
BRANCH   1   5
HETATM    5  C   UNL     1      41.712 -12.518   3.063  1.00  0.00     0.227 C 
BRANCH   5   6
HETATM    6  N   UNL     1      41.474 -13.891   3.473  1.00  0.00    -0.334 N 
HETATM    7  C   UNL     1      42.460 -14.838   3.298  1.00  0.00     0.321 C 
HETATM    8  N   UNL     1      42.014 -16.081   3.674  1.00  0.00    -0.309 N 
HETATM    9  O   UNL     1      43.559 -14.545   2.845  1.00  0.00    -0.247 OA
HETATM   10  H   UNL     1      41.009 -16.180   3.703  1.00  0.00     0.170 HD
HETATM   11  H   UNL     1      40.896 -14.013   4.294  1.00  0.00     0.164 HD
BRANCH   8  12
HETATM   12  C   UNL     1      42.768 -17.266   3.765  1.00  0.00     0.036 A 
HETATM   13  C   UNL     1      42.769 -18.257   2.778  1.00  0.00     0.036 A 
HETATM   14  C   UNL     1      43.572 -19.401   2.910  1.00  0.00    -0.060 A 
HETATM   15  C   UNL     1      43.552 -20.463   1.851  1.00  0.00     0.048 C 
HETATM   16  C   UNL     1      44.349 -19.563   4.061  1.00  0.00     0.007 A 
HETATM   17  C   UNL     1      44.357 -18.578   5.048  1.00  0.00     0.003 A 
HETATM   18  C   UNL     1      43.579 -17.430   4.894  1.00  0.00     0.029 A 
ENDBRANCH   8  12
ENDBRANCH   5   6
ENDBRANCH   1   5
BRANCH   2  19
HETATM   19  C   UNL     1      41.784 -12.568  -0.732  1.00  0.00     0.041 A 
HETATM   20  C   UNL     1      42.480 -11.658  -1.556  1.00  0.00    -0.035 A 
HETATM   21  C   UNL     1      43.427 -10.626  -1.000  1.00  0.00     0.050 C 
HETATM   22  C   UNL     1      42.285 -11.699  -2.945  1.00  0.00     0.010 A 
HETATM   23  C   UNL     1      41.421 -12.632  -3.518  1.00  0.00     0.016 A 
HETATM   24  C   UNL     1      40.728 -13.545  -2.717  1.00  0.00     0.019 A 
HETATM   25  C   UNL     1      40.918 -13.498  -1.325  1.00  0.00     0.046 A 
BRANCH  24  26
HETATM   26  C   UNL     1      39.830 -14.545  -3.294  1.00  0.00     0.179 A 
HETATM   27  O   UNL     1      38.481 -14.319  -3.157  1.00  0.00    -0.302 OA
HETATM   28  C   UNL     1      37.899 -15.379  -3.782  1.00  0.00     0.163 A 
HETATM   29  C   UNL     1      38.895 -16.189  -4.261  1.00  0.00     0.144 A 
HETATM   30  N   UNL     1      40.119 -15.653  -3.952  1.00  0.00    -0.234 NA
ENDBRANCH  24  26
ENDBRANCH   2  19
TORSDOF 5
ENDMDL
