MODEL 1
REMARK VINA RESULT:      -8.5      0.000      0.000
REMARK  9 active torsions:
REMARK  status: ('A' for Active; 'I' for Inactive)
REMARK    1  A    between atoms: O_2  and  C_3 
REMARK    2  A    between atoms: C_5  and  O_6 
REMARK    3  A    between atoms: C_8  and  N_9 
REMARK    4  A    between atoms: C_10  and  C_12 
REMARK    5  A    between atoms: C_10  and  O_11 
REMARK       I    between atoms: C_12  and  N_13 
REMARK    6  A    between atoms: N_13  and  C_14 
REMARK    7  A    between atoms: C_14  and  C_15 
REMARK    8  A    between atoms: C_15  and  N_16 
REMARK    9  A    between atoms: N_20  and  C_21 
ROOT
HETATM    1  N   UNL     1      42.281 -14.845   2.844  1.00  0.00    -0.251 N 
HETATM    2  C   UNL     1      40.816 -14.837   2.778  1.00  0.00     0.256 C 
HETATM    3  C   UNL     1      40.262 -13.460   2.435  1.00  0.00     0.034 A 
HETATM    4  C   UNL     1      41.037 -12.348   2.761  1.00  0.00     0.048 A 
HETATM    5  N   UNL     1      42.319 -12.541   3.264  1.00  0.00    -0.308 N 
HETATM    6  C   UNL     1      42.981 -13.731   3.281  1.00  0.00     0.330 C 
HETATM    7  O   UNL     1      44.148 -13.747   3.671  1.00  0.00    -0.246 OA
HETATM    8  C   UNL     1      38.979 -13.234   1.906  1.00  0.00     0.015 A 
HETATM    9  C   UNL     1      38.497 -11.936   1.716  1.00  0.00     0.001 A 
HETATM   10  C   UNL     1      39.285 -10.844   2.065  1.00  0.00     0.002 A 
HETATM   11  C   UNL     1      40.558 -11.047   2.591  1.00  0.00     0.030 A 
HETATM   12  H   UNL     1      42.891 -11.741   3.509  1.00  0.00     0.170 HD
ENDROOT
BRANCH   2  13
HETATM   13  C   UNL     1      40.190 -15.942   1.794  1.00  0.00     0.279 C 
HETATM   14  N   UNL     1      40.286 -15.859   0.426  1.00  0.00    -0.355 N 
HETATM   15  H   UNL     1      39.685 -16.548  -0.015  1.00  0.00     0.162 HD
HETATM   16  O   UNL     1      39.606 -16.957   2.193  1.00  0.00    -0.268 OA
BRANCH  14  17
HETATM   17  C   UNL     1      41.034 -14.953  -0.429  1.00  0.00     0.150 C 
BRANCH  17  18
HETATM   18  C   UNL     1      40.829 -15.159  -1.948  1.00  0.00     0.254 C 
BRANCH  18  19
HETATM   19  N   UNL     1      40.460 -13.887  -2.715  1.00  0.00    -0.067 N 
HETATM   20  H   UNL     1      39.793 -14.121  -3.459  1.00  0.00     0.280 HD
HETATM   21  C   UNL     1      39.743 -12.918  -1.745  1.00  0.00     0.254 C 
HETATM   22  C   UNL     1      39.479 -11.538  -2.385  1.00  0.00     0.150 C 
HETATM   23  N   UNL     1      40.726 -10.965  -2.925  1.00  0.00    -0.378 N 
HETATM   24  C   UNL     1      41.303 -11.833  -3.972  1.00  0.00     0.150 C 
HETATM   25  C   UNL     1      41.672 -13.208  -3.377  1.00  0.00     0.254 C 
BRANCH  23  26
HETATM   26  C   UNL     1      41.626 -10.307  -2.068  1.00  0.00     0.030 A 
HETATM   27  C   UNL     1      43.015 -10.288  -2.279  1.00  0.00     0.029 A 
HETATM   28  C   UNL     1      43.891  -9.602  -1.424  1.00  0.00     0.002 A 
HETATM   29  C   UNL     1      43.402  -8.931  -0.312  1.00  0.00     0.000 A 
HETATM   30  C   UNL     1      42.043  -8.970  -0.044  1.00  0.00     0.002 A 
HETATM   31  C   UNL     1      41.176  -9.658  -0.903  1.00  0.00     0.029 A 
ENDBRANCH  23  26
ENDBRANCH  18  19
ENDBRANCH  17  18
ENDBRANCH  14  17
ENDBRANCH   2  13
BRANCH   2  32
HETATM   32  O   UNL     1      40.375 -15.052   4.126  1.00  0.00    -0.359 OA
HETATM   33  H   UNL     1      39.485 -14.658   4.128  1.00  0.00     0.213 HD
ENDBRANCH   2  32
BRANCH   1  34
HETATM   34  C   UNL     1      42.983 -16.088   2.793  1.00  0.00     0.076 A 
HETATM   35  C   UNL     1      43.090 -16.885   3.950  1.00  0.00     0.098 A 
HETATM   36  C   UNL     1      43.702 -18.137   3.867  1.00  0.00     0.075 A 
HETATM   37  C   UNL     1      44.153 -18.612   2.634  1.00  0.00     0.070 A 
HETATM   38  C   UNL     1      44.050 -17.831   1.487  1.00  0.00     0.039 A 
HETATM   39  C   UNL     1      43.452 -16.573   1.563  1.00  0.00     0.035 A 
BRANCH  35  40
HETATM   40  O   UNL     1      42.511 -16.378   5.082  1.00  0.00    -0.354 OA
HETATM   41  C   UNL     1      43.353 -16.123   6.200  1.00  0.00     0.210 C 
ENDBRANCH  35  40
BRANCH  37  42
HETATM   42  O   UNL     1      44.719 -19.858   2.609  1.00  0.00    -0.356 OA
HETATM   43  C   UNL     1      44.863 -20.390   3.929  1.00  0.00     0.210 C 
ENDBRANCH  37  42
ENDBRANCH   1  34
TORSDOF 9
ENDMDL
MODEL 2
REMARK VINA RESULT:      -8.0      2.294      5.867
REMARK  9 active torsions:
REMARK  status: ('A' for Active; 'I' for Inactive)
REMARK    1  A    between atoms: O_2  and  C_3 
REMARK    2  A    between atoms: C_5  and  O_6 
REMARK    3  A    between atoms: C_8  and  N_9 
REMARK    4  A    between atoms: C_10  and  C_12 
REMARK    5  A    between atoms: C_10  and  O_11 
REMARK       I    between atoms: C_12  and  N_13 
REMARK    6  A    between atoms: N_13  and  C_14 
REMARK    7  A    between atoms: C_14  and  C_15 
REMARK    8  A    between atoms: C_15  and  N_16 
REMARK    9  A    between atoms: N_20  and  C_21 
ROOT
HETATM    1  N   UNL     1      42.703 -16.604   4.858  1.00  0.00    -0.251 N 
HETATM    2  C   UNL     1      42.834 -16.904   3.429  1.00  0.00     0.256 C 
HETATM    3  C   UNL     1      43.275 -18.341   3.179  1.00  0.00     0.034 A 
HETATM    4  C   UNL     1      44.000 -18.982   4.182  1.00  0.00     0.048 A 
HETATM    5  N   UNL     1      44.180 -18.339   5.401  1.00  0.00    -0.308 N 
HETATM    6  C   UNL     1      43.535 -17.205   5.791  1.00  0.00     0.330 C 
HETATM    7  O   UNL     1      43.718 -16.789   6.934  1.00  0.00    -0.246 OA
HETATM    8  C   UNL     1      43.087 -19.025   1.965  1.00  0.00     0.015 A 
HETATM    9  C   UNL     1      43.613 -20.305   1.771  1.00  0.00     0.001 A 
HETATM   10  C   UNL     1      44.346 -20.916   2.783  1.00  0.00     0.002 A 
HETATM   11  C   UNL     1      44.543 -20.254   3.992  1.00  0.00     0.030 A 
HETATM   12  H   UNL     1      44.709 -18.792   6.138  1.00  0.00     0.170 HD
ENDROOT
BRANCH   2  13
HETATM   13  C   UNL     1      41.525 -16.572   2.559  1.00  0.00     0.279 C 
HETATM   14  N   UNL     1      41.393 -15.417   1.825  1.00  0.00    -0.355 N 
HETATM   15  H   UNL     1      40.438 -15.313   1.494  1.00  0.00     0.162 HD
HETATM   16  O   UNL     1      40.558 -17.338   2.462  1.00  0.00    -0.268 OA
BRANCH  14  17
HETATM   17  C   UNL     1      42.345 -14.364   1.518  1.00  0.00     0.150 C 
BRANCH  17  18
HETATM   18  C   UNL     1      41.873 -12.930   1.854  1.00  0.00     0.254 C 
BRANCH  18  19
HETATM   19  N   UNL     1      41.230 -12.183   0.683  1.00  0.00    -0.067 N 
HETATM   20  H   UNL     1      41.238 -11.175   0.878  1.00  0.00     0.280 HD
HETATM   21  C   UNL     1      42.096 -12.412  -0.580  1.00  0.00     0.254 C 
HETATM   22  C   UNL     1      41.438 -11.834  -1.852  1.00  0.00     0.150 C 
HETATM   23  N   UNL     1      40.067 -12.353  -2.014  1.00  0.00    -0.378 N 
HETATM   24  C   UNL     1      39.214 -11.976  -0.868  1.00  0.00     0.150 C 
HETATM   25  C   UNL     1      39.769 -12.595   0.432  1.00  0.00     0.254 C 
BRANCH  23  26
HETATM   26  C   UNL     1      39.859 -13.623  -2.579  1.00  0.00     0.030 A 
HETATM   27  C   UNL     1      40.838 -14.631  -2.591  1.00  0.00     0.029 A 
HETATM   28  C   UNL     1      40.597 -15.901  -3.137  1.00  0.00     0.002 A 
HETATM   29  C   UNL     1      39.369 -16.194  -3.713  1.00  0.00     0.000 A 
HETATM   30  C   UNL     1      38.395 -15.208  -3.765  1.00  0.00     0.002 A 
HETATM   31  C   UNL     1      38.645 -13.943  -3.217  1.00  0.00     0.029 A 
ENDBRANCH  23  26
ENDBRANCH  18  19
ENDBRANCH  17  18
ENDBRANCH  14  17
ENDBRANCH   2  13
BRANCH   2  32
HETATM   32  O   UNL     1      43.951 -16.125   2.978  1.00  0.00    -0.359 OA
HETATM   33  H   UNL     1      43.705 -15.221   3.243  1.00  0.00     0.213 HD
ENDBRANCH   2  32
BRANCH   1  34
HETATM   34  C   UNL     1      41.968 -15.452   5.273  1.00  0.00     0.076 A 
HETATM   35  C   UNL     1      42.601 -14.194   5.327  1.00  0.00     0.098 A 
HETATM   36  C   UNL     1      41.850 -13.062   5.650  1.00  0.00     0.075 A 
HETATM   37  C   UNL     1      40.475 -13.174   5.863  1.00  0.00     0.070 A 
HETATM   38  C   UNL     1      39.843 -14.414   5.811  1.00  0.00     0.039 A 
HETATM   39  C   UNL     1      40.587 -15.552   5.503  1.00  0.00     0.035 A 
BRANCH  35  40
HETATM   40  O   UNL     1      43.926 -14.175   4.985  1.00  0.00    -0.354 OA
HETATM   41  C   UNL     1      44.867 -13.843   6.000  1.00  0.00     0.210 C 
ENDBRANCH  35  40
BRANCH  37  42
HETATM   42  O   UNL     1      39.786 -12.027   6.148  1.00  0.00    -0.356 OA
HETATM   43  C   UNL     1      39.471 -11.943   7.541  1.00  0.00     0.210 C 
ENDBRANCH  37  42
ENDBRANCH   1  34
TORSDOF 9
ENDMDL
MODEL 3
REMARK VINA RESULT:      -8.0      0.992      1.638
REMARK  9 active torsions:
REMARK  status: ('A' for Active; 'I' for Inactive)
REMARK    1  A    between atoms: O_2  and  C_3 
REMARK    2  A    between atoms: C_5  and  O_6 
REMARK    3  A    between atoms: C_8  and  N_9 
REMARK    4  A    between atoms: C_10  and  C_12 
REMARK    5  A    between atoms: C_10  and  O_11 
REMARK       I    between atoms: C_12  and  N_13 
REMARK    6  A    between atoms: N_13  and  C_14 
REMARK    7  A    between atoms: C_14  and  C_15 
REMARK    8  A    between atoms: C_15  and  N_16 
REMARK    9  A    between atoms: N_20  and  C_21 
ROOT
HETATM    1  N   UNL     1      42.395 -14.956   2.787  1.00  0.00    -0.251 N 
HETATM    2  C   UNL     1      40.944 -14.899   2.581  1.00  0.00     0.256 C 
HETATM    3  C   UNL     1      40.498 -13.571   1.982  1.00  0.00     0.034 A 
HETATM    4  C   UNL     1      41.301 -12.454   2.209  1.00  0.00     0.048 A 
HETATM    5  N   UNL     1      42.520 -12.617   2.854  1.00  0.00    -0.308 N 
HETATM    6  C   UNL     1      43.113 -13.816   3.115  1.00  0.00     0.330 C 
HETATM    7  O   UNL     1      44.238 -13.818   3.612  1.00  0.00    -0.246 OA
HETATM    8  C   UNL     1      39.281 -13.380   1.305  1.00  0.00     0.015 A 
HETATM    9  C   UNL     1      38.889 -12.109   0.875  1.00  0.00     0.001 A 
HETATM   10  C   UNL     1      39.701 -11.008   1.128  1.00  0.00     0.002 A 
HETATM   11  C   UNL     1      40.910 -11.178   1.798  1.00  0.00     0.030 A 
HETATM   12  H   UNL     1      43.111 -11.813   3.029  1.00  0.00     0.170 HD
ENDROOT
BRANCH   2  13
HETATM   13  C   UNL     1      40.348 -16.118   1.721  1.00  0.00     0.279 C 
HETATM   14  N   UNL     1      40.638 -16.300   0.390  1.00  0.00    -0.355 N 
HETATM   15  H   UNL     1      40.035 -17.012  -0.011  1.00  0.00     0.162 HD
HETATM   16  O   UNL     1      39.614 -16.993   2.197  1.00  0.00    -0.268 OA
BRANCH  14  17
HETATM   17  C   UNL     1      41.584 -15.630  -0.485  1.00  0.00     0.150 C 
BRANCH  17  18
HETATM   18  C   UNL     1      40.979 -15.031  -1.776  1.00  0.00     0.254 C 
BRANCH  18  19
HETATM   19  N   UNL     1      41.787 -13.881  -2.381  1.00  0.00    -0.067 N 
HETATM   20  H   UNL     1      42.634 -14.257  -2.823  1.00  0.00     0.280 HD
HETATM   21  C   UNL     1      40.942 -13.220  -3.496  1.00  0.00     0.254 C 
HETATM   22  C   UNL     1      41.607 -11.943  -4.054  1.00  0.00     0.150 C 
HETATM   23  N   UNL     1      41.928 -11.001  -2.965  1.00  0.00    -0.378 N 
HETATM   24  C   UNL     1      42.871 -11.602  -2.000  1.00  0.00     0.150 C 
HETATM   25  C   UNL     1      42.234 -12.842  -1.337  1.00  0.00     0.254 C 
BRANCH  23  26
HETATM   26  C   UNL     1      40.929 -10.159  -2.447  1.00  0.00     0.030 A 
HETATM   27  C   UNL     1      39.556 -10.365  -2.668  1.00  0.00     0.029 A 
HETATM   28  C   UNL     1      38.576  -9.526  -2.118  1.00  0.00     0.002 A 
HETATM   29  C   UNL     1      38.943  -8.434  -1.344  1.00  0.00     0.000 A 
HETATM   30  C   UNL     1      40.289  -8.170  -1.145  1.00  0.00     0.002 A 
HETATM   31  C   UNL     1      41.261  -9.013  -1.699  1.00  0.00     0.029 A 
ENDBRANCH  23  26
ENDBRANCH  18  19
ENDBRANCH  17  18
ENDBRANCH  14  17
ENDBRANCH   2  13
BRANCH   2  32
HETATM   32  O   UNL     1      40.375 -14.883   3.898  1.00  0.00    -0.359 OA
HETATM   33  H   UNL     1      41.080 -15.276   4.443  1.00  0.00     0.213 HD
ENDBRANCH   2  32
BRANCH   1  34
HETATM   34  C   UNL     1      43.030 -16.218   2.992  1.00  0.00     0.076 A 
HETATM   35  C   UNL     1      42.976 -16.837   4.257  1.00  0.00     0.098 A 
HETATM   36  C   UNL     1      43.524 -18.111   4.422  1.00  0.00     0.075 A 
HETATM   37  C   UNL     1      44.071 -18.781   3.327  1.00  0.00     0.070 A 
HETATM   38  C   UNL     1      44.128 -18.176   2.074  1.00  0.00     0.039 A 
HETATM   39  C   UNL     1      43.595 -16.899   1.903  1.00  0.00     0.035 A 
BRANCH  35  40
HETATM   40  O   UNL     1      42.312 -16.146   5.235  1.00  0.00    -0.354 OA
HETATM   41  C   UNL     1      43.039 -15.793   6.406  1.00  0.00     0.210 C 
ENDBRANCH  35  40
BRANCH  37  42
HETATM   42  O   UNL     1      44.568 -20.038   3.543  1.00  0.00    -0.356 OA
HETATM   43  C   UNL     1      44.832 -20.260   4.931  1.00  0.00     0.210 C 
ENDBRANCH  37  42
ENDBRANCH   1  34
TORSDOF 9
ENDMDL
MODEL 4
REMARK VINA RESULT:      -7.9      2.883      9.010
REMARK  9 active torsions:
REMARK  status: ('A' for Active; 'I' for Inactive)
REMARK    1  A    between atoms: O_2  and  C_3 
REMARK    2  A    between atoms: C_5  and  O_6 
REMARK    3  A    between atoms: C_8  and  N_9 
REMARK    4  A    between atoms: C_10  and  C_12 
REMARK    5  A    between atoms: C_10  and  O_11 
REMARK       I    between atoms: C_12  and  N_13 
REMARK    6  A    between atoms: N_13  and  C_14 
REMARK    7  A    between atoms: C_14  and  C_15 
REMARK    8  A    between atoms: C_15  and  N_16 
REMARK    9  A    between atoms: N_20  and  C_21 
ROOT
HETATM    1  N   UNL     1      39.664 -13.649   1.913  1.00  0.00    -0.251 N 
HETATM    2  C   UNL     1      40.858 -14.018   2.681  1.00  0.00     0.256 C 
HETATM    3  C   UNL     1      41.447 -15.347   2.227  1.00  0.00     0.034 A 
HETATM    4  C   UNL     1      40.590 -16.266   1.623  1.00  0.00     0.048 A 
HETATM    5  N   UNL     1      39.280 -15.890   1.349  1.00  0.00    -0.308 N 
HETATM    6  C   UNL     1      38.798 -14.618   1.432  1.00  0.00     0.330 C 
HETATM    7  O   UNL     1      37.640 -14.405   1.074  1.00  0.00    -0.246 OA
HETATM    8  C   UNL     1      42.773 -15.747   2.469  1.00  0.00     0.015 A 
HETATM    9  C   UNL     1      43.215 -17.025   2.118  1.00  0.00     0.001 A 
HETATM   10  C   UNL     1      42.335 -17.929   1.531  1.00  0.00     0.002 A 
HETATM   11  C   UNL     1      41.017 -17.551   1.283  1.00  0.00     0.030 A 
HETATM   12  H   UNL     1      38.645 -16.549   0.914  1.00  0.00     0.170 HD
ENDROOT
BRANCH   2  13
HETATM   13  C   UNL     1      42.002 -12.891   2.712  1.00  0.00     0.279 C 
HETATM   14  N   UNL     1      42.569 -12.439   3.879  1.00  0.00    -0.355 N 
HETATM   15  H   UNL     1      43.136 -11.615   3.703  1.00  0.00     0.162 HD
HETATM   16  O   UNL     1      42.474 -12.372   1.693  1.00  0.00    -0.268 OA
BRANCH  14  17
HETATM   17  C   UNL     1      42.444 -12.907   5.249  1.00  0.00     0.150 C 
BRANCH  17  18
HETATM   18  C   UNL     1      43.492 -13.956   5.686  1.00  0.00     0.254 C 
BRANCH  18  19
HETATM   19  N   UNL     1      42.972 -14.993   6.685  1.00  0.00    -0.067 N 
HETATM   20  H   UNL     1      42.446 -14.516   7.426  1.00  0.00     0.280 HD
HETATM   21  C   UNL     1      41.983 -15.930   5.951  1.00  0.00     0.254 C 
HETATM   22  C   UNL     1      41.532 -17.112   6.836  1.00  0.00     0.150 C 
HETATM   23  N   UNL     1      42.697 -17.840   7.371  1.00  0.00    -0.378 N 
HETATM   24  C   UNL     1      43.539 -16.960   8.208  1.00  0.00     0.150 C 
HETATM   25  C   UNL     1      44.096 -15.797   7.361  1.00  0.00     0.254 C 
BRANCH  23  26
HETATM   26  C   UNL     1      43.358 -18.792   6.575  1.00  0.00     0.030 A 
HETATM   27  C   UNL     1      43.814 -18.524   5.273  1.00  0.00     0.029 A 
HETATM   28  C   UNL     1      44.495 -19.482   4.507  1.00  0.00     0.002 A 
HETATM   29  C   UNL     1      44.720 -20.753   5.016  1.00  0.00     0.000 A 
HETATM   30  C   UNL     1      44.241 -21.070   6.277  1.00  0.00     0.002 A 
HETATM   31  C   UNL     1      43.562 -20.107   7.034  1.00  0.00     0.029 A 
ENDBRANCH  23  26
ENDBRANCH  18  19
ENDBRANCH  17  18
ENDBRANCH  14  17
ENDBRANCH   2  13
BRANCH   2  32
HETATM   32  O   UNL     1      40.384 -14.294   4.007  1.00  0.00    -0.359 OA
HETATM   33  H   UNL     1      39.761 -15.029   3.865  1.00  0.00     0.213 HD
ENDBRANCH   2  32
BRANCH   1  34
HETATM   34  C   UNL     1      39.195 -12.300   1.942  1.00  0.00     0.076 A 
HETATM   35  C   UNL     1      39.251 -11.509   0.777  1.00  0.00     0.098 A 
HETATM   36  C   UNL     1      38.709 -10.222   0.795  1.00  0.00     0.075 A 
HETATM   37  C   UNL     1      38.072  -9.749   1.943  1.00  0.00     0.070 A 
HETATM   38  C   UNL     1      38.013 -10.525   3.097  1.00  0.00     0.039 A 
HETATM   39  C   UNL     1      38.563 -11.807   3.094  1.00  0.00     0.035 A 
BRANCH  35  40
HETATM   40  O   UNL     1      39.790 -12.109  -0.329  1.00  0.00    -0.354 OA
HETATM   41  C   UNL     1      39.026 -12.094  -1.530  1.00  0.00     0.210 C 
ENDBRANCH  35  40
BRANCH  37  42
HETATM   42  O   UNL     1      37.536  -8.492   1.893  1.00  0.00    -0.356 OA
HETATM   43  C   UNL     1      36.297  -8.427   2.606  1.00  0.00     0.210 C 
ENDBRANCH  37  42
ENDBRANCH   1  34
TORSDOF 9
ENDMDL
MODEL 5
REMARK VINA RESULT:      -7.9      2.252      3.188
REMARK  9 active torsions:
REMARK  status: ('A' for Active; 'I' for Inactive)
REMARK    1  A    between atoms: O_2  and  C_3 
REMARK    2  A    between atoms: C_5  and  O_6 
REMARK    3  A    between atoms: C_8  and  N_9 
REMARK    4  A    between atoms: C_10  and  C_12 
REMARK    5  A    between atoms: C_10  and  O_11 
REMARK       I    between atoms: C_12  and  N_13 
REMARK    6  A    between atoms: N_13  and  C_14 
REMARK    7  A    between atoms: C_14  and  C_15 
REMARK    8  A    between atoms: C_15  and  N_16 
REMARK    9  A    between atoms: N_20  and  C_21 
ROOT
HETATM    1  N   UNL     1      41.505 -15.493   4.888  1.00  0.00    -0.251 N 
HETATM    2  C   UNL     1      41.374 -14.274   4.084  1.00  0.00     0.256 C 
HETATM    3  C   UNL     1      40.903 -13.085   4.912  1.00  0.00     0.034 A 
HETATM    4  C   UNL     1      40.160 -13.347   6.062  1.00  0.00     0.048 A 
HETATM    5  N   UNL     1      39.988 -14.664   6.470  1.00  0.00    -0.308 N 
HETATM    6  C   UNL     1      40.657 -15.735   5.958  1.00  0.00     0.330 C 
HETATM    7  O   UNL     1      40.478 -16.839   6.472  1.00  0.00    -0.246 OA
HETATM    8  C   UNL     1      41.081 -11.741   4.537  1.00  0.00     0.015 A 
HETATM    9  C   UNL     1      40.528 -10.704   5.292  1.00  0.00     0.001 A 
HETATM   10  C   UNL     1      39.777 -10.994   6.427  1.00  0.00     0.002 A 
HETATM   11  C   UNL     1      39.590 -12.318   6.814  1.00  0.00     0.030 A 
HETATM   12  H   UNL     1      39.447 -14.869   7.302  1.00  0.00     0.170 HD
ENDROOT
BRANCH   2  13
HETATM   13  C   UNL     1      42.694 -13.879   3.257  1.00  0.00     0.279 C 
HETATM   14  N   UNL     1      42.705 -13.761   1.888  1.00  0.00    -0.355 N 
HETATM   15  H   UNL     1      43.658 -13.680   1.546  1.00  0.00     0.162 HD
HETATM   16  O   UNL     1      43.781 -13.626   3.790  1.00  0.00    -0.268 OA
BRANCH  14  17
HETATM   17  C   UNL     1      41.627 -13.785   0.915  1.00  0.00     0.150 C 
BRANCH  17  18
HETATM   18  C   UNL     1      41.396 -15.148   0.221  1.00  0.00     0.254 C 
BRANCH  18  19
HETATM   19  N   UNL     1      40.412 -15.104  -0.950  1.00  0.00    -0.067 N 
HETATM   20  H   UNL     1      39.752 -15.886  -0.869  1.00  0.00     0.280 HD
HETATM   21  C   UNL     1      39.589 -13.797  -0.852  1.00  0.00     0.254 C 
HETATM   22  C   UNL     1      38.683 -13.582  -2.084  1.00  0.00     0.150 C 
HETATM   23  N   UNL     1      39.469 -13.653  -3.330  1.00  0.00    -0.378 N 
HETATM   24  C   UNL     1      40.111 -14.976  -3.481  1.00  0.00     0.150 C 
HETATM   25  C   UNL     1      41.100 -15.221  -2.322  1.00  0.00     0.254 C 
BRANCH  23  26
HETATM   26  C   UNL     1      40.196 -12.533  -3.768  1.00  0.00     0.030 A 
HETATM   27  C   UNL     1      41.600 -12.505  -3.838  1.00  0.00     0.029 A 
HETATM   28  C   UNL     1      42.302 -11.384  -4.304  1.00  0.00     0.002 A 
HETATM   29  C   UNL     1      41.618 -10.240  -4.693  1.00  0.00     0.000 A 
HETATM   30  C   UNL     1      40.236 -10.213  -4.589  1.00  0.00     0.002 A 
HETATM   31  C   UNL     1      39.543 -11.337  -4.123  1.00  0.00     0.029 A 
ENDBRANCH  23  26
ENDBRANCH  18  19
ENDBRANCH  17  18
ENDBRANCH  14  17
ENDBRANCH   2  13
BRANCH   2  32
HETATM   32  O   UNL     1      40.276 -14.523   3.195  1.00  0.00    -0.359 OA
HETATM   33  H   UNL     1      39.922 -15.370   3.520  1.00  0.00     0.213 HD
ENDBRANCH   2  32
BRANCH   1  34
HETATM   34  C   UNL     1      42.264 -16.593   4.384  1.00  0.00     0.076 A 
HETATM   35  C   UNL     1      43.454 -16.983   5.031  1.00  0.00     0.098 A 
HETATM   36  C   UNL     1      44.140 -18.114   4.581  1.00  0.00     0.075 A 
HETATM   37  C   UNL     1      43.617 -18.877   3.536  1.00  0.00     0.070 A 
HETATM   38  C   UNL     1      42.442 -18.497   2.893  1.00  0.00     0.039 A 
HETATM   39  C   UNL     1      41.757 -17.362   3.326  1.00  0.00     0.035 A 
BRANCH  35  40
HETATM   40  O   UNL     1      43.817 -16.237   6.120  1.00  0.00    -0.354 OA
HETATM   41  C   UNL     1      43.907 -16.899   7.376  1.00  0.00     0.210 C 
ENDBRANCH  35  40
BRANCH  37  42
HETATM   42  O   UNL     1      44.318 -19.989   3.157  1.00  0.00    -0.356 OA
HETATM   43  C   UNL     1      43.719 -20.618   2.020  1.00  0.00     0.210 C 
ENDBRANCH  37  42
ENDBRANCH   1  34
TORSDOF 9
ENDMDL
MODEL 6
REMARK VINA RESULT:      -7.8      1.897      3.427
REMARK  9 active torsions:
REMARK  status: ('A' for Active; 'I' for Inactive)
REMARK    1  A    between atoms: O_2  and  C_3 
REMARK    2  A    between atoms: C_5  and  O_6 
REMARK    3  A    between atoms: C_8  and  N_9 
REMARK    4  A    between atoms: C_10  and  C_12 
REMARK    5  A    between atoms: C_10  and  O_11 
REMARK       I    between atoms: C_12  and  N_13 
REMARK    6  A    between atoms: N_13  and  C_14 
REMARK    7  A    between atoms: C_14  and  C_15 
REMARK    8  A    between atoms: C_15  and  N_16 
REMARK    9  A    between atoms: N_20  and  C_21 
ROOT
HETATM    1  N   UNL     1      42.140 -14.699   4.592  1.00  0.00    -0.251 N 
HETATM    2  C   UNL     1      40.748 -14.340   4.305  1.00  0.00     0.256 C 
HETATM    3  C   UNL     1      40.421 -12.913   4.728  1.00  0.00     0.034 A 
HETATM    4  C   UNL     1      41.180 -12.350   5.754  1.00  0.00     0.048 A 
HETATM    5  N   UNL     1      42.268 -13.055   6.255  1.00  0.00    -0.308 N 
HETATM    6  C   UNL     1      42.798 -14.178   5.695  1.00  0.00     0.330 C 
HETATM    7  O   UNL     1      43.819 -14.653   6.189  1.00  0.00    -0.246 OA
HETATM    8  C   UNL     1      39.342 -12.167   4.223  1.00  0.00     0.015 A 
HETATM    9  C   UNL     1      39.039 -10.903   4.736  1.00  0.00     0.001 A 
HETATM   10  C   UNL     1      39.802 -10.370   5.770  1.00  0.00     0.002 A 
HETATM   11  C   UNL     1      40.875 -11.095   6.283  1.00  0.00     0.030 A 
HETATM   12  H   UNL     1      42.825 -12.659   7.003  1.00  0.00     0.170 HD
ENDROOT
BRANCH   2  13
HETATM   13  C   UNL     1      40.302 -14.576   2.780  1.00  0.00     0.279 C 
HETATM   14  N   UNL     1      40.776 -13.812   1.740  1.00  0.00    -0.355 N 
HETATM   15  H   UNL     1      40.249 -14.000   0.892  1.00  0.00     0.162 HD
HETATM   16  O   UNL     1      39.529 -15.475   2.427  1.00  0.00    -0.268 OA
BRANCH  14  17
HETATM   17  C   UNL     1      41.818 -12.802   1.691  1.00  0.00     0.150 C 
BRANCH  17  18
HETATM   18  C   UNL     1      41.336 -11.372   1.353  1.00  0.00     0.254 C 
BRANCH  18  19
HETATM   19  N   UNL     1      41.352 -11.034  -0.140  1.00  0.00    -0.067 N 
HETATM   20  H   UNL     1      41.648 -10.059  -0.264  1.00  0.00     0.280 HD
HETATM   21  C   UNL     1      42.408 -11.927  -0.834  1.00  0.00     0.254 C 
HETATM   22  C   UNL     1      42.382 -11.777  -2.371  1.00  0.00     0.150 C 
HETATM   23  N   UNL     1      41.023 -12.009  -2.896  1.00  0.00    -0.378 N 
HETATM   24  C   UNL     1      40.062 -11.034  -2.342  1.00  0.00     0.150 C 
HETATM   25  C   UNL     1      39.974 -11.187  -0.809  1.00  0.00     0.254 C 
BRANCH  23  26
HETATM   26  C   UNL     1      40.562 -13.322  -3.096  1.00  0.00     0.030 A 
HETATM   27  C   UNL     1      39.239 -13.627  -3.460  1.00  0.00     0.029 A 
HETATM   28  C   UNL     1      38.810 -14.944  -3.679  1.00  0.00     0.002 A 
HETATM   29  C   UNL     1      39.689 -16.005  -3.515  1.00  0.00     0.000 A 
HETATM   30  C   UNL     1      40.989 -15.747  -3.108  1.00  0.00     0.002 A 
HETATM   31  C   UNL     1      41.409 -14.428  -2.890  1.00  0.00     0.029 A 
ENDBRANCH  23  26
ENDBRANCH  18  19
ENDBRANCH  17  18
ENDBRANCH  14  17
ENDBRANCH   2  13
BRANCH   2  32
HETATM   32  O   UNL     1      39.958 -15.144   5.193  1.00  0.00    -0.359 OA
HETATM   33  H   UNL     1      39.081 -15.136   4.770  1.00  0.00     0.213 HD
ENDBRANCH   2  32
BRANCH   1  34
HETATM   34  C   UNL     1      42.721 -15.837   3.953  1.00  0.00     0.076 A 
HETATM   35  C   UNL     1      42.466 -17.131   4.449  1.00  0.00     0.098 A 
HETATM   36  C   UNL     1      42.968 -18.240   3.764  1.00  0.00     0.075 A 
HETATM   37  C   UNL     1      43.668 -18.063   2.570  1.00  0.00     0.070 A 
HETATM   38  C   UNL     1      43.924 -16.788   2.074  1.00  0.00     0.039 A 
HETATM   39  C   UNL     1      43.439 -15.674   2.757  1.00  0.00     0.035 A 
BRANCH  35  40
HETATM   40  O   UNL     1      41.669 -17.200   5.559  1.00  0.00    -0.354 OA
HETATM   41  C   UNL     1      42.266 -17.625   6.779  1.00  0.00     0.210 C 
ENDBRANCH  35  40
BRANCH  37  42
HETATM   42  O   UNL     1      44.112 -19.188   1.929  1.00  0.00    -0.356 OA
HETATM   43  C   UNL     1      44.530 -20.187   2.863  1.00  0.00     0.210 C 
ENDBRANCH  37  42
ENDBRANCH   1  34
TORSDOF 9
ENDMDL
MODEL 7
REMARK VINA RESULT:      -7.8      2.419      7.670
REMARK  9 active torsions:
REMARK  status: ('A' for Active; 'I' for Inactive)
REMARK    1  A    between atoms: O_2  and  C_3 
REMARK    2  A    between atoms: C_5  and  O_6 
REMARK    3  A    between atoms: C_8  and  N_9 
REMARK    4  A    between atoms: C_10  and  C_12 
REMARK    5  A    between atoms: C_10  and  O_11 
REMARK       I    between atoms: C_12  and  N_13 
REMARK    6  A    between atoms: N_13  and  C_14 
REMARK    7  A    between atoms: C_14  and  C_15 
REMARK    8  A    between atoms: C_15  and  N_16 
REMARK    9  A    between atoms: N_20  and  C_21 
ROOT
HETATM    1  N   UNL     1      40.186 -12.205   0.886  1.00  0.00    -0.251 N 
HETATM    2  C   UNL     1      39.210 -12.794  -0.036  1.00  0.00     0.256 C 
HETATM    3  C   UNL     1      39.872 -13.398  -1.268  1.00  0.00     0.034 A 
HETATM    4  C   UNL     1      41.107 -12.885  -1.660  1.00  0.00     0.048 A 
HETATM    5  N   UNL     1      41.735 -11.944  -0.853  1.00  0.00    -0.308 N 
HETATM    6  C   UNL     1      41.348 -11.616   0.412  1.00  0.00     0.330 C 
HETATM    7  O   UNL     1      42.046 -10.832   1.053  1.00  0.00    -0.246 OA
HETATM    8  C   UNL     1      39.271 -14.367  -2.092  1.00  0.00     0.015 A 
HETATM    9  C   UNL     1      39.894 -14.798  -3.266  1.00  0.00     0.001 A 
HETATM   10  C   UNL     1      41.119 -14.258  -3.643  1.00  0.00     0.002 A 
HETATM   11  C   UNL     1      41.729 -13.298  -2.840  1.00  0.00     0.030 A 
HETATM   12  H   UNL     1      42.631 -11.560  -1.128  1.00  0.00     0.170 HD
ENDROOT
BRANCH   2  13
HETATM   13  C   UNL     1      38.223 -13.866   0.640  1.00  0.00     0.279 C 
HETATM   14  N   UNL     1      38.657 -15.083   1.111  1.00  0.00    -0.355 N 
HETATM   15  H   UNL     1      37.866 -15.679   1.337  1.00  0.00     0.162 HD
HETATM   16  O   UNL     1      37.014 -13.667   0.811  1.00  0.00    -0.268 OA
BRANCH  14  17
HETATM   17  C   UNL     1      39.994 -15.624   1.275  1.00  0.00     0.150 C 
BRANCH  17  18
HETATM   18  C   UNL     1      40.162 -16.623   2.444  1.00  0.00     0.254 C 
BRANCH  18  19
HETATM   19  N   UNL     1      41.545 -16.604   3.100  1.00  0.00    -0.067 N 
HETATM   20  H   UNL     1      41.719 -15.674   3.497  1.00  0.00     0.280 HD
HETATM   21  C   UNL     1      41.545 -17.612   4.274  1.00  0.00     0.254 C 
HETATM   22  C   UNL     1      42.948 -17.786   4.895  1.00  0.00     0.150 C 
HETATM   23  N   UNL     1      43.939 -18.136   3.860  1.00  0.00    -0.378 N 
HETATM   24  C   UNL     1      44.039 -17.075   2.836  1.00  0.00     0.150 C 
HETATM   25  C   UNL     1      42.686 -16.907   2.113  1.00  0.00     0.254 C 
BRANCH  23  26
HETATM   26  C   UNL     1      44.055 -19.466   3.419  1.00  0.00     0.030 A 
HETATM   27  C   UNL     1      43.584 -19.908   2.171  1.00  0.00     0.029 A 
HETATM   28  C   UNL     1      43.736 -21.235   1.743  1.00  0.00     0.002 A 
HETATM   29  C   UNL     1      44.345 -22.172   2.566  1.00  0.00     0.000 A 
HETATM   30  C   UNL     1      44.778 -21.784   3.824  1.00  0.00     0.002 A 
HETATM   31  C   UNL     1      44.621 -20.457   4.244  1.00  0.00     0.029 A 
ENDBRANCH  23  26
ENDBRANCH  18  19
ENDBRANCH  17  18
ENDBRANCH  14  17
ENDBRANCH   2  13
BRANCH   2  32
HETATM   32  O   UNL     1      38.468 -11.685  -0.562  1.00  0.00    -0.359 OA
HETATM   33  H   UNL     1      38.152 -11.235   0.242  1.00  0.00     0.213 HD
ENDBRANCH   2  32
BRANCH   1  34
HETATM   34  C   UNL     1      39.804 -11.922   2.233  1.00  0.00     0.076 A 
HETATM   35  C   UNL     1      40.453 -12.574   3.300  1.00  0.00     0.098 A 
HETATM   36  C   UNL     1      40.132 -12.226   4.614  1.00  0.00     0.075 A 
HETATM   37  C   UNL     1      39.216 -11.202   4.860  1.00  0.00     0.070 A 
HETATM   38  C   UNL     1      38.571 -10.553   3.810  1.00  0.00     0.039 A 
HETATM   39  C   UNL     1      38.875 -10.904   2.495  1.00  0.00     0.035 A 
BRANCH  35  40
HETATM   40  O   UNL     1      41.420 -13.478   2.952  1.00  0.00    -0.354 OA
HETATM   41  C   UNL     1      42.731 -13.277   3.468  1.00  0.00     0.210 C 
ENDBRANCH  35  40
BRANCH  37  42
HETATM   42  O   UNL     1      38.962 -10.885   6.166  1.00  0.00    -0.356 OA
HETATM   43  C   UNL     1      40.026 -11.314   7.021  1.00  0.00     0.210 C 
ENDBRANCH  37  42
ENDBRANCH   1  34
TORSDOF 9
ENDMDL
MODEL 8
REMARK VINA RESULT:      -7.8      4.596      8.107
REMARK  9 active torsions:
REMARK  status: ('A' for Active; 'I' for Inactive)
REMARK    1  A    between atoms: O_2  and  C_3 
REMARK    2  A    between atoms: C_5  and  O_6 
REMARK    3  A    between atoms: C_8  and  N_9 
REMARK    4  A    between atoms: C_10  and  C_12 
REMARK    5  A    between atoms: C_10  and  O_11 
REMARK       I    between atoms: C_12  and  N_13 
REMARK    6  A    between atoms: N_13  and  C_14 
REMARK    7  A    between atoms: C_14  and  C_15 
REMARK    8  A    between atoms: C_15  and  N_16 
REMARK    9  A    between atoms: N_20  and  C_21 
ROOT
HETATM    1  N   UNL     1      42.130 -13.809   4.374  1.00  0.00    -0.251 N 
HETATM    2  C   UNL     1      41.091 -12.892   4.852  1.00  0.00     0.256 C 
HETATM    3  C   UNL     1      40.395 -12.162   3.710  1.00  0.00     0.034 A 
HETATM    4  C   UNL     1      41.104 -11.991   2.521  1.00  0.00     0.048 A 
HETATM    5  N   UNL     1      42.349 -12.592   2.384  1.00  0.00    -0.308 N 
HETATM    6  C   UNL     1      42.869 -13.518   3.238  1.00  0.00     0.330 C 
HETATM    7  O   UNL     1      43.946 -14.040   2.952  1.00  0.00    -0.246 OA
HETATM    8  C   UNL     1      39.127 -11.563   3.811  1.00  0.00     0.015 A 
HETATM    9  C   UNL     1      38.597 -10.818   2.755  1.00  0.00     0.001 A 
HETATM   10  C   UNL     1      39.331 -10.649   1.585  1.00  0.00     0.002 A 
HETATM   11  C   UNL     1      40.589 -11.235   1.467  1.00  0.00     0.030 A 
HETATM   12  H   UNL     1      42.877 -12.472   1.528  1.00  0.00     0.170 HD
ENDROOT
BRANCH   2  13
HETATM   13  C   UNL     1      39.999 -13.571   5.816  1.00  0.00     0.279 C 
HETATM   14  N   UNL     1      39.571 -12.985   6.984  1.00  0.00    -0.355 N 
HETATM   15  H   UNL     1      39.022 -13.641   7.530  1.00  0.00     0.162 HD
HETATM   16  O   UNL     1      39.446 -14.649   5.567  1.00  0.00    -0.268 OA
BRANCH  14  17
HETATM   17  C   UNL     1      39.818 -11.665   7.539  1.00  0.00     0.150 C 
BRANCH  17  18
HETATM   18  C   UNL     1      38.968 -11.303   8.780  1.00  0.00     0.254 C 
BRANCH  18  19
HETATM   19  N   UNL     1      39.661 -10.367   9.772  1.00  0.00    -0.067 N 
HETATM   20  H   UNL     1      38.999  -9.645  10.078  1.00  0.00     0.280 HD
HETATM   21  C   UNL     1      40.059 -11.185  11.024  1.00  0.00     0.254 C 
HETATM   22  C   UNL     1      40.914 -10.363  12.012  1.00  0.00     0.150 C 
HETATM   23  N   UNL     1      42.086  -9.780  11.332  1.00  0.00    -0.378 N 
HETATM   24  C   UNL     1      41.673  -8.869  10.244  1.00  0.00     0.150 C 
HETATM   25  C   UNL     1      40.882  -9.648   9.171  1.00  0.00     0.254 C 
BRANCH  23  26
HETATM   26  C   UNL     1      43.233 -10.562  11.113  1.00  0.00     0.030 A 
HETATM   27  C   UNL     1      44.260 -10.194  10.227  1.00  0.00     0.029 A 
HETATM   28  C   UNL     1      45.408 -10.979  10.046  1.00  0.00     0.002 A 
HETATM   29  C   UNL     1      45.553 -12.176  10.732  1.00  0.00     0.000 A 
HETATM   30  C   UNL     1      44.538 -12.597  11.577  1.00  0.00     0.002 A 
HETATM   31  C   UNL     1      43.395 -11.807  11.751  1.00  0.00     0.029 A 
ENDBRANCH  23  26
ENDBRANCH  18  19
ENDBRANCH  17  18
ENDBRANCH  14  17
ENDBRANCH   2  13
BRANCH   2  32
HETATM   32  O   UNL     1      41.794 -11.848   5.541  1.00  0.00    -0.359 OA
HETATM   33  H   UNL     1      41.149 -11.118   5.544  1.00  0.00     0.213 HD
ENDBRANCH   2  32
BRANCH   1  34
HETATM   34  C   UNL     1      42.630 -14.826   5.245  1.00  0.00     0.076 A 
HETATM   35  C   UNL     1      42.347 -16.180   4.980  1.00  0.00     0.098 A 
HETATM   36  C   UNL     1      42.913 -17.170   5.787  1.00  0.00     0.075 A 
HETATM   37  C   UNL     1      43.793 -16.815   6.811  1.00  0.00     0.070 A 
HETATM   38  C   UNL     1      44.077 -15.479   7.078  1.00  0.00     0.039 A 
HETATM   39  C   UNL     1      43.506 -14.483   6.286  1.00  0.00     0.035 A 
BRANCH  35  40
HETATM   40  O   UNL     1      41.569 -16.427   3.881  1.00  0.00    -0.354 OA
HETATM   41  C   UNL     1      42.035 -17.388   2.941  1.00  0.00     0.210 C 
ENDBRANCH  35  40
BRANCH  37  42
HETATM   42  O   UNL     1      44.339 -17.829   7.551  1.00  0.00    -0.356 OA
HETATM   43  C   UNL     1      43.847 -19.104   7.126  1.00  0.00     0.210 C 
ENDBRANCH  37  42
ENDBRANCH   1  34
TORSDOF 9
ENDMDL
MODEL 9
REMARK VINA RESULT:      -7.8      1.253      1.996
REMARK  9 active torsions:
REMARK  status: ('A' for Active; 'I' for Inactive)
REMARK    1  A    between atoms: O_2  and  C_3 
REMARK    2  A    between atoms: C_5  and  O_6 
REMARK    3  A    between atoms: C_8  and  N_9 
REMARK    4  A    between atoms: C_10  and  C_12 
REMARK    5  A    between atoms: C_10  and  O_11 
REMARK       I    between atoms: C_12  and  N_13 
REMARK    6  A    between atoms: N_13  and  C_14 
REMARK    7  A    between atoms: C_14  and  C_15 
REMARK    8  A    between atoms: C_15  and  N_16 
REMARK    9  A    between atoms: N_20  and  C_21 
ROOT
HETATM    1  N   UNL     1      42.332 -14.867   2.807  1.00  0.00    -0.251 N 
HETATM    2  C   UNL     1      40.867 -14.852   2.743  1.00  0.00     0.256 C 
HETATM    3  C   UNL     1      40.320 -13.484   2.356  1.00  0.00     0.034 A 
HETATM    4  C   UNL     1      41.102 -12.366   2.642  1.00  0.00     0.048 A 
HETATM    5  N   UNL     1      42.383 -12.550   3.148  1.00  0.00    -0.308 N 
HETATM    6  C   UNL     1      43.039 -13.743   3.204  1.00  0.00     0.330 C 
HETATM    7  O   UNL     1      44.206 -13.753   3.592  1.00  0.00    -0.246 OA
HETATM    8  C   UNL     1      39.037 -13.269   1.821  1.00  0.00     0.015 A 
HETATM    9  C   UNL     1      38.562 -11.975   1.589  1.00  0.00     0.001 A 
HETATM   10  C   UNL     1      39.357 -10.876   1.899  1.00  0.00     0.002 A 
HETATM   11  C   UNL     1      40.630 -11.070   2.429  1.00  0.00     0.030 A 
HETATM   12  H   UNL     1      42.961 -11.746   3.366  1.00  0.00     0.170 HD
ENDROOT
BRANCH   2  13
HETATM   13  C   UNL     1      40.232 -15.986   1.799  1.00  0.00     0.279 C 
HETATM   14  N   UNL     1      40.358 -15.969   0.430  1.00  0.00    -0.355 N 
HETATM   15  H   UNL     1      39.748 -16.663   0.008  1.00  0.00     0.162 HD
HETATM   16  O   UNL     1      39.614 -16.966   2.232  1.00  0.00    -0.268 OA
BRANCH  14  17
HETATM   17  C   UNL     1      41.146 -15.123  -0.449  1.00  0.00     0.150 C 
BRANCH  17  18
HETATM   18  C   UNL     1      40.463 -14.741  -1.783  1.00  0.00     0.254 C 
BRANCH  18  19
HETATM   19  N   UNL     1      39.759 -13.382  -1.768  1.00  0.00    -0.067 N 
HETATM   20  H   UNL     1      39.078 -13.361  -1.000  1.00  0.00     0.280 HD
HETATM   21  C   UNL     1      40.812 -12.287  -1.476  1.00  0.00     0.254 C 
HETATM   22  C   UNL     1      40.227 -10.863  -1.605  1.00  0.00     0.150 C 
HETATM   23  N   UNL     1      39.581 -10.680  -2.918  1.00  0.00    -0.378 N 
HETATM   24  C   UNL     1      38.467 -11.633  -3.103  1.00  0.00     0.150 C 
HETATM   25  C   UNL     1      38.997 -13.082  -3.070  1.00  0.00     0.254 C 
BRANCH  23  26
HETATM   26  C   UNL     1      40.360 -10.377  -4.048  1.00  0.00     0.030 A 
HETATM   27  C   UNL     1      41.738 -10.109  -3.985  1.00  0.00     0.029 A 
HETATM   28  C   UNL     1      42.499  -9.835  -5.131  1.00  0.00     0.002 A 
HETATM   29  C   UNL     1      41.896  -9.797  -6.380  1.00  0.00     0.000 A 
HETATM   30  C   UNL     1      40.529 -10.006  -6.476  1.00  0.00     0.002 A 
HETATM   31  C   UNL     1      39.777 -10.279  -5.326  1.00  0.00     0.029 A 
ENDBRANCH  23  26
ENDBRANCH  18  19
ENDBRANCH  17  18
ENDBRANCH  14  17
ENDBRANCH   2  13
BRANCH   2  32
HETATM   32  O   UNL     1      40.428 -15.019   4.099  1.00  0.00    -0.359 OA
HETATM   33  H   UNL     1      39.596 -14.514   4.121  1.00  0.00     0.213 HD
ENDBRANCH   2  32
BRANCH   1  34
HETATM   34  C   UNL     1      43.026 -16.115   2.796  1.00  0.00     0.076 A 
HETATM   35  C   UNL     1      43.131 -16.873   3.979  1.00  0.00     0.098 A 
HETATM   36  C   UNL     1      43.736 -18.131   3.937  1.00  0.00     0.075 A 
HETATM   37  C   UNL     1      44.181 -18.650   2.720  1.00  0.00     0.070 A 
HETATM   38  C   UNL     1      44.080 -17.907   1.547  1.00  0.00     0.039 A 
HETATM   39  C   UNL     1      43.490 -16.644   1.582  1.00  0.00     0.035 A 
BRANCH  35  40
HETATM   40  O   UNL     1      42.557 -16.325   5.095  1.00  0.00    -0.354 OA
HETATM   41  C   UNL     1      43.404 -16.029   6.198  1.00  0.00     0.210 C 
ENDBRANCH  35  40
BRANCH  37  42
HETATM   42  O   UNL     1      44.739 -19.899   2.735  1.00  0.00    -0.356 OA
HETATM   43  C   UNL     1      44.811 -20.419   4.066  1.00  0.00     0.210 C 
ENDBRANCH  37  42
ENDBRANCH   1  34
TORSDOF 9
ENDMDL
MODEL 10
REMARK VINA RESULT:      -7.7      4.128      7.366
REMARK  9 active torsions:
REMARK  status: ('A' for Active; 'I' for Inactive)
REMARK    1  A    between atoms: O_2  and  C_3 
REMARK    2  A    between atoms: C_5  and  O_6 
REMARK    3  A    between atoms: C_8  and  N_9 
REMARK    4  A    between atoms: C_10  and  C_12 
REMARK    5  A    between atoms: C_10  and  O_11 
REMARK       I    between atoms: C_12  and  N_13 
REMARK    6  A    between atoms: N_13  and  C_14 
REMARK    7  A    between atoms: C_14  and  C_15 
REMARK    8  A    between atoms: C_15  and  N_16 
REMARK    9  A    between atoms: N_20  and  C_21 
ROOT
HETATM    1  N   UNL     1      41.134 -15.590   2.535  1.00  0.00    -0.251 N 
HETATM    2  C   UNL     1      41.428 -14.184   2.240  1.00  0.00     0.256 C 
HETATM    3  C   UNL     1      40.167 -13.377   1.962  1.00  0.00     0.034 A 
HETATM    4  C   UNL     1      39.050 -14.060   1.483  1.00  0.00     0.048 A 
HETATM    5  N   UNL     1      39.092 -15.447   1.397  1.00  0.00    -0.308 N 
HETATM    6  C   UNL     1      40.063 -16.235   1.936  1.00  0.00     0.330 C 
HETATM    7  O   UNL     1      39.933 -17.456   1.866  1.00  0.00    -0.246 OA
HETATM    8  C   UNL     1      40.087 -11.976   2.062  1.00  0.00     0.015 A 
HETATM    9  C   UNL     1      38.927 -11.293   1.688  1.00  0.00     0.001 A 
HETATM   10  C   UNL     1      37.832 -11.997   1.198  1.00  0.00     0.002 A 
HETATM   11  C   UNL     1      37.892 -13.385   1.092  1.00  0.00     0.030 A 
HETATM   12  H   UNL     1      38.289 -15.955   1.046  1.00  0.00     0.170 HD
ENDROOT
BRANCH   2  13
HETATM   13  C   UNL     1      42.320 -13.445   3.353  1.00  0.00     0.279 C 
HETATM   14  N   UNL     1      41.798 -12.984   4.538  1.00  0.00    -0.355 N 
HETATM   15  H   UNL     1      42.475 -12.399   5.021  1.00  0.00     0.162 HD
HETATM   16  O   UNL     1      43.539 -13.264   3.240  1.00  0.00    -0.268 OA
BRANCH  14  17
HETATM   17  C   UNL     1      40.487 -13.155   5.138  1.00  0.00     0.150 C 
BRANCH  17  18
HETATM   18  C   UNL     1      40.443 -13.014   6.677  1.00  0.00     0.254 C 
BRANCH  18  19
HETATM   19  N   UNL     1      40.358 -11.571   7.179  1.00  0.00    -0.067 N 
HETATM   20  H   UNL     1      39.887 -10.993   6.474  1.00  0.00     0.280 HD
HETATM   21  C   UNL     1      39.480 -11.545   8.454  1.00  0.00     0.254 C 
HETATM   22  C   UNL     1      39.471 -10.156   9.129  1.00  0.00     0.150 C 
HETATM   23  N   UNL     1      40.847  -9.692   9.390  1.00  0.00    -0.378 N 
HETATM   24  C   UNL     1      41.615  -9.566   8.134  1.00  0.00     0.150 C 
HETATM   25  C   UNL     1      41.737 -10.942   7.446  1.00  0.00     0.254 C 
BRANCH  23  26
HETATM   26  C   UNL     1      41.540 -10.151  10.523  1.00  0.00     0.030 A 
HETATM   27  C   UNL     1      42.928 -10.002  10.690  1.00  0.00     0.029 A 
HETATM   28  C   UNL     1      43.594 -10.446  11.842  1.00  0.00     0.002 A 
HETATM   29  C   UNL     1      42.891 -11.078  12.858  1.00  0.00     0.000 A 
HETATM   30  C   UNL     1      41.529 -11.288  12.707  1.00  0.00     0.002 A 
HETATM   31  C   UNL     1      40.872 -10.842  11.552  1.00  0.00     0.029 A 
ENDBRANCH  23  26
ENDBRANCH  18  19
ENDBRANCH  17  18
ENDBRANCH  14  17
ENDBRANCH   2  13
BRANCH   2  32
HETATM   32  O   UNL     1      42.106 -14.197   0.975  1.00  0.00    -0.359 OA
HETATM   33  H   UNL     1      41.900 -13.317   0.611  1.00  0.00     0.213 HD
ENDBRANCH   2  32
BRANCH   1  34
HETATM   34  C   UNL     1      42.127 -16.402   3.163  1.00  0.00     0.076 A 
HETATM   35  C   UNL     1      41.997 -16.749   4.522  1.00  0.00     0.098 A 
HETATM   36  C   UNL     1      42.927 -17.615   5.102  1.00  0.00     0.075 A 
HETATM   37  C   UNL     1      43.942 -18.171   4.322  1.00  0.00     0.070 A 
HETATM   38  C   UNL     1      44.077 -17.833   2.978  1.00  0.00     0.039 A 
HETATM   39  C   UNL     1      43.161 -16.959   2.394  1.00  0.00     0.035 A 
BRANCH  35  40
HETATM   40  O   UNL     1      40.900 -16.245   5.167  1.00  0.00    -0.354 OA
HETATM   41  C   UNL     1      40.605 -16.748   6.465  1.00  0.00     0.210 C 
ENDBRANCH  35  40
BRANCH  37  42
HETATM   42  O   UNL     1      44.807 -19.035   4.937  1.00  0.00    -0.356 OA
HETATM   43  C   UNL     1      44.111 -19.941   5.798  1.00  0.00     0.210 C 
ENDBRANCH  37  42
ENDBRANCH   1  34
TORSDOF 9
ENDMDL
