MODEL 1
REMARK VINA RESULT:      -6.6      0.000      0.000
REMARK  13 active torsions:
REMARK  status: ('A' for Active; 'I' for Inactive)
REMARK    1  A    between atoms: C_2  and  N_3 
REMARK    2  A    between atoms: N_3  and  C_5 
REMARK    3  A    between atoms: N_3  and  C_34 
REMARK    4  A    between atoms: C_5  and  C_6 
REMARK    5  A    between atoms: C_6  and  O_7 
REMARK    6  A    between atoms: O_7  and  C_8 
REMARK    7  A    between atoms: N_15  and  N_16 
REMARK    8  A    between atoms: C_20  and  O_21 
REMARK    9  A    between atoms: O_21  and  C_22 
REMARK   10  A    between atoms: C_22  and  C_23 
REMARK   11  A    between atoms: C_23  and  N_24 
REMARK   12  A    between atoms: N_24  and  C_26 
REMARK   13  A    between atoms: N_24  and  C_28 
ROOT
HETATM    1  C   UNL     1      43.651 -17.473   3.242  1.00  0.00     0.087 A 
HETATM    2  C   UNL     1      43.236 -18.255   2.139  1.00  0.00     0.045 A 
HETATM    3 BR   UNL     1      43.536 -20.134   2.118  1.00  0.00    -0.048 Br
HETATM    4  C   UNL     1      42.575 -17.685   1.041  1.00  0.00     0.035 A 
HETATM    5  C   UNL     1      42.352 -16.318   1.047  1.00  0.00    -0.011 A 
HETATM    6  C   UNL     1      42.802 -15.535   2.129  1.00  0.00     0.009 A 
HETATM    7  C   UNL     1      42.434 -14.123   1.831  1.00  0.00     0.093 A 
HETATM    8  N   UNL     1      42.621 -13.009   2.467  1.00  0.00    -0.203 NA
HETATM    9  C   UNL     1      41.727 -14.145   0.529  1.00  0.00     0.009 A 
HETATM   10  C   UNL     1      41.689 -15.469   0.078  1.00  0.00    -0.011 A 
HETATM   11  C   UNL     1      41.177 -13.079  -0.166  1.00  0.00     0.053 A 
HETATM   12  C   UNL     1      40.559 -13.353  -1.387  1.00  0.00     0.087 A 
HETATM   13  C   UNL     1      40.493 -14.693  -1.846  1.00  0.00     0.045 A 
HETATM   14 BR   UNL     1      39.631 -15.107  -3.491  1.00  0.00    -0.048 Br
HETATM   15  C   UNL     1      41.061 -15.755  -1.122  1.00  0.00     0.035 A 
HETATM   16  C   UNL     1      43.447 -16.090   3.224  1.00  0.00     0.053 A 
ENDROOT
BRANCH   1  17
HETATM   17  O   UNL     1      44.279 -18.128   4.275  1.00  0.00    -0.348 OA
BRANCH  17  18
HETATM   18  C   UNL     1      43.470 -18.410   5.423  1.00  0.00     0.203 C 
BRANCH  18  19
HETATM   19  C   UNL     1      43.945 -17.504   6.566  1.00  0.00     0.261 C 
BRANCH  19  20
HETATM   20  N   UNL     1      42.873 -16.498   6.980  1.00  0.00    -0.070 N 
HETATM   21  H   UNL     1      42.835 -16.575   8.010  1.00  0.00     0.279 HD
BRANCH  20  22
HETATM   22  C   UNL     1      41.490 -16.859   6.466  1.00  0.00     0.230 C 
HETATM   23  C   UNL     1      40.788 -15.642   5.893  1.00  0.00     0.034 C 
ENDBRANCH  20  22
BRANCH  20  24
HETATM   24  C   UNL     1      43.217 -15.041   6.725  1.00  0.00     0.230 C 
HETATM   25  C   UNL     1      44.711 -14.780   6.770  1.00  0.00     0.034 C 
ENDBRANCH  20  24
ENDBRANCH  19  20
ENDBRANCH  18  19
ENDBRANCH  17  18
ENDBRANCH   1  17
BRANCH   8  26
HETATM   26  N   UNL     1      43.300 -13.068   3.629  1.00  0.00    -0.226 NA
HETATM   27  H   UNL     1      43.327 -12.124   4.034  1.00  0.00     0.145 HD
HETATM   28  H   UNL     1      44.291 -13.232   3.419  1.00  0.00     0.145 HD
ENDBRANCH   8  26
BRANCH  12  29
HETATM   29  O   UNL     1      39.971 -12.390  -2.172  1.00  0.00    -0.348 OA
BRANCH  29  30
HETATM   30  C   UNL     1      38.973 -11.578  -1.544  1.00  0.00     0.203 C 
BRANCH  30  31
HETATM   31  C   UNL     1      37.668 -12.381  -1.509  1.00  0.00     0.261 C 
BRANCH  31  32
HETATM   32  N   UNL     1      36.951 -12.263  -0.161  1.00  0.00    -0.070 N 
HETATM   33  H   UNL     1      36.137 -12.891  -0.261  1.00  0.00     0.279 HD
BRANCH  32  34
HETATM   34  C   UNL     1      37.724 -12.806   1.024  1.00  0.00     0.230 C 
HETATM   35  C   UNL     1      37.868 -14.316   0.994  1.00  0.00     0.034 C 
ENDBRANCH  32  34
BRANCH  32  36
HETATM   36  C   UNL     1      36.384 -10.866   0.016  1.00  0.00     0.230 C 
HETATM   37  C   UNL     1      34.963 -10.893   0.549  1.00  0.00     0.034 C 
ENDBRANCH  32  36
ENDBRANCH  31  32
ENDBRANCH  30  31
ENDBRANCH  29  30
ENDBRANCH  12  29
TORSDOF 13
ENDMDL
MODEL 2
REMARK VINA RESULT:      -6.5      2.183      3.311
REMARK  13 active torsions:
REMARK  status: ('A' for Active; 'I' for Inactive)
REMARK    1  A    between atoms: C_2  and  N_3 
REMARK    2  A    between atoms: N_3  and  C_5 
REMARK    3  A    between atoms: N_3  and  C_34 
REMARK    4  A    between atoms: C_5  and  C_6 
REMARK    5  A    between atoms: C_6  and  O_7 
REMARK    6  A    between atoms: O_7  and  C_8 
REMARK    7  A    between atoms: N_15  and  N_16 
REMARK    8  A    between atoms: C_20  and  O_21 
REMARK    9  A    between atoms: O_21  and  C_22 
REMARK   10  A    between atoms: C_22  and  C_23 
REMARK   11  A    between atoms: C_23  and  N_24 
REMARK   12  A    between atoms: N_24  and  C_26 
REMARK   13  A    between atoms: N_24  and  C_28 
ROOT
HETATM    1  C   UNL     1      43.616 -17.307   3.198  1.00  0.00     0.087 A 
HETATM    2  C   UNL     1      43.225 -18.146   2.128  1.00  0.00     0.045 A 
HETATM    3 BR   UNL     1      43.575 -20.015   2.187  1.00  0.00    -0.048 Br
HETATM    4  C   UNL     1      42.552 -17.640   1.006  1.00  0.00     0.035 A 
HETATM    5  C   UNL     1      42.292 -16.281   0.954  1.00  0.00    -0.011 A 
HETATM    6  C   UNL     1      42.718 -15.441   2.003  1.00  0.00     0.009 A 
HETATM    7  C   UNL     1      42.313 -14.054   1.645  1.00  0.00     0.093 A 
HETATM    8  N   UNL     1      42.469 -12.909   2.234  1.00  0.00    -0.203 NA
HETATM    9  C   UNL     1      41.610 -14.150   0.344  1.00  0.00     0.009 A 
HETATM   10  C   UNL     1      41.609 -15.491  -0.051  1.00  0.00    -0.011 A 
HETATM   11  C   UNL     1      41.034 -13.128  -0.396  1.00  0.00     0.053 A 
HETATM   12  C   UNL     1      40.427 -13.470  -1.605  1.00  0.00     0.087 A 
HETATM   13  C   UNL     1      40.398 -14.829  -2.008  1.00  0.00     0.045 A 
HETATM   14 BR   UNL     1      39.553 -15.335  -3.636  1.00  0.00    -0.048 Br
HETATM   15  C   UNL     1      40.993 -15.845  -1.239  1.00  0.00     0.035 A 
HETATM   16  C   UNL     1      43.375 -15.931   3.121  1.00  0.00     0.053 A 
ENDROOT
BRANCH   1  17
HETATM   17  O   UNL     1      44.258 -17.900   4.259  1.00  0.00    -0.348 OA
BRANCH  17  18
HETATM   18  C   UNL     1      43.461 -18.129   5.427  1.00  0.00     0.203 C 
BRANCH  18  19
HETATM   19  C   UNL     1      43.995 -17.223   6.544  1.00  0.00     0.261 C 
BRANCH  19  20
HETATM   20  N   UNL     1      42.997 -16.128   6.917  1.00  0.00    -0.070 N 
HETATM   21  H   UNL     1      43.028 -16.097   7.949  1.00  0.00     0.279 HD
BRANCH  20  22
HETATM   22  C   UNL     1      41.568 -16.472   6.534  1.00  0.00     0.230 C 
HETATM   23  C   UNL     1      40.917 -15.327   5.780  1.00  0.00     0.034 C 
ENDBRANCH  20  22
BRANCH  20  24
HETATM   24  C   UNL     1      43.384 -14.725   6.486  1.00  0.00     0.230 C 
HETATM   25  C   UNL     1      44.809 -14.371   6.871  1.00  0.00     0.034 C 
ENDBRANCH  20  24
ENDBRANCH  19  20
ENDBRANCH  18  19
ENDBRANCH  17  18
ENDBRANCH   1  17
BRANCH   8  26
HETATM   26  N   UNL     1      43.146 -12.901   3.398  1.00  0.00    -0.226 NA
HETATM   27  H   UNL     1      42.734 -13.613   4.014  1.00  0.00     0.145 HD
HETATM   28  H   UNL     1      42.918 -12.035   3.900  1.00  0.00     0.145 HD
ENDBRANCH   8  26
BRANCH  12  29
HETATM   29  O   UNL     1      39.816 -12.557  -2.432  1.00  0.00    -0.348 OA
BRANCH  29  30
HETATM   30  C   UNL     1      40.495 -11.310  -2.614  1.00  0.00     0.203 C 
BRANCH  30  31
HETATM   31  C   UNL     1      41.600 -11.524  -3.655  1.00  0.00     0.261 C 
BRANCH  31  32
HETATM   32  N   UNL     1      42.602 -10.366  -3.682  1.00  0.00    -0.070 N 
HETATM   33  H   UNL     1      43.521 -10.839  -3.697  1.00  0.00     0.279 HD
BRANCH  32  34
HETATM   34  C   UNL     1      42.571  -9.522  -4.940  1.00  0.00     0.230 C 
HETATM   35  C   UNL     1      42.273  -8.060  -4.662  1.00  0.00     0.034 C 
ENDBRANCH  32  34
BRANCH  32  36
HETATM   36  C   UNL     1      42.551  -9.592  -2.377  1.00  0.00     0.230 C 
HETATM   37  C   UNL     1      43.729  -9.916  -1.477  1.00  0.00     0.034 C 
ENDBRANCH  32  36
ENDBRANCH  31  32
ENDBRANCH  30  31
ENDBRANCH  29  30
ENDBRANCH  12  29
TORSDOF 13
ENDMDL
MODEL 3
REMARK VINA RESULT:      -6.4      4.552      7.554
REMARK  13 active torsions:
REMARK  status: ('A' for Active; 'I' for Inactive)
REMARK    1  A    between atoms: C_2  and  N_3 
REMARK    2  A    between atoms: N_3  and  C_5 
REMARK    3  A    between atoms: N_3  and  C_34 
REMARK    4  A    between atoms: C_5  and  C_6 
REMARK    5  A    between atoms: C_6  and  O_7 
REMARK    6  A    between atoms: O_7  and  C_8 
REMARK    7  A    between atoms: N_15  and  N_16 
REMARK    8  A    between atoms: C_20  and  O_21 
REMARK    9  A    between atoms: O_21  and  C_22 
REMARK   10  A    between atoms: C_22  and  C_23 
REMARK   11  A    between atoms: C_23  and  N_24 
REMARK   12  A    between atoms: N_24  and  C_26 
REMARK   13  A    between atoms: N_24  and  C_28 
ROOT
HETATM    1  C   UNL     1      41.205 -10.794   6.872  1.00  0.00     0.087 A 
HETATM    2  C   UNL     1      40.390 -10.564   5.739  1.00  0.00     0.045 A 
HETATM    3 BR   UNL     1      39.143  -9.127   5.721  1.00  0.00    -0.048 Br
HETATM    4  C   UNL     1      40.484 -11.364   4.591  1.00  0.00     0.035 A 
HETATM    5  C   UNL     1      41.389 -12.412   4.594  1.00  0.00    -0.011 A 
HETATM    6  C   UNL     1      42.172 -12.664   5.739  1.00  0.00     0.009 A 
HETATM    7  C   UNL     1      43.017 -13.853   5.439  1.00  0.00     0.093 A 
HETATM    8  N   UNL     1      43.890 -14.513   6.133  1.00  0.00    -0.203 NA
HETATM    9  C   UNL     1      42.691 -14.253   4.050  1.00  0.00     0.009 A 
HETATM   10  C   UNL     1      41.715 -13.377   3.564  1.00  0.00    -0.011 A 
HETATM   11  C   UNL     1      43.225 -15.298   3.311  1.00  0.00     0.053 A 
HETATM   12  C   UNL     1      42.751 -15.479   2.011  1.00  0.00     0.087 A 
HETATM   13  C   UNL     1      41.777 -14.585   1.496  1.00  0.00     0.045 A 
HETATM   14 BR   UNL     1      41.129 -14.784  -0.282  1.00  0.00    -0.048 Br
HETATM   15  C   UNL     1      41.250 -13.535   2.269  1.00  0.00     0.035 A 
HETATM   16  C   UNL     1      42.094 -11.874   6.875  1.00  0.00     0.053 A 
ENDROOT
BRANCH   1  17
HETATM   17  O   UNL     1      41.047  -9.947   7.942  1.00  0.00    -0.348 OA
BRANCH  17  18
HETATM   18  C   UNL     1      40.772 -10.571   9.203  1.00  0.00     0.203 C 
BRANCH  18  19
HETATM   19  C   UNL     1      41.941 -10.259  10.145  1.00  0.00     0.261 C 
BRANCH  19  20
HETATM   20  N   UNL     1      42.340 -11.474  10.981  1.00  0.00    -0.070 N 
HETATM   21  H   UNL     1      41.846 -12.264  10.533  1.00  0.00     0.279 HD
BRANCH  20  22
HETATM   22  C   UNL     1      41.837 -11.401  12.411  1.00  0.00     0.230 C 
HETATM   23  C   UNL     1      42.806 -10.632  13.290  1.00  0.00     0.034 C 
ENDBRANCH  20  22
BRANCH  20  24
HETATM   24  C   UNL     1      43.807 -11.859  10.908  1.00  0.00     0.230 C 
HETATM   25  C   UNL     1      44.576 -11.027   9.898  1.00  0.00     0.034 C 
ENDBRANCH  20  24
ENDBRANCH  19  20
ENDBRANCH  18  19
ENDBRANCH  17  18
ENDBRANCH   1  17
BRANCH   8  26
HETATM   26  N   UNL     1      44.108 -14.107   7.399  1.00  0.00    -0.226 NA
HETATM   27  H   UNL     1      45.062 -14.381   7.665  1.00  0.00     0.145 HD
HETATM   28  H   UNL     1      43.542 -14.686   8.029  1.00  0.00     0.145 HD
ENDBRANCH   8  26
BRANCH  12  29
HETATM   29  O   UNL     1      43.199 -16.471   1.172  1.00  0.00    -0.348 OA
BRANCH  29  30
HETATM   30  C   UNL     1      44.016 -17.486   1.765  1.00  0.00     0.203 C 
BRANCH  30  31
HETATM   31  C   UNL     1      43.126 -18.703   2.044  1.00  0.00     0.261 C 
BRANCH  31  32
HETATM   32  N   UNL     1      43.686 -19.585   3.163  1.00  0.00    -0.070 N 
HETATM   33  H   UNL     1      42.860 -20.106   3.500  1.00  0.00     0.279 HD
BRANCH  32  34
HETATM   34  C   UNL     1      44.666 -20.649   2.709  1.00  0.00     0.230 C 
HETATM   35  C   UNL     1      43.994 -21.798   1.982  1.00  0.00     0.034 C 
ENDBRANCH  32  34
BRANCH  32  36
HETATM   36  C   UNL     1      44.147 -18.731   4.330  1.00  0.00     0.230 C 
HETATM   37  C   UNL     1      43.090 -18.631   5.414  1.00  0.00     0.034 C 
ENDBRANCH  32  36
ENDBRANCH  31  32
ENDBRANCH  30  31
ENDBRANCH  29  30
ENDBRANCH  12  29
TORSDOF 13
ENDMDL
MODEL 4
REMARK VINA RESULT:      -6.3      4.505      7.513
REMARK  13 active torsions:
REMARK  status: ('A' for Active; 'I' for Inactive)
REMARK    1  A    between atoms: C_2  and  N_3 
REMARK    2  A    between atoms: N_3  and  C_5 
REMARK    3  A    between atoms: N_3  and  C_34 
REMARK    4  A    between atoms: C_5  and  C_6 
REMARK    5  A    between atoms: C_6  and  O_7 
REMARK    6  A    between atoms: O_7  and  C_8 
REMARK    7  A    between atoms: N_15  and  N_16 
REMARK    8  A    between atoms: C_20  and  O_21 
REMARK    9  A    between atoms: O_21  and  C_22 
REMARK   10  A    between atoms: C_22  and  C_23 
REMARK   11  A    between atoms: C_23  and  N_24 
REMARK   12  A    between atoms: N_24  and  C_26 
REMARK   13  A    between atoms: N_24  and  C_28 
ROOT
HETATM    1  C   UNL     1      41.241 -16.457   1.842  1.00  0.00     0.087 A 
HETATM    2  C   UNL     1      40.978 -15.255   1.146  1.00  0.00     0.045 A 
HETATM    3 BR   UNL     1      41.140 -15.177  -0.748  1.00  0.00    -0.048 Br
HETATM    4  C   UNL     1      40.571 -14.091   1.816  1.00  0.00     0.035 A 
HETATM    5  C   UNL     1      40.450 -14.138   3.196  1.00  0.00    -0.011 A 
HETATM    6  C   UNL     1      40.751 -15.327   3.891  1.00  0.00     0.009 A 
HETATM    7  C   UNL     1      40.547 -15.051   5.339  1.00  0.00     0.093 A 
HETATM    8  N   UNL     1      40.696 -15.774   6.405  1.00  0.00    -0.203 NA
HETATM    9  C   UNL     1      40.089 -13.645   5.433  1.00  0.00     0.009 A 
HETATM   10  C   UNL     1      40.038 -13.118   4.138  1.00  0.00    -0.011 A 
HETATM   11  C   UNL     1      39.754 -12.927   6.571  1.00  0.00     0.053 A 
HETATM   12  C   UNL     1      39.350 -11.602   6.403  1.00  0.00     0.087 A 
HETATM   13  C   UNL     1      39.272 -11.060   5.095  1.00  0.00     0.045 A 
HETATM   14 BR   UNL     1      38.696  -9.266   4.826  1.00  0.00    -0.048 Br
HETATM   15  C   UNL     1      39.620 -11.811   3.958  1.00  0.00     0.035 A 
HETATM   16  C   UNL     1      41.145 -16.484   3.237  1.00  0.00     0.053 A 
ENDROOT
BRANCH   1  17
HETATM   17  O   UNL     1      41.621 -17.546   1.093  1.00  0.00    -0.348 OA
BRANCH  17  18
HETATM   18  C   UNL     1      42.927 -18.070   1.364  1.00  0.00     0.203 C 
BRANCH  18  19
HETATM   19  C   UNL     1      42.756 -19.494   1.911  1.00  0.00     0.261 C 
BRANCH  19  20
HETATM   20  N   UNL     1      43.665 -19.757   3.109  1.00  0.00    -0.070 N 
HETATM   21  H   UNL     1      43.029 -20.125   3.836  1.00  0.00     0.279 HD
BRANCH  20  22
HETATM   22  C   UNL     1      44.285 -18.491   3.674  1.00  0.00     0.230 C 
HETATM   23  C   UNL     1      44.256 -18.501   5.191  1.00  0.00     0.034 C 
ENDBRANCH  20  22
BRANCH  20  24
HETATM   24  C   UNL     1      44.691 -20.859   2.915  1.00  0.00     0.230 C 
HETATM   25  C   UNL     1      44.273 -21.862   1.856  1.00  0.00     0.034 C 
ENDBRANCH  20  24
ENDBRANCH  19  20
ENDBRANCH  18  19
ENDBRANCH  17  18
ENDBRANCH   1  17
BRANCH   8  26
HETATM   26  N   UNL     1      41.146 -17.033   6.239  1.00  0.00    -0.226 NA
HETATM   27  H   UNL     1      40.501 -17.525   5.609  1.00  0.00     0.145 HD
HETATM   28  H   UNL     1      41.010 -17.546   7.118  1.00  0.00     0.145 HD
ENDBRANCH   8  26
BRANCH  12  29
HETATM   29  O   UNL     1      38.986 -10.782   7.445  1.00  0.00    -0.348 OA
BRANCH  29  30
HETATM   30  C   UNL     1      39.332 -11.233   8.759  1.00  0.00     0.203 C 
BRANCH  30  31
HETATM   31  C   UNL     1      40.517 -10.393   9.249  1.00  0.00     0.261 C 
BRANCH  31  32
HETATM   32  N   UNL     1      41.283 -11.078  10.383  1.00  0.00    -0.070 N 
HETATM   33  H   UNL     1      40.980 -12.064  10.322  1.00  0.00     0.279 HD
BRANCH  32  34
HETATM   34  C   UNL     1      42.788 -11.116  10.208  1.00  0.00     0.230 C 
HETATM   35  C   UNL     1      43.525 -10.323  11.271  1.00  0.00     0.034 C 
ENDBRANCH  32  34
BRANCH  32  36
HETATM   36  C   UNL     1      40.797 -10.574  11.730  1.00  0.00     0.230 C 
HETATM   37  C   UNL     1      40.307 -11.704  12.617  1.00  0.00     0.034 C 
ENDBRANCH  32  36
ENDBRANCH  31  32
ENDBRANCH  30  31
ENDBRANCH  29  30
ENDBRANCH  12  29
TORSDOF 13
ENDMDL
MODEL 5
REMARK VINA RESULT:      -6.3      3.142      9.107
REMARK  13 active torsions:
REMARK  status: ('A' for Active; 'I' for Inactive)
REMARK    1  A    between atoms: C_2  and  N_3 
REMARK    2  A    between atoms: N_3  and  C_5 
REMARK    3  A    between atoms: N_3  and  C_34 
REMARK    4  A    between atoms: C_5  and  C_6 
REMARK    5  A    between atoms: C_6  and  O_7 
REMARK    6  A    between atoms: O_7  and  C_8 
REMARK    7  A    between atoms: N_15  and  N_16 
REMARK    8  A    between atoms: C_20  and  O_21 
REMARK    9  A    between atoms: O_21  and  C_22 
REMARK   10  A    between atoms: C_22  and  C_23 
REMARK   11  A    between atoms: C_23  and  N_24 
REMARK   12  A    between atoms: N_24  and  C_26 
REMARK   13  A    between atoms: N_24  and  C_28 
ROOT
HETATM    1  C   UNL     1      40.037 -12.990   0.608  1.00  0.00     0.087 A 
HETATM    2  C   UNL     1      40.726 -11.989   1.331  1.00  0.00     0.045 A 
HETATM    3 BR   UNL     1      40.547 -10.155   0.855  1.00  0.00    -0.048 Br
HETATM    4  C   UNL     1      41.543 -12.304   2.427  1.00  0.00     0.035 A 
HETATM    5  C   UNL     1      41.680 -13.636   2.781  1.00  0.00    -0.011 A 
HETATM    6  C   UNL     1      41.023 -14.636   2.035  1.00  0.00     0.009 A 
HETATM    7  C   UNL     1      41.383 -15.945   2.645  1.00  0.00     0.093 A 
HETATM    8  N   UNL     1      41.077 -17.170   2.349  1.00  0.00    -0.203 NA
HETATM    9  C   UNL     1      42.263 -15.638   3.796  1.00  0.00     0.009 A 
HETATM   10  C   UNL     1      42.427 -14.250   3.860  1.00  0.00    -0.011 A 
HETATM   11  C   UNL     1      42.847 -16.524   4.689  1.00  0.00     0.053 A 
HETATM   12  C   UNL     1      43.647 -15.990   5.700  1.00  0.00     0.087 A 
HETATM   13  C   UNL     1      43.805 -14.583   5.790  1.00  0.00     0.045 A 
HETATM   14 BR   UNL     1      44.863 -13.818   7.174  1.00  0.00    -0.048 Br
HETATM   15  C   UNL     1      43.202 -13.708   4.870  1.00  0.00     0.035 A 
HETATM   16  C   UNL     1      40.207 -14.334   0.956  1.00  0.00     0.053 A 
ENDROOT
BRANCH   1  17
HETATM   17  O   UNL     1      39.251 -12.578  -0.442  1.00  0.00    -0.348 OA
BRANCH  17  18
HETATM   18  C   UNL     1      38.629 -13.618  -1.207  1.00  0.00     0.203 C 
BRANCH  18  19
HETATM   19  C   UNL     1      39.278 -13.630  -2.597  1.00  0.00     0.261 C 
BRANCH  19  20
HETATM   20  N   UNL     1      40.377 -14.684  -2.704  1.00  0.00    -0.070 N 
HETATM   21  H   UNL     1      40.546 -14.976  -1.727  1.00  0.00     0.279 HD
BRANCH  20  22
HETATM   22  C   UNL     1      41.690 -14.123  -3.223  1.00  0.00     0.230 C 
HETATM   23  C   UNL     1      42.077 -12.863  -2.471  1.00  0.00     0.034 C 
ENDBRANCH  20  22
BRANCH  20  24
HETATM   24  C   UNL     1      39.981 -15.965  -3.416  1.00  0.00     0.230 C 
HETATM   25  C   UNL     1      38.679 -15.824  -4.183  1.00  0.00     0.034 C 
ENDBRANCH  20  24
ENDBRANCH  19  20
ENDBRANCH  18  19
ENDBRANCH  17  18
ENDBRANCH   1  17
BRANCH   8  26
HETATM   26  N   UNL     1      40.298 -17.369   1.269  1.00  0.00    -0.226 NA
HETATM   27  H   UNL     1      39.316 -17.335   1.570  1.00  0.00     0.145 HD
HETATM   28  H   UNL     1      40.392 -18.348   0.976  1.00  0.00     0.145 HD
ENDBRANCH   8  26
BRANCH  12  29
HETATM   29  O   UNL     1      44.279 -16.755   6.651  1.00  0.00    -0.348 OA
BRANCH  29  30
HETATM   30  C   UNL     1      43.949 -18.148   6.669  1.00  0.00     0.203 C 
BRANCH  30  31
HETATM   31  C   UNL     1      44.970 -18.884   5.793  1.00  0.00     0.261 C 
BRANCH  31  32
HETATM   32  N   UNL     1      44.337 -20.040   5.013  1.00  0.00    -0.070 N 
HETATM   33  H   UNL     1      43.339 -19.778   4.954  1.00  0.00     0.279 HD
BRANCH  32  34
HETATM   34  C   UNL     1      44.797 -20.169   3.574  1.00  0.00     0.230 C 
HETATM   35  C   UNL     1      43.779 -19.642   2.580  1.00  0.00     0.034 C 
ENDBRANCH  32  34
BRANCH  32  36
HETATM   36  C   UNL     1      44.387 -21.319   5.829  1.00  0.00     0.230 C 
HETATM   37  C   UNL     1      45.035 -22.457   5.064  1.00  0.00     0.034 C 
ENDBRANCH  32  36
ENDBRANCH  31  32
ENDBRANCH  30  31
ENDBRANCH  29  30
ENDBRANCH  12  29
TORSDOF 13
ENDMDL
MODEL 6
REMARK VINA RESULT:      -6.3      1.998      8.103
REMARK  13 active torsions:
REMARK  status: ('A' for Active; 'I' for Inactive)
REMARK    1  A    between atoms: C_2  and  N_3 
REMARK    2  A    between atoms: N_3  and  C_5 
REMARK    3  A    between atoms: N_3  and  C_34 
REMARK    4  A    between atoms: C_5  and  C_6 
REMARK    5  A    between atoms: C_6  and  O_7 
REMARK    6  A    between atoms: O_7  and  C_8 
REMARK    7  A    between atoms: N_15  and  N_16 
REMARK    8  A    between atoms: C_20  and  O_21 
REMARK    9  A    between atoms: O_21  and  C_22 
REMARK   10  A    between atoms: C_22  and  C_23 
REMARK   11  A    between atoms: C_23  and  N_24 
REMARK   12  A    between atoms: N_24  and  C_26 
REMARK   13  A    between atoms: N_24  and  C_28 
ROOT
HETATM    1  C   UNL     1      41.125 -13.697  -0.776  1.00  0.00     0.087 A 
HETATM    2  C   UNL     1      40.967 -14.989  -1.329  1.00  0.00     0.045 A 
HETATM    3 BR   UNL     1      40.100 -15.224  -3.006  1.00  0.00    -0.048 Br
HETATM    4  C   UNL     1      41.456 -16.132  -0.679  1.00  0.00     0.035 A 
HETATM    5  C   UNL     1      42.089 -15.971   0.543  1.00  0.00    -0.011 A 
HETATM    6  C   UNL     1      42.210 -14.687   1.111  1.00  0.00     0.009 A 
HETATM    7  C   UNL     1      42.908 -14.849   2.416  1.00  0.00     0.093 A 
HETATM    8  N   UNL     1      43.254 -14.010   3.342  1.00  0.00    -0.203 NA
HETATM    9  C   UNL     1      43.201 -16.295   2.552  1.00  0.00     0.009 A 
HETATM   10  C   UNL     1      42.702 -16.947   1.420  1.00  0.00    -0.011 A 
HETATM   11  C   UNL     1      43.851 -16.943   3.592  1.00  0.00     0.053 A 
HETATM   12  C   UNL     1      44.005 -18.327   3.494  1.00  0.00     0.087 A 
HETATM   13  C   UNL     1      43.524 -19.000   2.342  1.00  0.00     0.045 A 
HETATM   14 BR   UNL     1      43.744 -20.881   2.161  1.00  0.00    -0.048 Br
HETATM   15  C   UNL     1      42.866 -18.317   1.304  1.00  0.00     0.035 A 
HETATM   16  C   UNL     1      41.739 -13.550   0.472  1.00  0.00     0.053 A 
ENDROOT
BRANCH   1  17
HETATM   17  O   UNL     1      40.622 -12.640  -1.496  1.00  0.00    -0.348 OA
BRANCH  17  18
HETATM   18  C   UNL     1      40.153 -11.524  -0.730  1.00  0.00     0.203 C 
BRANCH  18  19
HETATM   19  C   UNL     1      40.994 -10.301  -1.119  1.00  0.00     0.261 C 
BRANCH  19  20
HETATM   20  N   UNL     1      42.162 -10.678  -2.028  1.00  0.00    -0.070 N 
HETATM   21  H   UNL     1      42.066 -11.700  -2.155  1.00  0.00     0.279 HD
BRANCH  20  22
HETATM   22  C   UNL     1      43.516 -10.444  -1.383  1.00  0.00     0.230 C 
HETATM   23  C   UNL     1      43.601  -9.052  -0.785  1.00  0.00     0.034 C 
ENDBRANCH  20  22
BRANCH  20  24
HETATM   24  C   UNL     1      42.094 -10.117  -3.437  1.00  0.00     0.230 C 
HETATM   25  C   UNL     1      42.343 -11.175  -4.496  1.00  0.00     0.034 C 
ENDBRANCH  20  24
ENDBRANCH  19  20
ENDBRANCH  18  19
ENDBRANCH  17  18
ENDBRANCH   1  17
BRANCH   8  26
HETATM   26  N   UNL     1      42.925 -12.717   3.158  1.00  0.00    -0.226 NA
HETATM   27  H   UNL     1      42.945 -12.248   4.072  1.00  0.00     0.145 HD
HETATM   28  H   UNL     1      41.928 -12.666   2.920  1.00  0.00     0.145 HD
ENDBRANCH   8  26
BRANCH  12  29
HETATM   29  O   UNL     1      44.634 -19.089   4.450  1.00  0.00    -0.348 OA
BRANCH  29  30
HETATM   30  C   UNL     1      44.605 -18.582   5.788  1.00  0.00     0.203 C 
BRANCH  30  31
HETATM   31  C   UNL     1      43.186 -18.779   6.335  1.00  0.00     0.261 C 
BRANCH  31  32
HETATM   32  N   UNL     1      42.704 -17.570   7.142  1.00  0.00    -0.070 N 
HETATM   33  H   UNL     1      42.316 -17.990   8.003  1.00  0.00     0.279 HD
BRANCH  32  34
HETATM   34  C   UNL     1      43.801 -16.638   7.617  1.00  0.00     0.230 C 
HETATM   35  C   UNL     1      43.765 -15.286   6.928  1.00  0.00     0.034 C 
ENDBRANCH  32  34
BRANCH  32  36
HETATM   36  C   UNL     1      41.537 -16.898   6.441  1.00  0.00     0.230 C 
HETATM   37  C   UNL     1      40.947 -17.774   5.352  1.00  0.00     0.034 C 
ENDBRANCH  32  36
ENDBRANCH  31  32
ENDBRANCH  30  31
ENDBRANCH  29  30
ENDBRANCH  12  29
TORSDOF 13
ENDMDL
MODEL 7
REMARK VINA RESULT:      -6.2      1.139      7.644
REMARK  13 active torsions:
REMARK  status: ('A' for Active; 'I' for Inactive)
REMARK    1  A    between atoms: C_2  and  N_3 
REMARK    2  A    between atoms: N_3  and  C_5 
REMARK    3  A    between atoms: N_3  and  C_34 
REMARK    4  A    between atoms: C_5  and  C_6 
REMARK    5  A    between atoms: C_6  and  O_7 
REMARK    6  A    between atoms: O_7  and  C_8 
REMARK    7  A    between atoms: N_15  and  N_16 
REMARK    8  A    between atoms: C_20  and  O_21 
REMARK    9  A    between atoms: O_21  and  C_22 
REMARK   10  A    between atoms: C_22  and  C_23 
REMARK   11  A    between atoms: C_23  and  N_24 
REMARK   12  A    between atoms: N_24  and  C_26 
REMARK   13  A    between atoms: N_24  and  C_28 
ROOT
HETATM    1  C   UNL     1      40.962 -13.783  -0.729  1.00  0.00     0.087 A 
HETATM    2  C   UNL     1      40.934 -15.072  -1.309  1.00  0.00     0.045 A 
HETATM    3 BR   UNL     1      40.182 -15.340  -3.036  1.00  0.00    -0.048 Br
HETATM    4  C   UNL     1      41.473 -16.187  -0.650  1.00  0.00     0.035 A 
HETATM    5  C   UNL     1      42.023 -16.002   0.608  1.00  0.00    -0.011 A 
HETATM    6  C   UNL     1      42.014 -14.724   1.201  1.00  0.00     0.009 A 
HETATM    7  C   UNL     1      42.649 -14.858   2.541  1.00  0.00     0.093 A 
HETATM    8  N   UNL     1      42.878 -14.014   3.497  1.00  0.00    -0.203 NA
HETATM    9  C   UNL     1      43.044 -16.280   2.672  1.00  0.00     0.009 A 
HETATM   10  C   UNL     1      42.660 -16.947   1.503  1.00  0.00    -0.011 A 
HETATM   11  C   UNL     1      43.684 -16.898   3.736  1.00  0.00     0.053 A 
HETATM   12  C   UNL     1      43.949 -18.264   3.626  1.00  0.00     0.087 A 
HETATM   13  C   UNL     1      43.585 -18.948   2.439  1.00  0.00     0.045 A 
HETATM   14 BR   UNL     1      43.959 -20.804   2.242  1.00  0.00    -0.048 Br
HETATM   15  C   UNL     1      42.935 -18.297   1.375  1.00  0.00     0.035 A 
HETATM   16  C   UNL     1      41.493 -13.614   0.554  1.00  0.00     0.053 A 
ENDROOT
BRANCH   1  17
HETATM   17  O   UNL     1      40.420 -12.753  -1.460  1.00  0.00    -0.348 OA
BRANCH  17  18
HETATM   18  C   UNL     1      40.459 -11.459  -0.847  1.00  0.00     0.203 C 
BRANCH  18  19
HETATM   19  C   UNL     1      39.021 -11.071  -0.478  1.00  0.00     0.261 C 
BRANCH  19  20
HETATM   20  N   UNL     1      38.580 -11.707   0.839  1.00  0.00    -0.070 N 
HETATM   21  H   UNL     1      39.310 -12.410   1.039  1.00  0.00     0.279 HD
BRANCH  20  22
HETATM   22  C   UNL     1      37.268 -12.463   0.722  1.00  0.00     0.230 C 
HETATM   23  C   UNL     1      37.506 -13.962   0.684  1.00  0.00     0.034 C 
ENDBRANCH  20  22
BRANCH  20  24
HETATM   24  C   UNL     1      38.604 -10.785   2.045  1.00  0.00     0.230 C 
HETATM   25  C   UNL     1      38.610 -11.546   3.358  1.00  0.00     0.034 C 
ENDBRANCH  20  24
ENDBRANCH  19  20
ENDBRANCH  18  19
ENDBRANCH  17  18
ENDBRANCH   1  17
BRANCH   8  26
HETATM   26  N   UNL     1      42.462 -12.746   3.315  1.00  0.00    -0.226 NA
HETATM   27  H   UNL     1      43.148 -12.117   3.749  1.00  0.00     0.145 HD
HETATM   28  H   UNL     1      41.634 -12.588   3.902  1.00  0.00     0.145 HD
ENDBRANCH   8  26
BRANCH  12  29
HETATM   29  O   UNL     1      44.580 -18.994   4.604  1.00  0.00    -0.348 OA
BRANCH  29  30
HETATM   30  C   UNL     1      43.807 -19.298   5.770  1.00  0.00     0.203 C 
BRANCH  30  31
HETATM   31  C   UNL     1      44.283 -18.380   6.902  1.00  0.00     0.261 C 
BRANCH  31  32
HETATM   32  N   UNL     1      43.154 -17.505   7.452  1.00  0.00    -0.070 N 
HETATM   33  H   UNL     1      42.972 -17.899   8.389  1.00  0.00     0.279 HD
BRANCH  32  34
HETATM   34  C   UNL     1      43.528 -16.057   7.699  1.00  0.00     0.230 C 
HETATM   35  C   UNL     1      44.610 -15.559   6.759  1.00  0.00     0.034 C 
ENDBRANCH  32  34
BRANCH  32  36
HETATM   36  C   UNL     1      41.880 -17.721   6.653  1.00  0.00     0.230 C 
HETATM   37  C   UNL     1      41.142 -16.420   6.398  1.00  0.00     0.034 C 
ENDBRANCH  32  36
ENDBRANCH  31  32
ENDBRANCH  30  31
ENDBRANCH  29  30
ENDBRANCH  12  29
TORSDOF 13
ENDMDL
MODEL 8
REMARK VINA RESULT:      -6.2      4.428      7.964
REMARK  13 active torsions:
REMARK  status: ('A' for Active; 'I' for Inactive)
REMARK    1  A    between atoms: C_2  and  N_3 
REMARK    2  A    between atoms: N_3  and  C_5 
REMARK    3  A    between atoms: N_3  and  C_34 
REMARK    4  A    between atoms: C_5  and  C_6 
REMARK    5  A    between atoms: C_6  and  O_7 
REMARK    6  A    between atoms: O_7  and  C_8 
REMARK    7  A    between atoms: N_15  and  N_16 
REMARK    8  A    between atoms: C_20  and  O_21 
REMARK    9  A    between atoms: O_21  and  C_22 
REMARK   10  A    between atoms: C_22  and  C_23 
REMARK   11  A    between atoms: C_23  and  N_24 
REMARK   12  A    between atoms: N_24  and  C_26 
REMARK   13  A    between atoms: N_24  and  C_28 
ROOT
HETATM    1  C   UNL     1      42.803 -16.165   2.470  1.00  0.00     0.087 A 
HETATM    2  C   UNL     1      42.094 -15.129   1.819  1.00  0.00     0.045 A 
HETATM    3 BR   UNL     1      41.549 -15.321   0.006  1.00  0.00    -0.048 Br
HETATM    4  C   UNL     1      41.751 -13.942   2.483  1.00  0.00     0.035 A 
HETATM    5  C   UNL     1      42.143 -13.793   3.804  1.00  0.00    -0.011 A 
HETATM    6  C   UNL     1      42.883 -14.811   4.439  1.00  0.00     0.009 A 
HETATM    7  C   UNL     1      43.166 -14.347   5.825  1.00  0.00     0.093 A 
HETATM    8  N   UNL     1      43.815 -14.872   6.816  1.00  0.00    -0.203 NA
HETATM    9  C   UNL     1      42.525 -13.017   5.955  1.00  0.00     0.009 A 
HETATM   10  C   UNL     1      41.919 -12.706   4.734  1.00  0.00    -0.011 A 
HETATM   11  C   UNL     1      42.497 -12.185   7.064  1.00  0.00     0.053 A 
HETATM   12  C   UNL     1      41.826 -10.967   6.940  1.00  0.00     0.087 A 
HETATM   13  C   UNL     1      41.188 -10.647   5.715  1.00  0.00     0.045 A 
HETATM   14 BR   UNL     1      40.240  -9.008   5.521  1.00  0.00    -0.048 Br
HETATM   15  C   UNL     1      41.235 -11.509   4.606  1.00  0.00     0.035 A 
HETATM   16  C   UNL     1      43.219 -15.991   3.794  1.00  0.00     0.053 A 
ENDROOT
BRANCH   1  17
HETATM   17  O   UNL     1      43.079 -17.295   1.737  1.00  0.00    -0.348 OA
BRANCH  17  18
HETATM   18  C   UNL     1      42.841 -18.545   2.395  1.00  0.00     0.203 C 
BRANCH  18  19
HETATM   19  C   UNL     1      44.152 -19.341   2.378  1.00  0.00     0.261 C 
BRANCH  19  20
HETATM   20  N   UNL     1      44.175 -20.425   3.454  1.00  0.00    -0.070 N 
HETATM   21  H   UNL     1      43.199 -20.470   3.791  1.00  0.00     0.279 HD
BRANCH  20  22
HETATM   22  C   UNL     1      45.031 -20.053   4.652  1.00  0.00     0.230 C 
HETATM   23  C   UNL     1      44.170 -19.599   5.816  1.00  0.00     0.034 C 
ENDBRANCH  20  22
BRANCH  20  24
HETATM   24  C   UNL     1      44.466 -21.829   2.955  1.00  0.00     0.230 C 
HETATM   25  C   UNL     1      44.114 -22.009   1.490  1.00  0.00     0.034 C 
ENDBRANCH  20  24
ENDBRANCH  19  20
ENDBRANCH  18  19
ENDBRANCH  17  18
ENDBRANCH   1  17
BRANCH   8  26
HETATM   26  N   UNL     1      44.395 -16.070   6.609  1.00  0.00    -0.226 NA
HETATM   27  H   UNL     1      44.398 -16.255   5.599  1.00  0.00     0.145 HD
HETATM   28  H   UNL     1      43.764 -16.801   6.954  1.00  0.00     0.145 HD
ENDBRANCH   8  26
BRANCH  12  29
HETATM   29  O   UNL     1      41.719 -10.053   7.962  1.00  0.00    -0.348 OA
BRANCH  29  30
HETATM   30  C   UNL     1      41.381 -10.577   9.251  1.00  0.00     0.203 C 
BRANCH  30  31
HETATM   31  C   UNL     1      42.588 -10.373  10.172  1.00  0.00     0.261 C 
BRANCH  31  32
HETATM   32  N   UNL     1      43.070 -11.687  10.795  1.00  0.00    -0.070 N 
HETATM   33  H   UNL     1      42.322 -12.359  10.556  1.00  0.00     0.279 HD
BRANCH  32  34
HETATM   34  C   UNL     1      44.330 -12.263  10.180  1.00  0.00     0.230 C 
HETATM   35  C   UNL     1      45.488 -11.282  10.180  1.00  0.00     0.034 C 
ENDBRANCH  32  34
BRANCH  32  36
HETATM   36  C   UNL     1      43.073 -11.585  12.310  1.00  0.00     0.230 C 
HETATM   37  C   UNL     1      43.192 -10.148  12.782  1.00  0.00     0.034 C 
ENDBRANCH  32  36
ENDBRANCH  31  32
ENDBRANCH  30  31
ENDBRANCH  29  30
ENDBRANCH  12  29
TORSDOF 13
ENDMDL
MODEL 9
REMARK VINA RESULT:      -6.1      3.369      4.895
REMARK  13 active torsions:
REMARK  status: ('A' for Active; 'I' for Inactive)
REMARK    1  A    between atoms: C_2  and  N_3 
REMARK    2  A    between atoms: N_3  and  C_5 
REMARK    3  A    between atoms: N_3  and  C_34 
REMARK    4  A    between atoms: C_5  and  C_6 
REMARK    5  A    between atoms: C_6  and  O_7 
REMARK    6  A    between atoms: O_7  and  C_8 
REMARK    7  A    between atoms: N_15  and  N_16 
REMARK    8  A    between atoms: C_20  and  O_21 
REMARK    9  A    between atoms: O_21  and  C_22 
REMARK   10  A    between atoms: C_22  and  C_23 
REMARK   11  A    between atoms: C_23  and  N_24 
REMARK   12  A    between atoms: N_24  and  C_26 
REMARK   13  A    between atoms: N_24  and  C_28 
ROOT
HETATM    1  C   UNL     1      42.960 -15.942   5.056  1.00  0.00     0.087 A 
HETATM    2  C   UNL     1      43.164 -14.687   5.675  1.00  0.00     0.045 A 
HETATM    3 BR   UNL     1      44.526 -14.464   6.984  1.00  0.00    -0.048 Br
HETATM    4  C   UNL     1      42.391 -13.566   5.337  1.00  0.00     0.035 A 
HETATM    5  C   UNL     1      41.396 -13.719   4.385  1.00  0.00    -0.011 A 
HETATM    6  C   UNL     1      41.169 -14.980   3.798  1.00  0.00     0.009 A 
HETATM    7  C   UNL     1      40.036 -14.822   2.845  1.00  0.00     0.093 A 
HETATM    8  N   UNL     1      39.415 -15.652   2.066  1.00  0.00    -0.203 NA
HETATM    9  C   UNL     1      39.643 -13.395   2.902  1.00  0.00     0.009 A 
HETATM   10  C   UNL     1      40.470 -12.753   3.830  1.00  0.00    -0.011 A 
HETATM   11  C   UNL     1      38.644 -12.752   2.186  1.00  0.00     0.053 A 
HETATM   12  C   UNL     1      38.459 -11.388   2.419  1.00  0.00     0.087 A 
HETATM   13  C   UNL     1      39.304 -10.719   3.340  1.00  0.00     0.045 A 
HETATM   14 BR   UNL     1      39.099  -8.854   3.659  1.00  0.00    -0.048 Br
HETATM   15  C   UNL     1      40.308 -11.396   4.054  1.00  0.00     0.035 A 
HETATM   16  C   UNL     1      41.933 -16.091   4.118  1.00  0.00     0.053 A 
ENDROOT
BRANCH   1  17
HETATM   17  O   UNL     1      43.778 -16.975   5.446  1.00  0.00    -0.348 OA
BRANCH  17  18
HETATM   18  C   UNL     1      43.285 -18.297   5.194  1.00  0.00     0.203 C 
BRANCH  18  19
HETATM   19  C   UNL     1      44.343 -19.043   4.371  1.00  0.00     0.261 C 
BRANCH  19  20
HETATM   20  N   UNL     1      43.721 -19.814   3.208  1.00  0.00    -0.070 N 
HETATM   21  H   UNL     1      42.953 -20.354   3.643  1.00  0.00     0.279 HD
BRANCH  20  22
HETATM   22  C   UNL     1      44.670 -20.826   2.592  1.00  0.00     0.230 C 
HETATM   23  C   UNL     1      43.928 -21.776   1.669  1.00  0.00     0.034 C 
ENDBRANCH  20  22
BRANCH  20  24
HETATM   24  C   UNL     1      43.033 -18.960   2.159  1.00  0.00     0.230 C 
HETATM   25  C   UNL     1      43.968 -17.942   1.534  1.00  0.00     0.034 C 
ENDBRANCH  20  24
ENDBRANCH  19  20
ENDBRANCH  18  19
ENDBRANCH  17  18
ENDBRANCH   1  17
BRANCH   8  26
HETATM   26  N   UNL     1      39.811 -16.939   2.094  1.00  0.00    -0.226 NA
HETATM   27  H   UNL     1      40.002 -17.237   1.130  1.00  0.00     0.145 HD
HETATM   28  H   UNL     1      39.003 -17.523   2.337  1.00  0.00     0.145 HD
ENDBRANCH   8  26
BRANCH  12  29
HETATM   29  O   UNL     1      37.509 -10.631   1.774  1.00  0.00    -0.348 OA
BRANCH  29  30
HETATM   30  C   UNL     1      37.279 -10.939   0.395  1.00  0.00     0.203 C 
BRANCH  30  31
HETATM   31  C   UNL     1      38.422 -10.324  -0.421  1.00  0.00     0.261 C 
BRANCH  31  32
HETATM   32  N   UNL     1      39.105 -11.352  -1.327  1.00  0.00    -0.070 N 
HETATM   33  H   UNL     1      39.148 -10.879  -2.245  1.00  0.00     0.279 HD
BRANCH  32  34
HETATM   34  C   UNL     1      40.546 -11.661  -0.973  1.00  0.00     0.230 C 
HETATM   35  C   UNL     1      41.111 -10.719   0.073  1.00  0.00     0.034 C 
ENDBRANCH  32  34
BRANCH  32  36
HETATM   36  C   UNL     1      38.208 -12.562  -1.523  1.00  0.00     0.230 C 
HETATM   37  C   UNL     1      38.966 -13.865  -1.345  1.00  0.00     0.034 C 
ENDBRANCH  32  36
ENDBRANCH  31  32
ENDBRANCH  30  31
ENDBRANCH  29  30
ENDBRANCH  12  29
TORSDOF 13
ENDMDL
MODEL 10
REMARK VINA RESULT:      -6.1      3.134      4.746
REMARK  13 active torsions:
REMARK  status: ('A' for Active; 'I' for Inactive)
REMARK    1  A    between atoms: C_2  and  N_3 
REMARK    2  A    between atoms: N_3  and  C_5 
REMARK    3  A    between atoms: N_3  and  C_34 
REMARK    4  A    between atoms: C_5  and  C_6 
REMARK    5  A    between atoms: C_6  and  O_7 
REMARK    6  A    between atoms: O_7  and  C_8 
REMARK    7  A    between atoms: N_15  and  N_16 
REMARK    8  A    between atoms: C_20  and  O_21 
REMARK    9  A    between atoms: O_21  and  C_22 
REMARK   10  A    between atoms: C_22  and  C_23 
REMARK   11  A    between atoms: C_23  and  N_24 
REMARK   12  A    between atoms: N_24  and  C_26 
REMARK   13  A    between atoms: N_24  and  C_28 
ROOT
HETATM    1  C   UNL     1      42.802 -15.955   5.067  1.00  0.00     0.087 A 
HETATM    2  C   UNL     1      43.278 -14.640   5.281  1.00  0.00     0.045 A 
HETATM    3 BR   UNL     1      44.513 -14.274   6.681  1.00  0.00    -0.048 Br
HETATM    4  C   UNL     1      42.879 -13.572   4.464  1.00  0.00     0.035 A 
HETATM    5  C   UNL     1      41.980 -13.828   3.441  1.00  0.00    -0.011 A 
HETATM    6  C   UNL     1      41.477 -15.131   3.255  1.00  0.00     0.009 A 
HETATM    7  C   UNL     1      40.531 -15.076   2.106  1.00  0.00     0.093 A 
HETATM    8  N   UNL     1      39.788 -15.968   1.531  1.00  0.00    -0.203 NA
HETATM    9  C   UNL     1      40.540 -13.673   1.630  1.00  0.00     0.009 A 
HETATM   10  C   UNL     1      41.414 -12.944   2.443  1.00  0.00    -0.011 A 
HETATM   11  C   UNL     1      39.831 -13.122   0.573  1.00  0.00     0.053 A 
HETATM   12  C   UNL     1      40.004 -11.760   0.319  1.00  0.00     0.087 A 
HETATM   13  C   UNL     1      40.904 -11.013   1.121  1.00  0.00     0.045 A 
HETATM   14 BR   UNL     1      41.187  -9.162   0.783  1.00  0.00    -0.048 Br
HETATM   15  C   UNL     1      41.608 -11.597   2.188  1.00  0.00     0.035 A 
HETATM   16  C   UNL     1      41.872 -16.196   4.050  1.00  0.00     0.053 A 
ENDROOT
BRANCH   1  17
HETATM   17  O   UNL     1      43.263 -16.935   5.913  1.00  0.00    -0.348 OA
BRANCH  17  18
HETATM   18  C   UNL     1      43.154 -18.281   5.434  1.00  0.00     0.203 C 
BRANCH  18  19
HETATM   19  C   UNL     1      44.559 -18.754   5.039  1.00  0.00     0.261 C 
BRANCH  19  20
HETATM   20  N   UNL     1      44.544 -19.571   3.748  1.00  0.00    -0.070 N 
HETATM   21  H   UNL     1      45.405 -19.282   3.255  1.00  0.00     0.279 HD
BRANCH  20  22
HETATM   22  C   UNL     1      43.381 -19.220   2.837  1.00  0.00     0.230 C 
HETATM   23  C   UNL     1      43.813 -18.246   1.756  1.00  0.00     0.034 C 
ENDBRANCH  20  22
BRANCH  20  24
HETATM   24  C   UNL     1      44.699 -21.070   3.928  1.00  0.00     0.230 C 
HETATM   25  C   UNL     1      44.393 -21.842   2.658  1.00  0.00     0.034 C 
ENDBRANCH  20  24
ENDBRANCH  19  20
ENDBRANCH  18  19
ENDBRANCH  17  18
ENDBRANCH   1  17
BRANCH   8  26
HETATM   26  N   UNL     1      39.812 -17.214   2.042  1.00  0.00    -0.226 NA
HETATM   27  H   UNL     1      40.278 -17.830   1.365  1.00  0.00     0.145 HD
HETATM   28  H   UNL     1      38.855 -17.587   2.037  1.00  0.00     0.145 HD
ENDBRANCH   8  26
BRANCH  12  29
HETATM   29  O   UNL     1      39.367 -11.092  -0.699  1.00  0.00    -0.348 OA
BRANCH  29  30
HETATM   30  C   UNL     1      39.282 -11.777  -1.954  1.00  0.00     0.203 C 
BRANCH  30  31
HETATM   31  C   UNL     1      40.502 -11.377  -2.791  1.00  0.00     0.261 C 
BRANCH  31  32
HETATM   32  N   UNL     1      41.262 -12.594  -3.326  1.00  0.00    -0.070 N 
HETATM   33  H   UNL     1      41.464 -12.345  -4.308  1.00  0.00     0.279 HD
BRANCH  32  34
HETATM   34  C   UNL     1      42.618 -12.832  -2.692  1.00  0.00     0.230 C 
HETATM   35  C   UNL     1      43.026 -11.723  -1.740  1.00  0.00     0.034 C 
ENDBRANCH  32  34
BRANCH  32  36
HETATM   36  C   UNL     1      40.348 -13.806  -3.381  1.00  0.00     0.230 C 
HETATM   37  C   UNL     1      41.069 -15.080  -2.983  1.00  0.00     0.034 C 
ENDBRANCH  32  36
ENDBRANCH  31  32
ENDBRANCH  30  31
ENDBRANCH  29  30
ENDBRANCH  12  29
TORSDOF 13
ENDMDL
