MODEL 1
REMARK VINA RESULT:     -10.1      0.000      0.000
REMARK  4 active torsions:
REMARK  status: ('A' for Active; 'I' for Inactive)
REMARK    1  A    between atoms: C_5  and  N_6 
REMARK       I    between atoms: N_6  and  C_7 
REMARK    2  A    between atoms: C_7  and  C_8 
REMARK    3  A    between atoms: C_12  and  C_13 
REMARK    4  A    between atoms: N_24  and  C_25 
ROOT
HETATM    1  N   UNL     1      41.893 -14.693   0.869  1.00  0.00    -0.348 N 
HETATM    2  C   UNL     1      42.757 -14.746   1.932  1.00  0.00     0.257 C 
HETATM    3  O   UNL     1      43.212 -13.731   2.459  1.00  0.00    -0.267 OA
HETATM    4  H   UNL     1      41.507 -15.561   0.498  1.00  0.00     0.163 HD
ENDROOT
BRANCH   1   5
HETATM    5  C   UNL     1      41.447 -13.427   0.331  1.00  0.00     0.122 C 
HETATM    6  C   UNL     1      40.527 -12.648   1.300  1.00  0.00     0.039 C 
HETATM    7  C   UNL     1      39.027 -13.071   1.275  1.00  0.00    -0.040 C 
HETATM    8  C   UNL     1      38.236 -12.098   2.175  1.00  0.00     0.015 C 
HETATM    9  C   UNL     1      38.841 -14.491   1.850  1.00  0.00     0.015 C 
HETATM   10  C   UNL     1      38.432 -13.009  -0.167  1.00  0.00     0.069 C 
HETATM   11  C   UNL     1      39.405 -13.487  -1.197  1.00  0.00     0.047 A 
HETATM   12  C   UNL     1      40.761 -13.657  -0.968  1.00  0.00     0.008 A 
HETATM   13  N   UNL     1      39.209 -13.645  -2.568  1.00  0.00    -0.238 N 
HETATM   14  C   UNL     1      41.303 -13.973  -2.216  1.00  0.00     0.150 A 
HETATM   15  N   UNL     1      40.391 -13.952  -3.182  1.00  0.00    -0.179 NA
BRANCH  13  16
HETATM   16  C   UNL     1      38.043 -13.481  -3.381  1.00  0.00     0.058 A 
HETATM   17  C   UNL     1      37.635 -12.174  -3.711  1.00  0.00     0.031 A 
HETATM   18  C   UNL     1      36.485 -11.952  -4.473  1.00  0.00     0.002 A 
HETATM   19  C   UNL     1      35.741 -13.031  -4.937  1.00  0.00     0.000 A 
HETATM   20  C   UNL     1      36.148 -14.329  -4.643  1.00  0.00     0.002 A 
HETATM   21  C   UNL     1      37.293 -14.554  -3.868  1.00  0.00     0.031 A 
ENDBRANCH  13  16
ENDBRANCH   1   5
BRANCH   2  22
HETATM   22  C   UNL     1      43.135 -16.103   2.416  1.00  0.00     0.100 A 
HETATM   23  C   UNL     1      43.090 -16.532   3.848  1.00  0.00     0.261 A 
HETATM   24  O   UNL     1      42.740 -15.770   4.746  1.00  0.00    -0.267 OA
HETATM   25  N   UNL     1      43.463 -17.831   4.112  1.00  0.00    -0.322 N 
HETATM   26  C   UNL     1      43.859 -18.730   3.153  1.00  0.00     0.045 A 
HETATM   27  H   UNL     1      43.422 -18.124   5.081  1.00  0.00     0.169 HD
HETATM   28  C   UNL     1      43.910 -18.352   1.867  1.00  0.00     0.031 A 
HETATM   29  C   UNL     1      43.540 -17.004   1.499  1.00  0.00     0.025 A 
BRANCH  26  30
HETATM   30  C   UNL     1      44.222 -20.089   3.561  1.00  0.00    -0.009 A 
HETATM   31  C   UNL     1      44.228 -21.130   2.624  1.00  0.00     0.013 A 
HETATM   32  C   UNL     1      44.539 -22.432   3.021  1.00  0.00     0.001 A 
HETATM   33  C   UNL     1      44.847 -22.701   4.354  1.00  0.00     0.000 A 
HETATM   34  C   UNL     1      44.846 -21.670   5.292  1.00  0.00     0.001 A 
HETATM   35  C   UNL     1      44.533 -20.367   4.897  1.00  0.00     0.013 A 
ENDBRANCH  26  30
ENDBRANCH   2  22
TORSDOF 4
ENDMDL
MODEL 2
REMARK VINA RESULT:      -9.5      2.836      3.857
REMARK  4 active torsions:
REMARK  status: ('A' for Active; 'I' for Inactive)
REMARK    1  A    between atoms: C_5  and  N_6 
REMARK       I    between atoms: N_6  and  C_7 
REMARK    2  A    between atoms: C_7  and  C_8 
REMARK    3  A    between atoms: C_12  and  C_13 
REMARK    4  A    between atoms: N_24  and  C_25 
ROOT
HETATM    1  N   UNL     1      40.115 -14.364   0.281  1.00  0.00    -0.348 N 
HETATM    2  C   UNL     1      39.661 -15.124   1.327  1.00  0.00     0.257 C 
HETATM    3  O   UNL     1      38.521 -15.013   1.773  1.00  0.00    -0.267 OA
HETATM    4  H   UNL     1      41.054 -14.527  -0.083  1.00  0.00     0.163 HD
ENDROOT
BRANCH   1   5
HETATM    5  C   UNL     1      39.253 -13.406  -0.376  1.00  0.00     0.122 C 
HETATM    6  C   UNL     1      38.363 -14.043  -1.469  1.00  0.00     0.039 C 
HETATM    7  C   UNL     1      39.046 -14.226  -2.858  1.00  0.00    -0.040 C 
HETATM    8  C   UNL     1      37.980 -14.721  -3.858  1.00  0.00     0.015 C 
HETATM    9  C   UNL     1      40.156 -15.295  -2.794  1.00  0.00     0.015 C 
HETATM   10  C   UNL     1      39.641 -12.884  -3.390  1.00  0.00     0.069 C 
HETATM   11  C   UNL     1      40.271 -12.077  -2.301  1.00  0.00     0.047 A 
HETATM   12  C   UNL     1      40.078 -12.310  -0.948  1.00  0.00     0.008 A 
HETATM   13  N   UNL     1      40.963 -10.871  -2.403  1.00  0.00    -0.238 N 
HETATM   14  C   UNL     1      40.725 -11.254  -0.302  1.00  0.00     0.150 A 
HETATM   15  N   UNL     1      41.242 -10.380  -1.158  1.00  0.00    -0.179 NA
BRANCH  13  16
HETATM   16  C   UNL     1      41.342 -10.094  -3.542  1.00  0.00     0.058 A 
HETATM   17  C   UNL     1      40.679  -8.873  -3.771  1.00  0.00     0.031 A 
HETATM   18  C   UNL     1      40.984  -8.088  -4.886  1.00  0.00     0.002 A 
HETATM   19  C   UNL     1      41.972  -8.499  -5.775  1.00  0.00     0.000 A 
HETATM   20  C   UNL     1      42.656  -9.689  -5.546  1.00  0.00     0.002 A 
HETATM   21  C   UNL     1      42.343 -10.485  -4.436  1.00  0.00     0.031 A 
ENDBRANCH  13  16
ENDBRANCH   1   5
BRANCH   2  22
HETATM   22  C   UNL     1      40.630 -16.092   1.916  1.00  0.00     0.100 A 
HETATM   23  C   UNL     1      41.054 -16.096   3.350  1.00  0.00     0.261 A 
HETATM   24  O   UNL     1      40.630 -15.273   4.157  1.00  0.00    -0.267 OA
HETATM   25  N   UNL     1      41.949 -17.074   3.723  1.00  0.00    -0.322 N 
HETATM   26  C   UNL     1      42.454 -18.023   2.869  1.00  0.00     0.045 A 
HETATM   27  H   UNL     1      42.228 -17.082   4.696  1.00  0.00     0.169 HD
HETATM   28  C   UNL     1      42.085 -18.023   1.580  1.00  0.00     0.031 A 
HETATM   29  C   UNL     1      41.152 -17.029   1.100  1.00  0.00     0.025 A 
BRANCH  26  30
HETATM   30  C   UNL     1      43.394 -19.019   3.391  1.00  0.00    -0.009 A 
HETATM   31  C   UNL     1      43.821 -20.079   2.582  1.00  0.00     0.013 A 
HETATM   32  C   UNL     1      44.688 -21.047   3.091  1.00  0.00     0.001 A 
HETATM   33  C   UNL     1      45.134 -20.961   4.410  1.00  0.00     0.000 A 
HETATM   34  C   UNL     1      44.716 -19.907   5.220  1.00  0.00     0.001 A 
HETATM   35  C   UNL     1      43.847 -18.939   4.713  1.00  0.00     0.013 A 
ENDBRANCH  26  30
ENDBRANCH   2  22
TORSDOF 4
ENDMDL
MODEL 3
REMARK VINA RESULT:      -9.2      3.041      3.855
REMARK  4 active torsions:
REMARK  status: ('A' for Active; 'I' for Inactive)
REMARK    1  A    between atoms: C_5  and  N_6 
REMARK       I    between atoms: N_6  and  C_7 
REMARK    2  A    between atoms: C_7  and  C_8 
REMARK    3  A    between atoms: C_12  and  C_13 
REMARK    4  A    between atoms: N_24  and  C_25 
ROOT
HETATM    1  N   UNL     1      41.301 -13.808   0.872  1.00  0.00    -0.348 N 
HETATM    2  C   UNL     1      41.169 -14.429   2.087  1.00  0.00     0.257 C 
HETATM    3  O   UNL     1      40.600 -13.894   3.038  1.00  0.00    -0.267 OA
HETATM    4  H   UNL     1      41.740 -14.312   0.101  1.00  0.00     0.163 HD
ENDROOT
BRANCH   1   5
HETATM    5  C   UNL     1      40.744 -12.494   0.639  1.00  0.00     0.122 C 
HETATM    6  C   UNL     1      39.277 -12.537   0.150  1.00  0.00     0.039 C 
HETATM    7  C   UNL     1      39.093 -12.774  -1.380  1.00  0.00    -0.040 C 
HETATM    8  C   UNL     1      37.594 -12.631  -1.713  1.00  0.00     0.015 C 
HETATM    9  C   UNL     1      39.525 -14.201  -1.776  1.00  0.00     0.015 C 
HETATM   10  C   UNL     1      39.892 -11.732  -2.226  1.00  0.00     0.069 C 
HETATM   11  C   UNL     1      41.228 -11.429  -1.628  1.00  0.00     0.047 A 
HETATM   12  C   UNL     1      41.596 -11.762  -0.334  1.00  0.00     0.008 A 
HETATM   13  N   UNL     1      42.240 -10.613  -2.133  1.00  0.00    -0.238 N 
HETATM   14  C   UNL     1      42.850 -11.175  -0.152  1.00  0.00     0.150 A 
HETATM   15  N   UNL     1      43.238 -10.473  -1.210  1.00  0.00    -0.179 NA
BRANCH  13  16
HETATM   16  C   UNL     1      42.349  -9.899  -3.368  1.00  0.00     0.058 A 
HETATM   17  C   UNL     1      42.406  -8.493  -3.325  1.00  0.00     0.031 A 
HETATM   18  C   UNL     1      42.479  -7.741  -4.501  1.00  0.00     0.002 A 
HETATM   19  C   UNL     1      42.520  -8.383  -5.734  1.00  0.00     0.000 A 
HETATM   20  C   UNL     1      42.494  -9.774  -5.790  1.00  0.00     0.002 A 
HETATM   21  C   UNL     1      42.407 -10.529  -4.614  1.00  0.00     0.031 A 
ENDBRANCH  13  16
ENDBRANCH   1   5
BRANCH   2  22
HETATM   22  C   UNL     1      41.766 -15.789   2.209  1.00  0.00     0.100 A 
HETATM   23  C   UNL     1      41.822 -16.788   1.098  1.00  0.00     0.261 A 
HETATM   24  O   UNL     1      41.358 -16.553  -0.015  1.00  0.00    -0.267 OA
HETATM   25  N   UNL     1      42.424 -17.993   1.387  1.00  0.00    -0.322 N 
HETATM   26  C   UNL     1      42.964 -18.313   2.607  1.00  0.00     0.045 A 
HETATM   27  H   UNL     1      42.471 -18.666   0.631  1.00  0.00     0.169 HD
HETATM   28  C   UNL     1      42.911 -17.425   3.611  1.00  0.00     0.031 A 
HETATM   29  C   UNL     1      42.294 -16.136   3.399  1.00  0.00     0.025 A 
BRANCH  26  30
HETATM   30  C   UNL     1      43.587 -19.627   2.786  1.00  0.00    -0.009 A 
HETATM   31  C   UNL     1      43.449 -20.613   1.802  1.00  0.00     0.013 A 
HETATM   32  C   UNL     1      44.013 -21.877   1.989  1.00  0.00     0.001 A 
HETATM   33  C   UNL     1      44.719 -22.161   3.158  1.00  0.00     0.000 A 
HETATM   34  C   UNL     1      44.863 -21.183   4.140  1.00  0.00     0.001 A 
HETATM   35  C   UNL     1      44.298 -19.919   3.956  1.00  0.00     0.013 A 
ENDBRANCH  26  30
ENDBRANCH   2  22
TORSDOF 4
ENDMDL
MODEL 4
REMARK VINA RESULT:      -9.1      3.106      9.770
REMARK  4 active torsions:
REMARK  status: ('A' for Active; 'I' for Inactive)
REMARK    1  A    between atoms: C_5  and  N_6 
REMARK       I    between atoms: N_6  and  C_7 
REMARK    2  A    between atoms: C_7  and  C_8 
REMARK    3  A    between atoms: C_12  and  C_13 
REMARK    4  A    between atoms: N_24  and  C_25 
ROOT
HETATM    1  N   UNL     1      41.175 -14.042   1.509  1.00  0.00    -0.348 N 
HETATM    2  C   UNL     1      40.260 -13.671   0.558  1.00  0.00     0.257 C 
HETATM    3  O   UNL     1      39.121 -14.134   0.528  1.00  0.00    -0.267 OA
HETATM    4  H   UNL     1      42.092 -13.593   1.519  1.00  0.00     0.163 HD
ENDROOT
BRANCH   1   5
HETATM    5  C   UNL     1      40.830 -14.982   2.552  1.00  0.00     0.122 C 
HETATM    6  C   UNL     1      41.300 -14.529   3.954  1.00  0.00     0.039 C 
HETATM    7  C   UNL     1      42.786 -14.854   4.294  1.00  0.00    -0.040 C 
HETATM    8  C   UNL     1      43.036 -14.479   5.770  1.00  0.00     0.015 C 
HETATM    9  C   UNL     1      43.750 -14.013   3.431  1.00  0.00     0.015 C 
HETATM   10  C   UNL     1      43.103 -16.371   4.106  1.00  0.00     0.069 C 
HETATM   11  C   UNL     1      42.425 -16.942   2.902  1.00  0.00     0.047 A 
HETATM   12  C   UNL     1      41.394 -16.316   2.220  1.00  0.00     0.008 A 
HETATM   13  N   UNL     1      42.529 -18.229   2.376  1.00  0.00    -0.238 N 
HETATM   14  C   UNL     1      40.971 -17.248   1.269  1.00  0.00     0.150 A 
HETATM   15  N   UNL     1      41.628 -18.399   1.363  1.00  0.00    -0.179 NA
BRANCH  13  16
HETATM   16  C   UNL     1      43.341 -19.342   2.759  1.00  0.00     0.058 A 
HETATM   17  C   UNL     1      43.391 -20.461   1.904  1.00  0.00     0.031 A 
HETATM   18  C   UNL     1      44.141 -21.590   2.242  1.00  0.00     0.002 A 
HETATM   19  C   UNL     1      44.871 -21.610   3.425  1.00  0.00     0.000 A 
HETATM   20  C   UNL     1      44.854 -20.501   4.266  1.00  0.00     0.002 A 
HETATM   21  C   UNL     1      44.093 -19.373   3.937  1.00  0.00     0.031 A 
ENDBRANCH  13  16
ENDBRANCH   1   5
BRANCH   2  22
HETATM   22  C   UNL     1      40.718 -12.682  -0.458  1.00  0.00     0.100 A 
HETATM   23  C   UNL     1      41.920 -11.806  -0.301  1.00  0.00     0.261 A 
HETATM   24  O   UNL     1      42.623 -11.837   0.706  1.00  0.00    -0.267 OA
HETATM   25  N   UNL     1      42.204 -10.958  -1.349  1.00  0.00    -0.322 N 
HETATM   26  C   UNL     1      41.461 -10.882  -2.501  1.00  0.00     0.045 A 
HETATM   27  H   UNL     1      43.024 -10.373  -1.247  1.00  0.00     0.169 HD
HETATM   28  C   UNL     1      40.377 -11.658  -2.647  1.00  0.00     0.031 A 
HETATM   29  C   UNL     1      40.003 -12.575  -1.595  1.00  0.00     0.025 A 
BRANCH  26  30
HETATM   30  C   UNL     1      41.872  -9.945  -3.550  1.00  0.00    -0.009 A 
HETATM   31  C   UNL     1      42.034 -10.387  -4.868  1.00  0.00     0.013 A 
HETATM   32  C   UNL     1      42.461  -9.501  -5.860  1.00  0.00     0.001 A 
HETATM   33  C   UNL     1      42.726  -8.170  -5.540  1.00  0.00     0.000 A 
HETATM   34  C   UNL     1      42.564  -7.722  -4.230  1.00  0.00     0.001 A 
HETATM   35  C   UNL     1      42.140  -8.607  -3.237  1.00  0.00     0.013 A 
ENDBRANCH  26  30
ENDBRANCH   2  22
TORSDOF 4
ENDMDL
MODEL 5
REMARK VINA RESULT:      -8.7      3.022      4.469
REMARK  4 active torsions:
REMARK  status: ('A' for Active; 'I' for Inactive)
REMARK    1  A    between atoms: C_5  and  N_6 
REMARK       I    between atoms: N_6  and  C_7 
REMARK    2  A    between atoms: C_7  and  C_8 
REMARK    3  A    between atoms: C_12  and  C_13 
REMARK    4  A    between atoms: N_24  and  C_25 
ROOT
HETATM    1  N   UNL     1      39.800 -14.432   0.124  1.00  0.00    -0.348 N 
HETATM    2  C   UNL     1      39.282 -14.925   1.293  1.00  0.00     0.257 C 
HETATM    3  O   UNL     1      38.085 -14.843   1.566  1.00  0.00    -0.267 OA
HETATM    4  H   UNL     1      40.791 -14.567  -0.077  1.00  0.00     0.163 HD
ENDROOT
BRANCH   1   5
HETATM    5  C   UNL     1      38.950 -13.813  -0.868  1.00  0.00     0.122 C 
HETATM    6  C   UNL     1      38.505 -14.792  -1.980  1.00  0.00     0.039 C 
HETATM    7  C   UNL     1      39.531 -14.997  -3.135  1.00  0.00    -0.040 C 
HETATM    8  C   UNL     1      38.868 -15.870  -4.220  1.00  0.00     0.015 C 
HETATM    9  C   UNL     1      40.785 -15.745  -2.638  1.00  0.00     0.015 C 
HETATM   10  C   UNL     1      39.953 -13.638  -3.780  1.00  0.00     0.069 C 
HETATM   11  C   UNL     1      40.117 -12.559  -2.758  1.00  0.00     0.047 A 
HETATM   12  C   UNL     1      39.649 -12.641  -1.456  1.00  0.00     0.008 A 
HETATM   13  N   UNL     1      40.553 -11.248  -2.944  1.00  0.00    -0.238 N 
HETATM   14  C   UNL     1      39.889 -11.380  -0.905  1.00  0.00     0.150 A 
HETATM   15  N   UNL     1      40.411 -10.535  -1.787  1.00  0.00    -0.179 NA
BRANCH  13  16
HETATM   16  C   UNL     1      41.034 -10.568  -4.107  1.00  0.00     0.058 A 
HETATM   17  C   UNL     1      42.354 -10.078  -4.099  1.00  0.00     0.031 A 
HETATM   18  C   UNL     1      42.867  -9.378  -5.194  1.00  0.00     0.002 A 
HETATM   19  C   UNL     1      42.079  -9.177  -6.321  1.00  0.00     0.000 A 
HETATM   20  C   UNL     1      40.781  -9.681  -6.355  1.00  0.00     0.002 A 
HETATM   21  C   UNL     1      40.260 -10.372  -5.254  1.00  0.00     0.031 A 
ENDBRANCH  13  16
ENDBRANCH   1   5
BRANCH   2  22
HETATM   22  C   UNL     1      40.247 -15.559   2.235  1.00  0.00     0.100 A 
HETATM   23  C   UNL     1      41.074 -16.762   1.913  1.00  0.00     0.261 A 
HETATM   24  O   UNL     1      41.003 -17.330   0.826  1.00  0.00    -0.267 OA
HETATM   25  N   UNL     1      41.926 -17.205   2.901  1.00  0.00    -0.322 N 
HETATM   26  C   UNL     1      42.054 -16.610   4.132  1.00  0.00     0.045 A 
HETATM   27  H   UNL     1      42.493 -18.014   2.679  1.00  0.00     0.169 HD
HETATM   28  C   UNL     1      41.310 -15.535   4.432  1.00  0.00     0.031 A 
HETATM   29  C   UNL     1      40.386 -15.005   3.455  1.00  0.00     0.025 A 
BRANCH  26  30
HETATM   30  C   UNL     1      43.004 -17.171   5.096  1.00  0.00    -0.009 A 
HETATM   31  C   UNL     1      43.990 -18.070   4.674  1.00  0.00     0.013 A 
HETATM   32  C   UNL     1      44.872 -18.632   5.598  1.00  0.00     0.001 A 
HETATM   33  C   UNL     1      44.775 -18.297   6.949  1.00  0.00     0.000 A 
HETATM   34  C   UNL     1      43.798 -17.400   7.376  1.00  0.00     0.001 A 
HETATM   35  C   UNL     1      42.913 -16.839   6.453  1.00  0.00     0.013 A 
ENDBRANCH  26  30
ENDBRANCH   2  22
TORSDOF 4
ENDMDL
MODEL 6
REMARK VINA RESULT:      -8.6      7.463     10.853
REMARK  4 active torsions:
REMARK  status: ('A' for Active; 'I' for Inactive)
REMARK    1  A    between atoms: C_5  and  N_6 
REMARK       I    between atoms: N_6  and  C_7 
REMARK    2  A    between atoms: C_7  and  C_8 
REMARK    3  A    between atoms: C_12  and  C_13 
REMARK    4  A    between atoms: N_24  and  C_25 
ROOT
HETATM    1  N   UNL     1      40.065 -11.949   7.416  1.00  0.00    -0.348 N 
HETATM    2  C   UNL     1      39.606 -12.390   6.202  1.00  0.00     0.257 C 
HETATM    3  O   UNL     1      38.554 -11.983   5.712  1.00  0.00    -0.267 OA
HETATM    4  H   UNL     1      40.967 -12.281   7.758  1.00  0.00     0.163 HD
ENDROOT
BRANCH   1   5
HETATM    5  C   UNL     1      39.341 -10.950   8.170  1.00  0.00     0.122 C 
HETATM    6  C   UNL     1      39.407  -9.543   7.531  1.00  0.00     0.039 C 
HETATM    7  C   UNL     1      40.688  -8.721   7.866  1.00  0.00    -0.040 C 
HETATM    8  C   UNL     1      40.517  -7.302   7.283  1.00  0.00     0.015 C 
HETATM    9  C   UNL     1      41.937  -9.346   7.210  1.00  0.00     0.015 C 
HETATM   10  C   UNL     1      40.911  -8.601   9.407  1.00  0.00     0.069 C 
HETATM   11  C   UNL     1      40.577  -9.870  10.124  1.00  0.00     0.047 A 
HETATM   12  C   UNL     1      39.858 -10.914   9.564  1.00  0.00     0.008 A 
HETATM   13  N   UNL     1      40.719 -10.165  11.479  1.00  0.00    -0.238 N 
HETATM   14  C   UNL     1      39.658 -11.818  10.609  1.00  0.00     0.150 A 
HETATM   15  N   UNL     1      40.152 -11.376  11.761  1.00  0.00    -0.179 NA
BRANCH  13  16
HETATM   16  C   UNL     1      41.278  -9.407  12.556  1.00  0.00     0.058 A 
HETATM   17  C   UNL     1      42.598  -9.687  12.958  1.00  0.00     0.031 A 
HETATM   18  C   UNL     1      43.184  -9.002  14.025  1.00  0.00     0.002 A 
HETATM   19  C   UNL     1      42.469  -8.013  14.692  1.00  0.00     0.000 A 
HETATM   20  C   UNL     1      41.173  -7.706  14.288  1.00  0.00     0.002 A 
HETATM   21  C   UNL     1      40.578  -8.400  13.227  1.00  0.00     0.031 A 
ENDBRANCH  13  16
ENDBRANCH   1   5
BRANCH   2  22
HETATM   22  C   UNL     1      40.442 -13.407   5.503  1.00  0.00     0.100 A 
HETATM   23  C   UNL     1      41.926 -13.522   5.645  1.00  0.00     0.261 A 
HETATM   24  O   UNL     1      42.573 -12.758   6.357  1.00  0.00    -0.267 OA
HETATM   25  N   UNL     1      42.535 -14.532   4.934  1.00  0.00    -0.322 N 
HETATM   26  C   UNL     1      41.865 -15.418   4.127  1.00  0.00     0.045 A 
HETATM   27  H   UNL     1      43.539 -14.615   5.039  1.00  0.00     0.169 HD
HETATM   28  C   UNL     1      40.535 -15.318   3.988  1.00  0.00     0.031 A 
HETATM   29  C   UNL     1      39.815 -14.284   4.695  1.00  0.00     0.025 A 
BRANCH  26  30
HETATM   30  C   UNL     1      42.627 -16.458   3.430  1.00  0.00    -0.009 A 
HETATM   31  C   UNL     1      43.317 -16.156   2.250  1.00  0.00     0.013 A 
HETATM   32  C   UNL     1      44.013 -17.155   1.566  1.00  0.00     0.001 A 
HETATM   33  C   UNL     1      44.025 -18.460   2.060  1.00  0.00     0.000 A 
HETATM   34  C   UNL     1      43.343 -18.767   3.236  1.00  0.00     0.001 A 
HETATM   35  C   UNL     1      42.645 -17.770   3.919  1.00  0.00     0.013 A 
ENDBRANCH  26  30
ENDBRANCH   2  22
TORSDOF 4
ENDMDL
MODEL 7
REMARK VINA RESULT:      -7.9      2.216      2.762
REMARK  4 active torsions:
REMARK  status: ('A' for Active; 'I' for Inactive)
REMARK    1  A    between atoms: C_5  and  N_6 
REMARK       I    between atoms: N_6  and  C_7 
REMARK    2  A    between atoms: C_7  and  C_8 
REMARK    3  A    between atoms: C_12  and  C_13 
REMARK    4  A    between atoms: N_24  and  C_25 
ROOT
HETATM    1  N   UNL     1      41.423 -13.498   2.097  1.00  0.00    -0.348 N 
HETATM    2  C   UNL     1      41.715 -13.789   3.405  1.00  0.00     0.257 C 
HETATM    3  O   UNL     1      41.564 -12.968   4.308  1.00  0.00    -0.267 OA
HETATM    4  H   UNL     1      41.521 -14.229   1.391  1.00  0.00     0.163 HD
ENDROOT
BRANCH   1   5
HETATM    5  C   UNL     1      40.889 -12.209   1.719  1.00  0.00     0.122 C 
HETATM    6  C   UNL     1      39.345 -12.149   1.794  1.00  0.00     0.039 C 
HETATM    7  C   UNL     1      38.597 -12.710   0.548  1.00  0.00    -0.040 C 
HETATM    8  C   UNL     1      37.089 -12.430   0.723  1.00  0.00     0.015 C 
HETATM    9  C   UNL     1      38.776 -14.238   0.434  1.00  0.00     0.015 C 
HETATM   10  C   UNL     1      39.079 -12.028  -0.772  1.00  0.00     0.069 C 
HETATM   11  C   UNL     1      40.555 -11.793  -0.776  1.00  0.00     0.047 A 
HETATM   12  C   UNL     1      41.358 -11.862   0.352  1.00  0.00     0.008 A 
HETATM   13  N   UNL     1      41.349 -11.279  -1.800  1.00  0.00    -0.238 N 
HETATM   14  C   UNL     1      42.619 -11.441  -0.075  1.00  0.00     0.150 A 
HETATM   15  N   UNL     1      42.624 -11.075  -1.352  1.00  0.00    -0.179 NA
BRANCH  13  16
HETATM   16  C   UNL     1      41.031 -10.901  -3.143  1.00  0.00     0.058 A 
HETATM   17  C   UNL     1      39.674 -10.781  -3.501  1.00  0.00     0.031 A 
HETATM   18  C   UNL     1      39.303 -10.448  -4.806  1.00  0.00     0.002 A 
HETATM   19  C   UNL     1      40.281 -10.206  -5.766  1.00  0.00     0.000 A 
HETATM   20  C   UNL     1      41.626 -10.292  -5.419  1.00  0.00     0.002 A 
HETATM   21  C   UNL     1      42.001 -10.640  -4.114  1.00  0.00     0.031 A 
ENDBRANCH  13  16
ENDBRANCH   1   5
BRANCH   2  22
HETATM   22  C   UNL     1      42.243 -15.154   3.682  1.00  0.00     0.100 A 
HETATM   23  C   UNL     1      41.940 -15.942   4.916  1.00  0.00     0.261 A 
HETATM   24  O   UNL     1      41.226 -15.500   5.813  1.00  0.00    -0.267 OA
HETATM   25  N   UNL     1      42.505 -17.196   4.999  1.00  0.00    -0.322 N 
HETATM   26  C   UNL     1      43.306 -17.746   4.029  1.00  0.00     0.045 A 
HETATM   27  H   UNL     1      42.291 -17.732   5.831  1.00  0.00     0.169 HD
HETATM   28  C   UNL     1      43.589 -17.044   2.923  1.00  0.00     0.031 A 
HETATM   29  C   UNL     1      43.042 -15.716   2.754  1.00  0.00     0.025 A 
BRANCH  26  30
HETATM   30  C   UNL     1      43.839 -19.096   4.231  1.00  0.00    -0.009 A 
HETATM   31  C   UNL     1      44.149 -19.904   3.131  1.00  0.00     0.013 A 
HETATM   32  C   UNL     1      44.623 -21.203   3.323  1.00  0.00     0.001 A 
HETATM   33  C   UNL     1      44.790 -21.701   4.616  1.00  0.00     0.000 A 
HETATM   34  C   UNL     1      44.487 -20.901   5.716  1.00  0.00     0.001 A 
HETATM   35  C   UNL     1      44.011 -19.602   5.525  1.00  0.00     0.013 A 
ENDBRANCH  26  30
ENDBRANCH   2  22
TORSDOF 4
ENDMDL
MODEL 8
REMARK VINA RESULT:      -7.9      4.189     10.384
REMARK  4 active torsions:
REMARK  status: ('A' for Active; 'I' for Inactive)
REMARK    1  A    between atoms: C_5  and  N_6 
REMARK       I    between atoms: N_6  and  C_7 
REMARK    2  A    between atoms: C_7  and  C_8 
REMARK    3  A    between atoms: C_12  and  C_13 
REMARK    4  A    between atoms: N_24  and  C_25 
ROOT
HETATM    1  N   UNL     1      38.852 -11.546   0.738  1.00  0.00    -0.348 N 
HETATM    2  C   UNL     1      38.422 -10.259   0.933  1.00  0.00     0.257 C 
HETATM    3  O   UNL     1      39.155  -9.288   0.753  1.00  0.00    -0.267 OA
HETATM    4  H   UNL     1      38.192 -12.315   0.855  1.00  0.00     0.163 HD
ENDROOT
BRANCH   1   5
HETATM    5  C   UNL     1      40.194 -11.824   0.277  1.00  0.00     0.122 C 
HETATM    6  C   UNL     1      40.260 -12.145  -1.234  1.00  0.00     0.039 C 
HETATM    7  C   UNL     1      39.935 -13.621  -1.614  1.00  0.00    -0.040 C 
HETATM    8  C   UNL     1      40.199 -13.801  -3.124  1.00  0.00     0.015 C 
HETATM    9  C   UNL     1      38.447 -13.945  -1.360  1.00  0.00     0.015 C 
HETATM   10  C   UNL     1      40.831 -14.631  -0.830  1.00  0.00     0.069 C 
HETATM   11  C   UNL     1      41.044 -14.209   0.589  1.00  0.00     0.047 A 
HETATM   12  C   UNL     1      40.769 -12.940   1.073  1.00  0.00     0.008 A 
HETATM   13  N   UNL     1      41.719 -14.886   1.604  1.00  0.00    -0.238 N 
HETATM   14  C   UNL     1      41.242 -12.943   2.387  1.00  0.00     0.150 A 
HETATM   15  N   UNL     1      41.826 -14.092   2.711  1.00  0.00    -0.179 NA
BRANCH  13  16
HETATM   16  C   UNL     1      42.329 -16.179   1.632  1.00  0.00     0.058 A 
HETATM   17  C   UNL     1      41.496 -17.312   1.699  1.00  0.00     0.031 A 
HETATM   18  C   UNL     1      42.037 -18.599   1.763  1.00  0.00     0.002 A 
HETATM   19  C   UNL     1      43.416 -18.774   1.737  1.00  0.00     0.000 A 
HETATM   20  C   UNL     1      44.252 -17.665   1.643  1.00  0.00     0.002 A 
HETATM   21  C   UNL     1      43.713 -16.373   1.592  1.00  0.00     0.031 A 
ENDBRANCH  13  16
ENDBRANCH   1   5
BRANCH   2  22
HETATM   22  C   UNL     1      37.014 -10.090   1.392  1.00  0.00     0.100 A 
HETATM   23  C   UNL     1      35.883 -10.982   0.991  1.00  0.00     0.261 A 
HETATM   24  O   UNL     1      36.040 -11.931   0.228  1.00  0.00    -0.267 OA
HETATM   25  N   UNL     1      34.648 -10.683   1.523  1.00  0.00    -0.322 N 
HETATM   26  C   UNL     1      34.410  -9.641   2.383  1.00  0.00     0.045 A 
HETATM   27  H   UNL     1      33.884 -11.294   1.259  1.00  0.00     0.169 HD
HETATM   28  C   UNL     1      35.417  -8.831   2.742  1.00  0.00     0.031 A 
HETATM   29  C   UNL     1      36.747  -9.068   2.228  1.00  0.00     0.025 A 
BRANCH  26  30
HETATM   30  C   UNL     1      33.051  -9.434   2.889  1.00  0.00    -0.009 A 
HETATM   31  C   UNL     1      32.741  -8.289   3.633  1.00  0.00     0.013 A 
HETATM   32  C   UNL     1      31.454  -8.110   4.145  1.00  0.00     0.001 A 
HETATM   33  C   UNL     1      30.471  -9.072   3.916  1.00  0.00     0.000 A 
HETATM   34  C   UNL     1      30.771 -10.213   3.173  1.00  0.00     0.001 A 
HETATM   35  C   UNL     1      32.058 -10.394   2.662  1.00  0.00     0.013 A 
ENDBRANCH  26  30
ENDBRANCH   2  22
TORSDOF 4
ENDMDL
MODEL 9
REMARK VINA RESULT:      -7.9      3.428     10.556
REMARK  4 active torsions:
REMARK  status: ('A' for Active; 'I' for Inactive)
REMARK    1  A    between atoms: C_5  and  N_6 
REMARK       I    between atoms: N_6  and  C_7 
REMARK    2  A    between atoms: C_7  and  C_8 
REMARK    3  A    between atoms: C_12  and  C_13 
REMARK    4  A    between atoms: N_24  and  C_25 
ROOT
HETATM    1  N   UNL     1      40.665 -13.611   1.902  1.00  0.00    -0.348 N 
HETATM    2  C   UNL     1      40.273 -12.806   0.864  1.00  0.00     0.257 C 
HETATM    3  O   UNL     1      41.005 -12.573  -0.097  1.00  0.00    -0.267 OA
HETATM    4  H   UNL     1      40.004 -13.811   2.653  1.00  0.00     0.163 HD
ENDROOT
BRANCH   1   5
HETATM    5  C   UNL     1      41.960 -14.255   1.901  1.00  0.00     0.122 C 
HETATM    6  C   UNL     1      41.980 -15.572   1.090  1.00  0.00     0.039 C 
HETATM    7  C   UNL     1      41.469 -16.830   1.854  1.00  0.00    -0.040 C 
HETATM    8  C   UNL     1      41.704 -18.066   0.960  1.00  0.00     0.015 C 
HETATM    9  C   UNL     1      39.954 -16.735   2.128  1.00  0.00     0.015 C 
HETATM   10  C   UNL     1      42.232 -17.039   3.200  1.00  0.00     0.069 C 
HETATM   11  C   UNL     1      42.502 -15.745   3.900  1.00  0.00     0.047 A 
HETATM   12  C   UNL     1      42.391 -14.499   3.302  1.00  0.00     0.008 A 
HETATM   13  N   UNL     1      43.088 -15.538   5.147  1.00  0.00    -0.238 N 
HETATM   14  C   UNL     1      42.864 -13.596   4.257  1.00  0.00     0.150 A 
HETATM   15  N   UNL     1      43.299 -14.204   5.355  1.00  0.00    -0.179 NA
BRANCH  13  16
HETATM   16  C   UNL     1      43.530 -16.461   6.147  1.00  0.00     0.058 A 
HETATM   17  C   UNL     1      44.639 -17.280   5.860  1.00  0.00     0.031 A 
HETATM   18  C   UNL     1      45.094 -18.223   6.785  1.00  0.00     0.002 A 
HETATM   19  C   UNL     1      44.465 -18.345   8.019  1.00  0.00     0.000 A 
HETATM   20  C   UNL     1      43.385 -17.523   8.328  1.00  0.00     0.002 A 
HETATM   21  C   UNL     1      42.918 -16.586   7.397  1.00  0.00     0.031 A 
ENDBRANCH  13  16
ENDBRANCH   1   5
BRANCH   2  22
HETATM   22  C   UNL     1      38.911 -12.209   0.961  1.00  0.00     0.100 A 
HETATM   23  C   UNL     1      38.419 -11.415   2.128  1.00  0.00     0.261 A 
HETATM   24  O   UNL     1      39.120 -11.204   3.115  1.00  0.00    -0.267 OA
HETATM   25  N   UNL     1      37.134 -10.927   2.041  1.00  0.00    -0.322 N 
HETATM   26  C   UNL     1      36.306 -11.124   0.964  1.00  0.00     0.045 A 
HETATM   27  H   UNL     1      36.805 -10.380   2.827  1.00  0.00     0.169 HD
HETATM   28  C   UNL     1      36.736 -11.842  -0.084  1.00  0.00     0.031 A 
HETATM   29  C   UNL     1      38.071 -12.396  -0.076  1.00  0.00     0.025 A 
BRANCH  26  30
HETATM   30  C   UNL     1      34.961 -10.543   0.987  1.00  0.00    -0.009 A 
HETATM   31  C   UNL     1      34.078 -10.765  -0.076  1.00  0.00     0.013 A 
HETATM   32  C   UNL     1      32.809 -10.182  -0.070  1.00  0.00     0.001 A 
HETATM   33  C   UNL     1      32.416  -9.376   0.998  1.00  0.00     0.000 A 
HETATM   34  C   UNL     1      33.289  -9.154   2.062  1.00  0.00     0.001 A 
HETATM   35  C   UNL     1      34.559  -9.734   2.056  1.00  0.00     0.013 A 
ENDBRANCH  26  30
ENDBRANCH   2  22
TORSDOF 4
ENDMDL
MODEL 10
REMARK VINA RESULT:      -7.8      3.459     10.040
REMARK  4 active torsions:
REMARK  status: ('A' for Active; 'I' for Inactive)
REMARK    1  A    between atoms: C_5  and  N_6 
REMARK       I    between atoms: N_6  and  C_7 
REMARK    2  A    between atoms: C_7  and  C_8 
REMARK    3  A    between atoms: C_12  and  C_13 
REMARK    4  A    between atoms: N_24  and  C_25 
ROOT
HETATM    1  N   UNL     1      40.249 -13.650   1.846  1.00  0.00    -0.348 N 
HETATM    2  C   UNL     1      39.383 -13.115   0.928  1.00  0.00     0.257 C 
HETATM    3  O   UNL     1      38.162 -13.202   1.049  1.00  0.00    -0.267 OA
HETATM    4  H   UNL     1      41.252 -13.510   1.725  1.00  0.00     0.163 HD
ENDROOT
BRANCH   1   5
HETATM    5  C   UNL     1      39.761 -14.322   3.030  1.00  0.00     0.122 C 
HETATM    6  C   UNL     1      39.535 -13.362   4.221  1.00  0.00     0.039 C 
HETATM    7  C   UNL     1      40.807 -13.032   5.058  1.00  0.00    -0.040 C 
HETATM    8  C   UNL     1      40.375 -12.199   6.284  1.00  0.00     0.015 C 
HETATM    9  C   UNL     1      41.802 -12.179   4.243  1.00  0.00     0.015 C 
HETATM   10  C   UNL     1      41.519 -14.326   5.564  1.00  0.00     0.069 C 
HETATM   11  C   UNL     1      41.510 -15.411   4.534  1.00  0.00     0.047 A 
HETATM   12  C   UNL     1      40.705 -15.407   3.406  1.00  0.00     0.008 A 
HETATM   13  N   UNL     1      42.108 -16.669   4.594  1.00  0.00    -0.238 N 
HETATM   14  C   UNL     1      40.912 -16.652   2.809  1.00  0.00     0.150 A 
HETATM   15  N   UNL     1      41.733 -17.421   3.516  1.00  0.00    -0.179 NA
BRANCH  13  16
HETATM   16  C   UNL     1      42.948 -17.269   5.583  1.00  0.00     0.058 A 
HETATM   17  C   UNL     1      42.521 -17.250   6.925  1.00  0.00     0.031 A 
HETATM   18  C   UNL     1      43.316 -17.792   7.939  1.00  0.00     0.002 A 
HETATM   19  C   UNL     1      44.536 -18.380   7.626  1.00  0.00     0.000 A 
HETATM   20  C   UNL     1      44.958 -18.432   6.300  1.00  0.00     0.002 A 
HETATM   21  C   UNL     1      44.169 -17.878   5.283  1.00  0.00     0.031 A 
ENDBRANCH  13  16
ENDBRANCH   1   5
BRANCH   2  22
HETATM   22  C   UNL     1      39.996 -12.428  -0.244  1.00  0.00     0.100 A 
HETATM   23  C   UNL     1      40.794 -13.118  -1.304  1.00  0.00     0.261 A 
HETATM   24  O   UNL     1      41.011 -14.326  -1.274  1.00  0.00    -0.267 OA
HETATM   25  N   UNL     1      41.275 -12.326  -2.324  1.00  0.00    -0.322 N 
HETATM   26  C   UNL     1      41.061 -10.973  -2.416  1.00  0.00     0.045 A 
HETATM   27  H   UNL     1      41.806 -12.795  -3.047  1.00  0.00     0.169 HD
HETATM   28  C   UNL     1      40.353 -10.345  -1.465  1.00  0.00     0.031 A 
HETATM   29  C   UNL     1      39.814 -11.098  -0.355  1.00  0.00     0.025 A 
BRANCH  26  30
HETATM   30  C   UNL     1      41.618 -10.242  -3.557  1.00  0.00    -0.009 A 
HETATM   31  C   UNL     1      41.790  -8.854  -3.491  1.00  0.00     0.013 A 
HETATM   32  C   UNL     1      42.287  -8.154  -4.592  1.00  0.00     0.001 A 
HETATM   33  C   UNL     1      42.616  -8.836  -5.763  1.00  0.00     0.000 A 
HETATM   34  C   UNL     1      42.451 -10.218  -5.835  1.00  0.00     0.001 A 
HETATM   35  C   UNL     1      41.952 -10.920  -4.736  1.00  0.00     0.013 A 
ENDBRANCH  26  30
ENDBRANCH   2  22
TORSDOF 4
ENDMDL
