MODEL 1
REMARK VINA RESULT:      -8.3      0.000      0.000
REMARK  3 active torsions:
REMARK  status: ('A' for Active; 'I' for Inactive)
REMARK    1  A    between atoms: C_8  and  C_9 
REMARK    2  A    between atoms: C_16  and  O_17 
REMARK    3  A    between atoms: C_24  and  N_25 
ROOT
HETATM    1  C   UNL     1      43.881 -15.109   6.554  1.00  0.00     0.073 C 
HETATM    2  C   UNL     1      43.803 -16.398   7.283  1.00  0.00     0.062 A 
HETATM    3  N   UNL     1      43.646 -16.417   8.618  1.00  0.00    -0.177 NA
HETATM    4  N   UNL     1      43.618 -17.728   8.933  1.00  0.00    -0.256 N 
HETATM    5  H   UNL     1      43.517 -17.997   9.905  1.00  0.00     0.191 HD
HETATM    6  C   UNL     1      43.742 -18.531   7.846  1.00  0.00     0.175 A 
HETATM    7  C   UNL     1      43.857 -17.710   6.755  1.00  0.00     0.034 A 
HETATM    8  C   UNL     1      44.030 -18.295   5.393  1.00  0.00     0.106 A 
HETATM    9  C   UNL     1      44.090 -19.824   5.475  1.00  0.00     0.081 A 
HETATM   10  C   UNL     1      44.349 -20.517   4.258  1.00  0.00     0.100 C 
HETATM   11  N   UNL     1      44.561 -21.092   3.272  1.00  0.00    -0.191 NA
HETATM   12  C   UNL     1      43.960 -20.509   6.646  1.00  0.00     0.140 A 
HETATM   13  O   UNL     1      43.754 -19.858   7.876  1.00  0.00    -0.279 OA
ENDROOT
BRANCH   8  14
HETATM   14  C   UNL     1      42.865 -17.781   4.541  1.00  0.00    -0.033 A 
HETATM   15  C   UNL     1      42.992 -17.543   3.137  1.00  0.00    -0.016 A 
HETATM   16  C   UNL     1      41.865 -17.052   2.415  1.00  0.00     0.008 A 
HETATM   17  C   UNL     1      44.184 -17.774   2.399  1.00  0.00     0.013 A 
HETATM   18  C   UNL     1      41.992 -16.808   1.027  1.00  0.00     0.015 A 
HETATM   19  C   UNL     1      40.636 -16.820   3.082  1.00  0.00     0.079 A 
HETATM   20  C   UNL     1      43.179 -17.042   0.340  1.00  0.00     0.001 A 
HETATM   21  C   UNL     1      44.276 -17.528   1.026  1.00  0.00     0.001 A 
HETATM   22  C   UNL     1      40.517 -17.094   4.441  1.00  0.00     0.038 A 
HETATM   23  C   UNL     1      41.610 -17.575   5.155  1.00  0.00     0.012 A 
BRANCH  19  24
HETATM   24  O   UNL     1      39.603 -16.338   2.312  1.00  0.00    -0.355 OA
HETATM   25  C   UNL     1      39.327 -14.945   2.366  1.00  0.00     0.210 C 
ENDBRANCH  19  24
ENDBRANCH   8  14
BRANCH  12  26
HETATM   26  N   UNL     1      44.017 -21.879   6.777  1.00  0.00    -0.282 NA
HETATM   27  H   UNL     1      44.747 -22.344   6.242  1.00  0.00     0.126 HD
HETATM   28  H   UNL     1      43.105 -22.314   6.672  1.00  0.00     0.126 HD
ENDBRANCH  12  26
TORSDOF 3
ENDMDL
MODEL 2
REMARK VINA RESULT:      -7.8      3.023      5.750
REMARK  3 active torsions:
REMARK  status: ('A' for Active; 'I' for Inactive)
REMARK    1  A    between atoms: C_8  and  C_9 
REMARK    2  A    between atoms: C_16  and  O_17 
REMARK    3  A    between atoms: C_24  and  N_25 
ROOT
HETATM    1  C   UNL     1      41.044 -16.832   1.926  1.00  0.00     0.073 C 
HETATM    2  C   UNL     1      40.592 -15.738   2.819  1.00  0.00     0.062 A 
HETATM    3  N   UNL     1      39.326 -15.290   2.761  1.00  0.00    -0.177 NA
HETATM    4  N   UNL     1      39.273 -14.317   3.693  1.00  0.00    -0.256 N 
HETATM    5  H   UNL     1      38.403 -13.814   3.827  1.00  0.00     0.191 HD
HETATM    6  C   UNL     1      40.453 -14.144   4.339  1.00  0.00     0.175 A 
HETATM    7  C   UNL     1      41.334 -15.050   3.808  1.00  0.00     0.034 A 
HETATM    8  C   UNL     1      42.742 -15.100   4.299  1.00  0.00     0.106 A 
HETATM    9  C   UNL     1      42.973 -14.021   5.362  1.00  0.00     0.081 A 
HETATM   10  C   UNL     1      44.304 -13.887   5.855  1.00  0.00     0.100 C 
HETATM   11  N   UNL     1      45.384 -13.768   6.261  1.00  0.00    -0.191 NA
HETATM   12  C   UNL     1      41.990 -13.182   5.792  1.00  0.00     0.140 A 
HETATM   13  O   UNL     1      40.677 -13.249   5.293  1.00  0.00    -0.279 OA
ENDROOT
BRANCH   8  14
HETATM   14  C   UNL     1      42.977 -16.522   4.822  1.00  0.00    -0.033 A 
HETATM   15  C   UNL     1      43.506 -17.562   3.996  1.00  0.00    -0.016 A 
HETATM   16  C   UNL     1      43.683 -18.862   4.552  1.00  0.00     0.008 A 
HETATM   17  C   UNL     1      43.881 -17.381   2.638  1.00  0.00     0.013 A 
HETATM   18  C   UNL     1      44.199 -19.894   3.733  1.00  0.00     0.015 A 
HETATM   19  C   UNL     1      43.352 -19.111   5.907  1.00  0.00     0.079 A 
HETATM   20  C   UNL     1      44.550 -19.680   2.404  1.00  0.00     0.001 A 
HETATM   21  C   UNL     1      44.393 -18.420   1.856  1.00  0.00     0.001 A 
HETATM   22  C   UNL     1      42.875 -18.078   6.709  1.00  0.00     0.038 A 
HETATM   23  C   UNL     1      42.699 -16.804   6.177  1.00  0.00     0.012 A 
BRANCH  19  24
HETATM   24  O   UNL     1      43.546 -20.395   6.360  1.00  0.00    -0.355 OA
HETATM   25  C   UNL     1      43.634 -20.599   7.764  1.00  0.00     0.210 C 
ENDBRANCH  19  24
ENDBRANCH   8  14
BRANCH  12  26
HETATM   26  N   UNL     1      42.146 -12.189   6.734  1.00  0.00    -0.282 NA
HETATM   27  H   UNL     1      41.521 -11.391   6.641  1.00  0.00     0.126 HD
HETATM   28  H   UNL     1      43.120 -11.923   6.855  1.00  0.00     0.126 HD
ENDBRANCH  12  26
TORSDOF 3
ENDMDL
MODEL 3
REMARK VINA RESULT:      -7.6      2.732      5.206
REMARK  3 active torsions:
REMARK  status: ('A' for Active; 'I' for Inactive)
REMARK    1  A    between atoms: C_8  and  C_9 
REMARK    2  A    between atoms: C_16  and  O_17 
REMARK    3  A    between atoms: C_24  and  N_25 
ROOT
HETATM    1  C   UNL     1      41.716 -16.444   0.168  1.00  0.00     0.073 C 
HETATM    2  C   UNL     1      42.626 -17.124   1.122  1.00  0.00     0.062 A 
HETATM    3  N   UNL     1      43.756 -17.706   0.686  1.00  0.00    -0.177 NA
HETATM    4  N   UNL     1      44.321 -18.214   1.801  1.00  0.00    -0.256 N 
HETATM    5  H   UNL     1      45.196 -18.719   1.720  1.00  0.00     0.191 HD
HETATM    6  C   UNL     1      43.593 -17.964   2.918  1.00  0.00     0.175 A 
HETATM    7  C   UNL     1      42.489 -17.254   2.524  1.00  0.00     0.034 A 
HETATM    8  C   UNL     1      41.469 -16.838   3.530  1.00  0.00     0.106 A 
HETATM    9  C   UNL     1      41.852 -17.354   4.921  1.00  0.00     0.081 A 
HETATM   10  C   UNL     1      40.918 -17.112   5.970  1.00  0.00     0.100 C 
HETATM   11  N   UNL     1      40.163 -16.923   6.830  1.00  0.00    -0.191 NA
HETATM   12  C   UNL     1      42.995 -18.056   5.162  1.00  0.00     0.140 A 
HETATM   13  O   UNL     1      43.917 -18.358   4.143  1.00  0.00    -0.279 OA
ENDROOT
BRANCH   8  14
HETATM   14  C   UNL     1      41.376 -15.310   3.458  1.00  0.00    -0.033 A 
HETATM   15  C   UNL     1      40.314 -14.641   2.771  1.00  0.00    -0.016 A 
HETATM   16  C   UNL     1      40.304 -13.216   2.736  1.00  0.00     0.008 A 
HETATM   17  C   UNL     1      39.248 -15.313   2.116  1.00  0.00     0.013 A 
HETATM   18  C   UNL     1      39.259 -12.553   2.050  1.00  0.00     0.015 A 
HETATM   19  C   UNL     1      41.325 -12.478   3.388  1.00  0.00     0.079 A 
HETATM   20  C   UNL     1      38.234 -13.247   1.415  1.00  0.00     0.001 A 
HETATM   21  C   UNL     1      38.227 -14.629   1.450  1.00  0.00     0.001 A 
HETATM   22  C   UNL     1      42.328 -13.144   4.085  1.00  0.00     0.038 A 
HETATM   23  C   UNL     1      42.347 -14.534   4.126  1.00  0.00     0.012 A 
BRANCH  19  24
HETATM   24  O   UNL     1      41.243 -11.109   3.298  1.00  0.00    -0.355 OA
HETATM   25  C   UNL     1      41.044 -10.374   4.498  1.00  0.00     0.210 C 
ENDBRANCH  19  24
ENDBRANCH   8  14
BRANCH  12  26
HETATM   26  N   UNL     1      43.381 -18.552   6.387  1.00  0.00    -0.282 NA
HETATM   27  H   UNL     1      43.653 -19.532   6.401  1.00  0.00     0.126 HD
HETATM   28  H   UNL     1      42.726 -18.308   7.125  1.00  0.00     0.126 HD
ENDBRANCH  12  26
TORSDOF 3
ENDMDL
MODEL 4
REMARK VINA RESULT:      -7.5      3.535      6.503
REMARK  3 active torsions:
REMARK  status: ('A' for Active; 'I' for Inactive)
REMARK    1  A    between atoms: C_8  and  C_9 
REMARK    2  A    between atoms: C_16  and  O_17 
REMARK    3  A    between atoms: C_24  and  N_25 
ROOT
HETATM    1  C   UNL     1      39.395 -13.286   5.324  1.00  0.00     0.073 C 
HETATM    2  C   UNL     1      39.584 -13.316   3.854  1.00  0.00     0.062 A 
HETATM    3  N   UNL     1      39.065 -12.346   3.081  1.00  0.00    -0.177 NA
HETATM    4  N   UNL     1      39.424 -12.690   1.827  1.00  0.00    -0.256 N 
HETATM    5  H   UNL     1      39.131 -12.102   1.055  1.00  0.00     0.191 HD
HETATM    6  C   UNL     1      40.155 -13.832   1.786  1.00  0.00     0.175 A 
HETATM    7  C   UNL     1      40.288 -14.267   3.079  1.00  0.00     0.034 A 
HETATM    8  C   UNL     1      41.033 -15.526   3.371  1.00  0.00     0.106 A 
HETATM    9  C   UNL     1      41.517 -16.172   2.069  1.00  0.00     0.081 A 
HETATM   10  C   UNL     1      42.165 -17.436   2.187  1.00  0.00     0.100 C 
HETATM   11  N   UNL     1      42.692 -18.467   2.272  1.00  0.00    -0.191 NA
HETATM   12  C   UNL     1      41.307 -15.617   0.842  1.00  0.00     0.140 A 
HETATM   13  O   UNL     1      40.627 -14.395   0.681  1.00  0.00    -0.279 OA
ENDROOT
BRANCH   8  14
HETATM   14  C   UNL     1      42.176 -15.152   4.321  1.00  0.00    -0.033 A 
HETATM   15  C   UNL     1      42.455 -15.895   5.510  1.00  0.00    -0.016 A 
HETATM   16  C   UNL     1      43.528 -15.476   6.350  1.00  0.00     0.008 A 
HETATM   17  C   UNL     1      41.728 -17.047   5.914  1.00  0.00     0.013 A 
HETATM   18  C   UNL     1      43.800 -16.205   7.532  1.00  0.00     0.015 A 
HETATM   19  C   UNL     1      44.312 -14.348   5.999  1.00  0.00     0.079 A 
HETATM   20  C   UNL     1      43.061 -17.326   7.897  1.00  0.00     0.001 A 
HETATM   21  C   UNL     1      42.024 -17.749   7.085  1.00  0.00     0.001 A 
HETATM   22  C   UNL     1      44.052 -13.660   4.818  1.00  0.00     0.038 A 
HETATM   23  C   UNL     1      43.008 -14.061   3.990  1.00  0.00     0.012 A 
BRANCH  19  24
HETATM   24  O   UNL     1      45.321 -14.009   6.870  1.00  0.00    -0.355 OA
HETATM   25  C   UNL     1      45.002 -13.145   7.952  1.00  0.00     0.210 C 
ENDBRANCH  19  24
ENDBRANCH   8  14
BRANCH  12  26
HETATM   26  N   UNL     1      41.709 -16.159  -0.357  1.00  0.00    -0.282 NA
HETATM   27  H   UNL     1      42.695 -16.404  -0.422  1.00  0.00     0.126 HD
HETATM   28  H   UNL     1      41.377 -15.622  -1.154  1.00  0.00     0.126 HD
ENDBRANCH  12  26
TORSDOF 3
ENDMDL
MODEL 5
REMARK VINA RESULT:      -7.4      3.065      5.805
REMARK  3 active torsions:
REMARK  status: ('A' for Active; 'I' for Inactive)
REMARK    1  A    between atoms: C_8  and  C_9 
REMARK    2  A    between atoms: C_16  and  O_17 
REMARK    3  A    between atoms: C_24  and  N_25 
ROOT
HETATM    1  C   UNL     1      40.971 -17.578   0.819  1.00  0.00     0.073 C 
HETATM    2  C   UNL     1      41.841 -17.619   2.019  1.00  0.00     0.062 A 
HETATM    3  N   UNL     1      42.844 -18.510   2.102  1.00  0.00    -0.177 NA
HETATM    4  N   UNL     1      43.410 -18.265   3.302  1.00  0.00    -0.256 N 
HETATM    5  H   UNL     1      44.196 -18.832   3.598  1.00  0.00     0.191 HD
HETATM    6  C   UNL     1      42.806 -17.248   3.968  1.00  0.00     0.175 A 
HETATM    7  C   UNL     1      41.789 -16.797   3.169  1.00  0.00     0.034 A 
HETATM    8  C   UNL     1      40.913 -15.681   3.633  1.00  0.00     0.106 A 
HETATM    9  C   UNL     1      41.319 -15.237   5.042  1.00  0.00     0.081 A 
HETATM   10  C   UNL     1      40.506 -14.239   5.654  1.00  0.00     0.100 C 
HETATM   11  N   UNL     1      39.849 -13.429   6.162  1.00  0.00    -0.191 NA
HETATM   12  C   UNL     1      42.364 -15.787   5.721  1.00  0.00     0.140 A 
HETATM   13  O   UNL     1      43.159 -16.809   5.170  1.00  0.00    -0.279 OA
ENDROOT
BRANCH   8  14
HETATM   14  C   UNL     1      41.032 -14.564   2.590  1.00  0.00    -0.033 A 
HETATM   15  C   UNL     1      39.943 -14.193   1.741  1.00  0.00    -0.016 A 
HETATM   16  C   UNL     1      40.136 -13.153   0.786  1.00  0.00     0.008 A 
HETATM   17  C   UNL     1      38.658 -14.797   1.790  1.00  0.00     0.013 A 
HETATM   18  C   UNL     1      39.062 -12.790  -0.061  1.00  0.00     0.015 A 
HETATM   19  C   UNL     1      41.385 -12.489   0.695  1.00  0.00     0.079 A 
HETATM   20  C   UNL     1      37.818 -13.409   0.014  1.00  0.00     0.001 A 
HETATM   21  C   UNL     1      37.615 -14.413   0.943  1.00  0.00     0.001 A 
HETATM   22  C   UNL     1      42.422 -12.835   1.556  1.00  0.00     0.038 A 
HETATM   23  C   UNL     1      42.245 -13.849   2.492  1.00  0.00     0.012 A 
BRANCH  19  24
HETATM   24  O   UNL     1      41.487 -11.504  -0.259  1.00  0.00    -0.355 OA
HETATM   25  C   UNL     1      42.582 -11.564  -1.163  1.00  0.00     0.210 C 
ENDBRANCH  19  24
ENDBRANCH   8  14
BRANCH  12  26
HETATM   26  N   UNL     1      42.764 -15.435   6.990  1.00  0.00    -0.282 NA
HETATM   27  H   UNL     1      42.218 -15.833   7.751  1.00  0.00     0.126 HD
HETATM   28  H   UNL     1      42.909 -14.433   7.084  1.00  0.00     0.126 HD
ENDBRANCH  12  26
TORSDOF 3
ENDMDL
MODEL 6
REMARK VINA RESULT:      -7.3      5.658      8.965
REMARK  3 active torsions:
REMARK  status: ('A' for Active; 'I' for Inactive)
REMARK    1  A    between atoms: C_8  and  C_9 
REMARK    2  A    between atoms: C_16  and  O_17 
REMARK    3  A    between atoms: C_24  and  N_25 
ROOT
HETATM    1  C   UNL     1      43.118 -11.409  -1.077  1.00  0.00     0.073 C 
HETATM    2  C   UNL     1      42.281 -12.156  -2.047  1.00  0.00     0.062 A 
HETATM    3  N   UNL     1      42.656 -12.257  -3.334  1.00  0.00    -0.177 NA
HETATM    4  N   UNL     1      41.680 -12.988  -3.910  1.00  0.00    -0.256 N 
HETATM    5  H   UNL     1      41.739 -13.189  -4.902  1.00  0.00     0.191 HD
HETATM    6  C   UNL     1      40.714 -13.356  -3.032  1.00  0.00     0.175 A 
HETATM    7  C   UNL     1      41.068 -12.844  -1.811  1.00  0.00     0.034 A 
HETATM    8  C   UNL     1      40.188 -13.061  -0.626  1.00  0.00     0.106 A 
HETATM    9  C   UNL     1      38.935 -13.845  -1.030  1.00  0.00     0.081 A 
HETATM   10  C   UNL     1      37.954 -14.045  -0.015  1.00  0.00     0.100 C 
HETATM   11  N   UNL     1      37.149 -14.211   0.804  1.00  0.00    -0.191 NA
HETATM   12  C   UNL     1      38.717 -14.292  -2.298  1.00  0.00     0.140 A 
HETATM   13  O   UNL     1      39.638 -14.071  -3.338  1.00  0.00    -0.279 OA
ENDROOT
BRANCH   8  14
HETATM   14  C   UNL     1      41.037 -13.782   0.427  1.00  0.00    -0.033 A 
HETATM   15  C   UNL     1      41.296 -13.219   1.716  1.00  0.00    -0.016 A 
HETATM   16  C   UNL     1      42.106 -13.945   2.637  1.00  0.00     0.008 A 
HETATM   17  C   UNL     1      40.783 -11.967   2.151  1.00  0.00     0.013 A 
HETATM   18  C   UNL     1      42.369 -13.386   3.909  1.00  0.00     0.015 A 
HETATM   19  C   UNL     1      42.634 -15.211   2.280  1.00  0.00     0.079 A 
HETATM   20  C   UNL     1      41.853 -12.153   4.297  1.00  0.00     0.001 A 
HETATM   21  C   UNL     1      41.057 -11.444   3.417  1.00  0.00     0.001 A 
HETATM   22  C   UNL     1      42.340 -15.763   1.036  1.00  0.00     0.038 A 
HETATM   23  C   UNL     1      41.549 -15.064   0.130  1.00  0.00     0.012 A 
BRANCH  19  24
HETATM   24  O   UNL     1      43.412 -15.839   3.224  1.00  0.00    -0.355 OA
HETATM   25  C   UNL     1      43.561 -17.250   3.132  1.00  0.00     0.210 C 
ENDBRANCH  19  24
ENDBRANCH   8  14
BRANCH  12  26
HETATM   26  N   UNL     1      37.606 -14.989  -2.716  1.00  0.00    -0.282 NA
HETATM   27  H   UNL     1      37.437 -14.990  -3.720  1.00  0.00     0.126 HD
HETATM   28  H   UNL     1      36.779 -14.759  -2.172  1.00  0.00     0.126 HD
ENDBRANCH  12  26
TORSDOF 3
ENDMDL
MODEL 7
REMARK VINA RESULT:      -7.2      3.895      6.756
REMARK  3 active torsions:
REMARK  status: ('A' for Active; 'I' for Inactive)
REMARK    1  A    between atoms: C_8  and  C_9 
REMARK    2  A    between atoms: C_16  and  O_17 
REMARK    3  A    between atoms: C_24  and  N_25 
ROOT
HETATM    1  C   UNL     1      40.549 -17.010   1.796  1.00  0.00     0.073 C 
HETATM    2  C   UNL     1      41.080 -16.540   3.098  1.00  0.00     0.062 A 
HETATM    3  N   UNL     1      41.961 -17.288   3.784  1.00  0.00    -0.177 NA
HETATM    4  N   UNL     1      42.219 -16.566   4.894  1.00  0.00    -0.256 N 
HETATM    5  H   UNL     1      42.860 -16.940   5.584  1.00  0.00     0.191 HD
HETATM    6  C   UNL     1      41.541 -15.391   4.924  1.00  0.00     0.175 A 
HETATM    7  C   UNL     1      40.796 -15.331   3.776  1.00  0.00     0.034 A 
HETATM    8  C   UNL     1      39.914 -14.155   3.518  1.00  0.00     0.106 A 
HETATM    9  C   UNL     1      39.979 -13.174   4.692  1.00  0.00     0.081 A 
HETATM   10  C   UNL     1      39.112 -12.045   4.627  1.00  0.00     0.100 C 
HETATM   11  N   UNL     1      38.407 -11.123   4.585  1.00  0.00    -0.191 NA
HETATM   12  C   UNL     1      40.774 -13.371   5.781  1.00  0.00     0.140 A 
HETATM   13  O   UNL     1      41.607 -14.499   5.904  1.00  0.00    -0.279 OA
ENDROOT
BRANCH   8  14
HETATM   14  C   UNL     1      40.376 -13.541   2.191  1.00  0.00    -0.033 A 
HETATM   15  C   UNL     1      39.532 -13.492   1.038  1.00  0.00    -0.016 A 
HETATM   16  C   UNL     1      40.037 -12.916  -0.164  1.00  0.00     0.008 A 
HETATM   17  C   UNL     1      38.197 -13.979   1.011  1.00  0.00     0.013 A 
HETATM   18  C   UNL     1      39.207 -12.873  -1.308  1.00  0.00     0.015 A 
HETATM   19  C   UNL     1      41.353 -12.388  -0.204  1.00  0.00     0.079 A 
HETATM   20  C   UNL     1      37.905 -13.367  -1.297  1.00  0.00     0.001 A 
HETATM   21  C   UNL     1      37.399 -13.918  -0.134  1.00  0.00     0.001 A 
HETATM   22  C   UNL     1      42.147 -12.408   0.938  1.00  0.00     0.038 A 
HETATM   23  C   UNL     1      41.663 -12.967   2.117  1.00  0.00     0.012 A 
BRANCH  19  24
HETATM   24  O   UNL     1      41.764 -11.859  -1.405  1.00  0.00    -0.355 OA
HETATM   25  C   UNL     1      42.787 -12.542  -2.118  1.00  0.00     0.210 C 
ENDBRANCH  19  24
ENDBRANCH   8  14
BRANCH  12  26
HETATM   26  N   UNL     1      40.862 -12.529   6.866  1.00  0.00    -0.282 NA
HETATM   27  H   UNL     1      40.658 -11.549   6.682  1.00  0.00     0.126 HD
HETATM   28  H   UNL     1      41.721 -12.667   7.392  1.00  0.00     0.126 HD
ENDBRANCH  12  26
TORSDOF 3
ENDMDL
MODEL 8
REMARK VINA RESULT:      -7.1      8.933     10.616
REMARK  3 active torsions:
REMARK  status: ('A' for Active; 'I' for Inactive)
REMARK    1  A    between atoms: C_8  and  C_9 
REMARK    2  A    between atoms: C_16  and  O_17 
REMARK    3  A    between atoms: C_24  and  N_25 
ROOT
HETATM    1  C   UNL     1      41.302 -10.761  -2.768  1.00  0.00     0.073 C 
HETATM    2  C   UNL     1      41.505 -12.220  -2.936  1.00  0.00     0.062 A 
HETATM    3  N   UNL     1      42.738 -12.749  -2.853  1.00  0.00    -0.177 NA
HETATM    4  N   UNL     1      42.549 -14.070  -3.052  1.00  0.00    -0.256 N 
HETATM    5  H   UNL     1      43.353 -14.686  -3.046  1.00  0.00     0.191 HD
HETATM    6  C   UNL     1      41.245 -14.389  -3.248  1.00  0.00     0.175 A 
HETATM    7  C   UNL     1      40.533 -13.220  -3.174  1.00  0.00     0.034 A 
HETATM    8  C   UNL     1      39.054 -13.232  -3.369  1.00  0.00     0.106 A 
HETATM    9  C   UNL     1      38.569 -14.652  -3.678  1.00  0.00     0.081 A 
HETATM   10  C   UNL     1      37.185 -14.800  -3.983  1.00  0.00     0.100 C 
HETATM   11  N   UNL     1      36.060 -14.932  -4.235  1.00  0.00    -0.191 NA
HETATM   12  C   UNL     1      39.404 -15.727  -3.720  1.00  0.00     0.140 A 
HETATM   13  O   UNL     1      40.785 -15.613  -3.475  1.00  0.00    -0.279 OA
ENDROOT
BRANCH   8  14
HETATM   14  C   UNL     1      38.436 -12.647  -2.094  1.00  0.00    -0.033 A 
HETATM   15  C   UNL     1      37.537 -11.536  -2.121  1.00  0.00    -0.016 A 
HETATM   16  C   UNL     1      37.014 -11.041  -0.891  1.00  0.00     0.008 A 
HETATM   17  C   UNL     1      37.115 -10.886  -3.312  1.00  0.00     0.013 A 
HETATM   18  C   UNL     1      36.130  -9.936  -0.915  1.00  0.00     0.015 A 
HETATM   19  C   UNL     1      37.373 -11.654   0.336  1.00  0.00     0.079 A 
HETATM   20  C   UNL     1      35.745  -9.322  -2.103  1.00  0.00     0.001 A 
HETATM   21  C   UNL     1      36.237  -9.800  -3.304  1.00  0.00     0.001 A 
HETATM   22  C   UNL     1      38.218 -12.759   0.342  1.00  0.00     0.038 A 
HETATM   23  C   UNL     1      38.733 -13.252  -0.854  1.00  0.00     0.012 A 
BRANCH  19  24
HETATM   24  O   UNL     1      36.830 -11.108   1.475  1.00  0.00    -0.355 OA
HETATM   25  C   UNL     1      37.722 -10.639   2.478  1.00  0.00     0.210 C 
ENDBRANCH  19  24
ENDBRANCH   8  14
BRANCH  12  26
HETATM   26  N   UNL     1      39.024 -17.020  -4.004  1.00  0.00    -0.282 NA
HETATM   27  H   UNL     1      38.471 -17.142  -4.849  1.00  0.00     0.126 HD
HETATM   28  H   UNL     1      38.629 -17.491  -3.195  1.00  0.00     0.126 HD
ENDBRANCH  12  26
TORSDOF 3
ENDMDL
MODEL 9
REMARK VINA RESULT:      -6.9      3.181      6.171
REMARK  3 active torsions:
REMARK  status: ('A' for Active; 'I' for Inactive)
REMARK    1  A    between atoms: C_8  and  C_9 
REMARK    2  A    between atoms: C_16  and  O_17 
REMARK    3  A    between atoms: C_24  and  N_25 
ROOT
HETATM    1  C   UNL     1      41.239 -16.070   0.223  1.00  0.00     0.073 C 
HETATM    2  C   UNL     1      40.587 -15.495   1.424  1.00  0.00     0.062 A 
HETATM    3  N   UNL     1      39.249 -15.368   1.477  1.00  0.00    -0.177 NA
HETATM    4  N   UNL     1      39.013 -14.820   2.686  1.00  0.00    -0.256 N 
HETATM    5  H   UNL     1      38.057 -14.617   2.953  1.00  0.00     0.191 HD
HETATM    6  C   UNL     1      40.150 -14.607   3.396  1.00  0.00     0.175 A 
HETATM    7  C   UNL     1      41.192 -15.037   2.617  1.00  0.00     0.034 A 
HETATM    8  C   UNL     1      42.595 -14.918   3.114  1.00  0.00     0.106 A 
HETATM    9  C   UNL     1      42.616 -14.251   4.493  1.00  0.00     0.081 A 
HETATM   10  C   UNL     1      43.900 -13.985   5.052  1.00  0.00     0.100 C 
HETATM   11  N   UNL     1      44.940 -13.762   5.515  1.00  0.00    -0.191 NA
HETATM   12  C   UNL     1      41.485 -13.872   5.151  1.00  0.00     0.140 A 
HETATM   13  O   UNL     1      40.201 -14.072   4.609  1.00  0.00    -0.279 OA
ENDROOT
BRANCH   8  14
HETATM   14  C   UNL     1      43.182 -16.334   3.118  1.00  0.00    -0.033 A 
HETATM   15  C   UNL     1      43.137 -17.176   4.273  1.00  0.00    -0.016 A 
HETATM   16  C   UNL     1      43.717 -18.476   4.202  1.00  0.00     0.008 A 
HETATM   17  C   UNL     1      42.535 -16.801   5.504  1.00  0.00     0.013 A 
HETATM   18  C   UNL     1      43.680 -19.307   5.346  1.00  0.00     0.015 A 
HETATM   19  C   UNL     1      44.315 -18.927   2.999  1.00  0.00     0.079 A 
HETATM   20  C   UNL     1      43.086 -18.902   6.537  1.00  0.00     0.001 A 
HETATM   21  C   UNL     1      42.510 -17.648   6.615  1.00  0.00     0.001 A 
HETATM   22  C   UNL     1      44.316 -18.110   1.872  1.00  0.00     0.038 A 
HETATM   23  C   UNL     1      43.751 -16.839   1.929  1.00  0.00     0.012 A 
BRANCH  19  24
HETATM   24  O   UNL     1      44.858 -20.190   3.020  1.00  0.00    -0.355 OA
HETATM   25  C   UNL     1      44.245 -21.191   2.220  1.00  0.00     0.210 C 
ENDBRANCH  19  24
ENDBRANCH   8  14
BRANCH  12  26
HETATM   26  N   UNL     1      41.447 -13.261   6.384  1.00  0.00    -0.282 NA
HETATM   27  H   UNL     1      40.689 -13.550   6.998  1.00  0.00     0.126 HD
HETATM   28  H   UNL     1      41.544 -12.251   6.316  1.00  0.00     0.126 HD
ENDBRANCH  12  26
TORSDOF 3
ENDMDL
MODEL 10
REMARK VINA RESULT:      -6.8      3.819      5.600
REMARK  3 active torsions:
REMARK  status: ('A' for Active; 'I' for Inactive)
REMARK    1  A    between atoms: C_8  and  C_9 
REMARK    2  A    between atoms: C_16  and  O_17 
REMARK    3  A    between atoms: C_24  and  N_25 
ROOT
HETATM    1  C   UNL     1      39.923 -11.051   4.201  1.00  0.00     0.073 C 
HETATM    2  C   UNL     1      39.925 -12.340   4.934  1.00  0.00     0.062 A 
HETATM    3  N   UNL     1      39.327 -12.442   6.134  1.00  0.00    -0.177 NA
HETATM    4  N   UNL     1      39.522 -13.727   6.496  1.00  0.00    -0.256 N 
HETATM    5  H   UNL     1      39.163 -14.043   7.389  1.00  0.00     0.191 HD
HETATM    6  C   UNL     1      40.210 -14.435   5.565  1.00  0.00     0.175 A 
HETATM    7  C   UNL     1      40.484 -13.576   4.533  1.00  0.00     0.034 A 
HETATM    8  C   UNL     1      41.256 -14.053   3.349  1.00  0.00     0.106 A 
HETATM    9  C   UNL     1      41.665 -15.518   3.535  1.00  0.00     0.081 A 
HETATM   10  C   UNL     1      42.492 -16.082   2.521  1.00  0.00     0.100 C 
HETATM   11  N   UNL     1      43.168 -16.551   1.702  1.00  0.00    -0.191 NA
HETATM   12  C   UNL     1      41.316 -16.252   4.629  1.00  0.00     0.140 A 
HETATM   13  O   UNL     1      40.543 -15.715   5.675  1.00  0.00    -0.279 OA
ENDROOT
BRANCH   8  14
HETATM   14  C   UNL     1      40.366 -13.826   2.122  1.00  0.00    -0.033 A 
HETATM   15  C   UNL     1      40.733 -12.934   1.066  1.00  0.00    -0.016 A 
HETATM   16  C   UNL     1      39.846 -12.766  -0.036  1.00  0.00     0.008 A 
HETATM   17  C   UNL     1      41.948 -12.197   1.039  1.00  0.00     0.013 A 
HETATM   18  C   UNL     1      40.204 -11.878  -1.077  1.00  0.00     0.015 A 
HETATM   19  C   UNL     1      38.626 -13.486  -0.087  1.00  0.00     0.079 A 
HETATM   20  C   UNL     1      41.401 -11.168  -1.066  1.00  0.00     0.001 A 
HETATM   21  C   UNL     1      42.275 -11.330  -0.008  1.00  0.00     0.001 A 
HETATM   22  C   UNL     1      38.302 -14.381   0.929  1.00  0.00     0.038 A 
HETATM   23  C   UNL     1      39.161 -14.553   2.009  1.00  0.00     0.012 A 
BRANCH  19  24
HETATM   24  O   UNL     1      37.825 -13.259  -1.182  1.00  0.00    -0.355 OA
HETATM   25  C   UNL     1      37.905 -14.175  -2.266  1.00  0.00     0.210 C 
ENDBRANCH  19  24
ENDBRANCH   8  14
BRANCH  12  26
HETATM   26  N   UNL     1      41.665 -17.565   4.851  1.00  0.00    -0.282 NA
HETATM   27  H   UNL     1      41.898 -17.803   5.813  1.00  0.00     0.126 HD
HETATM   28  H   UNL     1      42.350 -17.900   4.179  1.00  0.00     0.126 HD
ENDBRANCH  12  26
TORSDOF 3
ENDMDL
