MODEL 1
REMARK VINA RESULT:      -7.2      0.000      0.000
REMARK  7 active torsions:
REMARK  status: ('A' for Active; 'I' for Inactive)
REMARK    1  A    between atoms: C_2  and  N_3 
REMARK    2  A    between atoms: C_8  and  C_9 
REMARK    3  A    between atoms: C_9  and  N_10 
REMARK       I    between atoms: N_10  and  C_11 
REMARK       I    between atoms: C_11  and  N_12 
REMARK    4  A    between atoms: N_12  and  C_13 
REMARK    5  A    between atoms: C_14  and  O_15 
REMARK    6  A    between atoms: C_18  and  O_19 
REMARK    7  A    between atoms: C_26  and  N_27 
ROOT
HETATM    1  C   UNL     1      39.550 -15.003   1.386  1.00  0.00     0.118 C 
HETATM    2  C   UNL     1      38.126 -14.460   1.284  1.00  0.00     0.037 C 
ENDROOT
BRANCH   1   3
HETATM    3  C   UNL     1      40.238 -14.602   2.684  1.00  0.00     0.006 C 
HETATM    4  C   UNL     1      40.771 -15.538   3.670  1.00  0.00    -0.031 C 
HETATM    5  C   UNL     1      41.203 -14.891   4.814  1.00  0.00     0.017 C 
HETATM    6  C   UNL     1      40.921 -17.033   3.546  1.00  0.00     0.068 C 
HETATM    7  C   UNL     1      41.784 -15.551   6.017  1.00  0.00     0.281 C 
HETATM    8  S   UNL     1      40.998 -13.218   4.739  1.00  0.00    -0.074 SA
HETATM    9  N   UNL     1      42.317 -16.937   5.673  1.00  0.00    -0.067 N 
HETATM   10  H   UNL     1      42.438 -17.430   6.567  1.00  0.00     0.280 HD
HETATM   11  C   UNL     1      41.249 -17.709   4.892  1.00  0.00     0.240 C 
HETATM   12  C   UNL     1      40.444 -13.296   3.129  1.00  0.00     0.089 C 
BRANCH   9  13
HETATM   13  C   UNL     1      43.662 -16.934   4.979  1.00  0.00     0.231 C 
HETATM   14  C   UNL     1      44.194 -18.345   4.802  1.00  0.00     0.034 C 
ENDBRANCH   9  13
BRANCH  12  15
HETATM   15  N   UNL     1      40.305 -12.069   2.443  1.00  0.00    -0.327 N 
HETATM   16  C   UNL     1      39.233 -11.188   2.499  1.00  0.00     0.097 A 
HETATM   17  C   UNL     1      39.496 -10.079   1.727  1.00  0.00     0.019 A 
HETATM   18  C   UNL     1      40.785 -10.246   1.191  1.00  0.00     0.019 A 
HETATM   19  C   UNL     1      41.263 -11.451   1.655  1.00  0.00     0.097 A 
ENDBRANCH  12  15
ENDBRANCH   1   3
BRANCH   1  20
HETATM   20  N   UNL     1      40.362 -14.546   0.264  1.00  0.00    -0.334 N 
HETATM   21  C   UNL     1      41.288 -15.394  -0.298  1.00  0.00     0.321 C 
HETATM   22  N   UNL     1      41.793 -14.993  -1.503  1.00  0.00    -0.306 N 
HETATM   23  O   UNL     1      41.576 -16.489   0.170  1.00  0.00    -0.247 OA
HETATM   24  H   UNL     1      42.117 -15.759  -2.088  1.00  0.00     0.171 HD
HETATM   25  H   UNL     1      39.872 -14.021  -0.447  1.00  0.00     0.165 HD
BRANCH  22  26
HETATM   26  C   UNL     1      41.896 -13.707  -2.069  1.00  0.00     0.071 A 
HETATM   27  C   UNL     1      41.271 -13.461  -3.303  1.00  0.00     0.097 A 
HETATM   28  C   UNL     1      41.368 -12.195  -3.896  1.00  0.00     0.077 A 
HETATM   29  C   UNL     1      42.081 -11.165  -3.264  1.00  0.00     0.092 A 
HETATM   30  C   UNL     1      42.723 -11.436  -2.047  1.00  0.00     0.069 A 
HETATM   31 CL   UNL     1      43.646 -10.234  -1.208  1.00  0.00    -0.081 Cl
HETATM   32  C   UNL     1      42.642 -12.699  -1.462  1.00  0.00     0.059 A 
BRANCH  27  33
HETATM   33  O   UNL     1      40.590 -14.522  -3.847  1.00  0.00    -0.354 OA
HETATM   34  C   UNL     1      39.189 -14.574  -3.589  1.00  0.00     0.210 C 
ENDBRANCH  27  33
BRANCH  29  35
HETATM   35  O   UNL     1      42.215  -9.895  -3.756  1.00  0.00    -0.354 OA
HETATM   36  C   UNL     1      42.515  -9.744  -5.138  1.00  0.00     0.210 C 
ENDBRANCH  29  35
ENDBRANCH  22  26
ENDBRANCH   1  20
TORSDOF 7
ENDMDL
MODEL 2
REMARK VINA RESULT:      -7.1      1.569      2.021
REMARK  7 active torsions:
REMARK  status: ('A' for Active; 'I' for Inactive)
REMARK    1  A    between atoms: C_2  and  N_3 
REMARK    2  A    between atoms: C_8  and  C_9 
REMARK    3  A    between atoms: C_9  and  N_10 
REMARK       I    between atoms: N_10  and  C_11 
REMARK       I    between atoms: C_11  and  N_12 
REMARK    4  A    between atoms: N_12  and  C_13 
REMARK    5  A    between atoms: C_14  and  O_15 
REMARK    6  A    between atoms: C_18  and  O_19 
REMARK    7  A    between atoms: C_26  and  N_27 
ROOT
HETATM    1  C   UNL     1      39.039 -14.388   1.309  1.00  0.00     0.118 C 
HETATM    2  C   UNL     1      37.631 -14.293   0.725  1.00  0.00     0.037 C 
ENDROOT
BRANCH   1   3
HETATM    3  C   UNL     1      39.235 -13.477   2.514  1.00  0.00     0.006 C 
HETATM    4  C   UNL     1      39.873 -13.873   3.766  1.00  0.00    -0.031 C 
HETATM    5  C   UNL     1      39.776 -12.885   4.729  1.00  0.00     0.017 C 
HETATM    6  C   UNL     1      40.611 -15.152   4.068  1.00  0.00     0.068 C 
HETATM    7  C   UNL     1      40.305 -12.974   6.120  1.00  0.00     0.281 C 
HETATM    8  S   UNL     1      38.960 -11.513   4.183  1.00  0.00    -0.074 SA
HETATM    9  N   UNL     1      41.390 -14.039   6.221  1.00  0.00    -0.067 N 
HETATM   10  H   UNL     1      41.506 -14.239   7.223  1.00  0.00     0.280 HD
HETATM   11  C   UNL     1      40.890 -15.334   5.574  1.00  0.00     0.240 C 
HETATM   12  C   UNL     1      38.824 -12.147   2.606  1.00  0.00     0.089 C 
BRANCH   9  13
HETATM   13  C   UNL     1      42.742 -13.605   5.694  1.00  0.00     0.231 C 
HETATM   14  C   UNL     1      43.868 -14.355   6.384  1.00  0.00     0.034 C 
ENDBRANCH   9  13
BRANCH  12  15
HETATM   15  N   UNL     1      38.366 -11.264   1.603  1.00  0.00    -0.327 N 
HETATM   16  C   UNL     1      39.112 -10.682   0.586  1.00  0.00     0.097 A 
HETATM   17  C   UNL     1      38.294  -9.921  -0.219  1.00  0.00     0.019 A 
HETATM   18  C   UNL     1      36.988 -10.048   0.283  1.00  0.00     0.019 A 
HETATM   19  C   UNL     1      37.053 -10.882   1.377  1.00  0.00     0.097 A 
ENDBRANCH  12  15
ENDBRANCH   1   3
BRANCH   1  20
HETATM   20  N   UNL     1      40.043 -14.060   0.304  1.00  0.00    -0.334 N 
HETATM   21  C   UNL     1      41.049 -14.956   0.027  1.00  0.00     0.321 C 
HETATM   22  N   UNL     1      41.765 -14.698  -1.109  1.00  0.00    -0.306 N 
HETATM   23  O   UNL     1      41.240 -15.981   0.671  1.00  0.00    -0.247 OA
HETATM   24  H   UNL     1      42.184 -15.525  -1.526  1.00  0.00     0.171 HD
HETATM   25  H   UNL     1      39.692 -13.634  -0.542  1.00  0.00     0.165 HD
BRANCH  22  26
HETATM   26  C   UNL     1      41.977 -13.490  -1.801  1.00  0.00     0.071 A 
HETATM   27  C   UNL     1      41.554 -13.395  -3.137  1.00  0.00     0.097 A 
HETATM   28  C   UNL     1      41.764 -12.210  -3.855  1.00  0.00     0.077 A 
HETATM   29  C   UNL     1      42.390 -11.111  -3.248  1.00  0.00     0.092 A 
HETATM   30  C   UNL     1      42.834 -11.233  -1.923  1.00  0.00     0.069 A 
HETATM   31 CL   UNL     1      43.639  -9.938  -1.102  1.00  0.00    -0.081 Cl
HETATM   32  C   UNL     1      42.640 -12.416  -1.211  1.00  0.00     0.059 A 
BRANCH  27  33
HETATM   33  O   UNL     1      40.944 -14.514  -3.649  1.00  0.00    -0.354 OA
HETATM   34  C   UNL     1      39.519 -14.518  -3.640  1.00  0.00     0.210 C 
ENDBRANCH  27  33
BRANCH  29  35
HETATM   35  O   UNL     1      42.622  -9.909  -3.862  1.00  0.00    -0.354 OA
HETATM   36  C   UNL     1      42.533  -9.858  -5.281  1.00  0.00     0.210 C 
ENDBRANCH  29  35
ENDBRANCH  22  26
ENDBRANCH   1  20
TORSDOF 7
ENDMDL
MODEL 3
REMARK VINA RESULT:      -6.9      1.750      4.031
REMARK  7 active torsions:
REMARK  status: ('A' for Active; 'I' for Inactive)
REMARK    1  A    between atoms: C_2  and  N_3 
REMARK    2  A    between atoms: C_8  and  C_9 
REMARK    3  A    between atoms: C_9  and  N_10 
REMARK       I    between atoms: N_10  and  C_11 
REMARK       I    between atoms: C_11  and  N_12 
REMARK    4  A    between atoms: N_12  and  C_13 
REMARK    5  A    between atoms: C_14  and  O_15 
REMARK    6  A    between atoms: C_18  and  O_19 
REMARK    7  A    between atoms: C_26  and  N_27 
ROOT
HETATM    1  C   UNL     1      40.112 -15.203   1.602  1.00  0.00     0.118 C 
HETATM    2  C   UNL     1      38.636 -14.827   1.723  1.00  0.00     0.037 C 
ENDROOT
BRANCH   1   3
HETATM    3  C   UNL     1      40.951 -14.653   2.748  1.00  0.00     0.006 C 
HETATM    4  C   UNL     1      40.656 -13.427   3.486  1.00  0.00    -0.031 C 
HETATM    5  C   UNL     1      41.670 -13.100   4.368  1.00  0.00     0.017 C 
HETATM    6  C   UNL     1      39.416 -12.573   3.409  1.00  0.00     0.068 C 
HETATM    7  C   UNL     1      41.693 -11.905   5.259  1.00  0.00     0.281 C 
HETATM    8  S   UNL     1      42.945 -14.205   4.343  1.00  0.00    -0.074 SA
HETATM    9  N   UNL     1      40.286 -11.359   5.471  1.00  0.00    -0.067 N 
HETATM   10  H   UNL     1      40.399 -10.408   5.845  1.00  0.00     0.280 HD
HETATM   11  C   UNL     1      39.589 -11.213   4.115  1.00  0.00     0.240 C 
HETATM   12  C   UNL     1      42.123 -15.221   3.248  1.00  0.00     0.089 C 
BRANCH   9  13
HETATM   13  C   UNL     1      39.459 -12.137   6.473  1.00  0.00     0.231 C 
HETATM   14  C   UNL     1      39.511 -11.493   7.847  1.00  0.00     0.034 C 
ENDBRANCH   9  13
BRANCH  12  15
HETATM   15  N   UNL     1      42.688 -16.495   3.016  1.00  0.00    -0.327 N 
HETATM   16  C   UNL     1      42.169 -17.728   3.389  1.00  0.00     0.097 A 
HETATM   17  C   UNL     1      42.990 -18.738   2.939  1.00  0.00     0.019 A 
HETATM   18  C   UNL     1      44.043 -18.130   2.234  1.00  0.00     0.019 A 
HETATM   19  C   UNL     1      43.828 -16.770   2.278  1.00  0.00     0.097 A 
ENDBRANCH  12  15
ENDBRANCH   1   3
BRANCH   1  20
HETATM   20  N   UNL     1      40.669 -14.726   0.342  1.00  0.00    -0.334 N 
HETATM   21  C   UNL     1      41.347 -15.599  -0.477  1.00  0.00     0.321 C 
HETATM   22  N   UNL     1      41.582 -15.147  -1.746  1.00  0.00    -0.306 N 
HETATM   23  O   UNL     1      41.633 -16.746  -0.157  1.00  0.00    -0.247 OA
HETATM   24  H   UNL     1      41.681 -15.889  -2.434  1.00  0.00     0.171 HD
HETATM   25  H   UNL     1      40.075 -14.111  -0.195  1.00  0.00     0.165 HD
BRANCH  22  26
HETATM   26  C   UNL     1      41.668 -13.834  -2.247  1.00  0.00     0.071 A 
HETATM   27  C   UNL     1      40.942 -13.504  -3.405  1.00  0.00     0.097 A 
HETATM   28  C   UNL     1      41.019 -12.209  -3.933  1.00  0.00     0.077 A 
HETATM   29  C   UNL     1      41.812 -11.232  -3.313  1.00  0.00     0.092 A 
HETATM   30  C   UNL     1      42.553 -11.586  -2.176  1.00  0.00     0.069 A 
HETATM   31 CL   UNL     1      43.578 -10.453  -1.360  1.00  0.00    -0.081 Cl
HETATM   32  C   UNL     1      42.491 -12.878  -1.656  1.00  0.00     0.059 A 
BRANCH  27  33
HETATM   33  O   UNL     1      40.187 -14.518  -3.942  1.00  0.00    -0.354 OA
HETATM   34  C   UNL     1      38.804 -14.529  -3.595  1.00  0.00     0.210 C 
ENDBRANCH  27  33
BRANCH  29  35
HETATM   35  O   UNL     1      41.935  -9.939  -3.745  1.00  0.00    -0.354 OA
HETATM   36  C   UNL     1      42.445  -9.720  -5.055  1.00  0.00     0.210 C 
ENDBRANCH  29  35
ENDBRANCH  22  26
ENDBRANCH   1  20
TORSDOF 7
ENDMDL
MODEL 4
REMARK VINA RESULT:      -6.8      5.724     10.030
REMARK  7 active torsions:
REMARK  status: ('A' for Active; 'I' for Inactive)
REMARK    1  A    between atoms: C_2  and  N_3 
REMARK    2  A    between atoms: C_8  and  C_9 
REMARK    3  A    between atoms: C_9  and  N_10 
REMARK       I    between atoms: N_10  and  C_11 
REMARK       I    between atoms: C_11  and  N_12 
REMARK    4  A    between atoms: N_12  and  C_13 
REMARK    5  A    between atoms: C_14  and  O_15 
REMARK    6  A    between atoms: C_18  and  O_19 
REMARK    7  A    between atoms: C_26  and  N_27 
ROOT
HETATM    1  C   UNL     1      44.244 -14.171   7.083  1.00  0.00     0.118 C 
HETATM    2  C   UNL     1      45.471 -13.723   6.292  1.00  0.00     0.037 C 
ENDROOT
BRANCH   1   3
HETATM    3  C   UNL     1      43.128 -14.692   6.187  1.00  0.00     0.006 C 
HETATM    4  C   UNL     1      42.291 -13.861   5.326  1.00  0.00    -0.031 C 
HETATM    5  C   UNL     1      41.268 -14.587   4.745  1.00  0.00     0.017 C 
HETATM    6  C   UNL     1      42.456 -12.398   5.004  1.00  0.00     0.068 C 
HETATM    7  C   UNL     1      40.227 -14.041   3.828  1.00  0.00     0.281 C 
HETATM    8  S   UNL     1      41.283 -16.215   5.189  1.00  0.00    -0.074 SA
HETATM    9  N   UNL     1      40.691 -12.732   3.200  1.00  0.00    -0.067 N 
HETATM   10  H   UNL     1      39.850 -12.281   2.817  1.00  0.00     0.280 HD
HETATM   11  C   UNL     1      41.221 -11.804   4.297  1.00  0.00     0.240 C 
HETATM   12  C   UNL     1      42.731 -16.024   6.069  1.00  0.00     0.089 C 
BRANCH   9  13
HETATM   13  C   UNL     1      41.666 -12.900   2.054  1.00  0.00     0.231 C 
HETATM   14  C   UNL     1      41.228 -14.011   1.117  1.00  0.00     0.034 C 
ENDBRANCH   9  13
BRANCH  12  15
HETATM   15  N   UNL     1      43.359 -17.205   6.523  1.00  0.00    -0.327 N 
HETATM   16  C   UNL     1      43.346 -17.727   7.810  1.00  0.00     0.097 A 
HETATM   17  C   UNL     1      44.034 -18.919   7.840  1.00  0.00     0.019 A 
HETATM   18  C   UNL     1      44.470 -19.177   6.529  1.00  0.00     0.019 A 
HETATM   19  C   UNL     1      44.033 -18.133   5.744  1.00  0.00     0.097 A 
ENDBRANCH  12  15
ENDBRANCH   1   3
BRANCH   1  20
HETATM   20  N   UNL     1      43.721 -13.078   7.895  1.00  0.00    -0.334 N 
HETATM   21  C   UNL     1      44.546 -12.442   8.794  1.00  0.00     0.321 C 
HETATM   22  N   UNL     1      44.065 -11.265   9.297  1.00  0.00    -0.306 N 
HETATM   23  O   UNL     1      45.680 -12.821   9.059  1.00  0.00    -0.247 OA
HETATM   24  H   UNL     1      44.792 -10.619   9.596  1.00  0.00     0.171 HD
HETATM   25  H   UNL     1      43.132 -12.415   7.411  1.00  0.00     0.165 HD
BRANCH  22  26
HETATM   26  C   UNL     1      42.743 -10.798   9.426  1.00  0.00     0.071 A 
HETATM   27  C   UNL     1      42.088 -10.958  10.659  1.00  0.00     0.097 A 
HETATM   28  C   UNL     1      40.767 -10.515  10.812  1.00  0.00     0.077 A 
HETATM   29  C   UNL     1      40.092  -9.905   9.745  1.00  0.00     0.092 A 
HETATM   30  C   UNL     1      40.750  -9.780   8.512  1.00  0.00     0.069 A 
HETATM   31 CL   UNL     1      39.986  -9.064   7.132  1.00  0.00    -0.081 Cl
HETATM   32  C   UNL     1      42.058 -10.234   8.351  1.00  0.00     0.059 A 
BRANCH  27  33
HETATM   33  O   UNL     1      42.825 -11.557  11.650  1.00  0.00    -0.354 OA
HETATM   34  C   UNL     1      42.874 -10.877  12.902  1.00  0.00     0.210 C 
ENDBRANCH  27  33
BRANCH  29  35
HETATM   35  O   UNL     1      38.811  -9.426   9.805  1.00  0.00    -0.354 OA
HETATM   36  C   UNL     1      38.279  -9.106  11.084  1.00  0.00     0.210 C 
ENDBRANCH  29  35
ENDBRANCH  22  26
ENDBRANCH   1  20
TORSDOF 7
ENDMDL
MODEL 5
REMARK VINA RESULT:      -6.7      5.919     10.104
REMARK  7 active torsions:
REMARK  status: ('A' for Active; 'I' for Inactive)
REMARK    1  A    between atoms: C_2  and  N_3 
REMARK    2  A    between atoms: C_8  and  C_9 
REMARK    3  A    between atoms: C_9  and  N_10 
REMARK       I    between atoms: N_10  and  C_11 
REMARK       I    between atoms: C_11  and  N_12 
REMARK    4  A    between atoms: N_12  and  C_13 
REMARK    5  A    between atoms: C_14  and  O_15 
REMARK    6  A    between atoms: C_18  and  O_19 
REMARK    7  A    between atoms: C_26  and  N_27 
ROOT
HETATM    1  C   UNL     1      44.337 -14.289   7.149  1.00  0.00     0.118 C 
HETATM    2  C   UNL     1      45.411 -13.796   6.180  1.00  0.00     0.037 C 
ENDROOT
BRANCH   1   3
HETATM    3  C   UNL     1      43.107 -14.829   6.432  1.00  0.00     0.006 C 
HETATM    4  C   UNL     1      42.247 -14.050   5.545  1.00  0.00    -0.031 C 
HETATM    5  C   UNL     1      41.126 -14.761   5.159  1.00  0.00     0.017 C 
HETATM    6  C   UNL     1      42.478 -12.658   5.016  1.00  0.00     0.068 C 
HETATM    7  C   UNL     1      40.040 -14.254   4.272  1.00  0.00     0.281 C 
HETATM    8  S   UNL     1      41.075 -16.315   5.814  1.00  0.00    -0.074 SA
HETATM    9  N   UNL     1      40.527 -13.077   3.435  1.00  0.00    -0.067 N 
HETATM   10  H   UNL     1      39.685 -12.613   3.072  1.00  0.00     0.280 HD
HETATM   11  C   UNL     1      41.223 -12.062   4.347  1.00  0.00     0.240 C 
HETATM   12  C   UNL     1      42.611 -16.130   6.529  1.00  0.00     0.089 C 
BRANCH   9  13
HETATM   13  C   UNL     1      41.372 -13.467   2.241  1.00  0.00     0.231 C 
HETATM   14  C   UNL     1      41.518 -12.310   1.269  1.00  0.00     0.034 C 
ENDBRANCH   9  13
BRANCH  12  15
HETATM   15  N   UNL     1      43.200 -17.290   7.080  1.00  0.00    -0.327 N 
HETATM   16  C   UNL     1      43.585 -17.496   8.398  1.00  0.00     0.097 A 
HETATM   17  C   UNL     1      44.075 -18.774   8.549  1.00  0.00     0.019 A 
HETATM   18  C   UNL     1      43.968 -19.407   7.299  1.00  0.00     0.019 A 
HETATM   19  C   UNL     1      43.418 -18.493   6.428  1.00  0.00     0.097 A 
ENDBRANCH  12  15
ENDBRANCH   1   3
BRANCH   1  20
HETATM   20  N   UNL     1      43.923 -13.222   8.053  1.00  0.00    -0.334 N 
HETATM   21  C   UNL     1      44.869 -12.388   8.602  1.00  0.00     0.321 C 
HETATM   22  N   UNL     1      44.378 -11.260   9.198  1.00  0.00    -0.306 N 
HETATM   23  O   UNL     1      46.076 -12.561   8.483  1.00  0.00    -0.247 OA
HETATM   24  H   UNL     1      45.037 -10.485   9.215  1.00  0.00     0.171 HD
HETATM   25  H   UNL     1      43.101 -12.706   7.774  1.00  0.00     0.165 HD
BRANCH  22  26
HETATM   26  C   UNL     1      43.109 -10.995   9.749  1.00  0.00     0.071 A 
HETATM   27  C   UNL     1      42.115 -10.447   8.920  1.00  0.00     0.097 A 
HETATM   28  C   UNL     1      40.848 -10.160   9.444  1.00  0.00     0.077 A 
HETATM   29  C   UNL     1      40.558 -10.423  10.792  1.00  0.00     0.092 A 
HETATM   30  C   UNL     1      41.570 -10.942  11.612  1.00  0.00     0.069 A 
HETATM   31 CL   UNL     1      41.311 -11.273  13.292  1.00  0.00    -0.081 Cl
HETATM   32  C   UNL     1      42.838 -11.213  11.097  1.00  0.00     0.059 A 
BRANCH  27  33
HETATM   33  O   UNL     1      42.482 -10.230   7.615  1.00  0.00    -0.354 OA
HETATM   34  C   UNL     1      41.591  -9.442   6.830  1.00  0.00     0.210 C 
ENDBRANCH  27  33
BRANCH  29  35
HETATM   35  O   UNL     1      39.347 -10.193  11.387  1.00  0.00    -0.354 OA
HETATM   36  C   UNL     1      38.999  -8.849  11.694  1.00  0.00     0.210 C 
ENDBRANCH  29  35
ENDBRANCH  22  26
ENDBRANCH   1  20
TORSDOF 7
ENDMDL
MODEL 6
REMARK VINA RESULT:      -6.6      3.910      7.930
REMARK  7 active torsions:
REMARK  status: ('A' for Active; 'I' for Inactive)
REMARK    1  A    between atoms: C_2  and  N_3 
REMARK    2  A    between atoms: C_8  and  C_9 
REMARK    3  A    between atoms: C_9  and  N_10 
REMARK       I    between atoms: N_10  and  C_11 
REMARK       I    between atoms: C_11  and  N_12 
REMARK    4  A    between atoms: N_12  and  C_13 
REMARK    5  A    between atoms: C_14  and  O_15 
REMARK    6  A    between atoms: C_18  and  O_19 
REMARK    7  A    between atoms: C_26  and  N_27 
ROOT
HETATM    1  C   UNL     1      42.580 -14.694   4.170  1.00  0.00     0.118 C 
HETATM    2  C   UNL     1      43.937 -13.996   4.238  1.00  0.00     0.037 C 
ENDROOT
BRANCH   1   3
HETATM    3  C   UNL     1      42.206 -15.108   2.753  1.00  0.00     0.006 C 
HETATM    4  C   UNL     1      41.660 -14.211   1.738  1.00  0.00    -0.031 C 
HETATM    5  C   UNL     1      41.278 -14.895   0.598  1.00  0.00     0.017 C 
HETATM    6  C   UNL     1      41.526 -12.711   1.800  1.00  0.00     0.068 C 
HETATM    7  C   UNL     1      40.669 -14.283  -0.618  1.00  0.00     0.281 C 
HETATM    8  S   UNL     1      41.554 -16.556   0.704  1.00  0.00    -0.074 SA
HETATM    9  N   UNL     1      40.971 -12.791  -0.684  1.00  0.00    -0.067 N 
HETATM   10  H   UNL     1      40.311 -12.393  -1.364  1.00  0.00     0.280 HD
HETATM   11  C   UNL     1      40.644 -12.148   0.667  1.00  0.00     0.240 C 
HETATM   12  C   UNL     1      42.310 -16.394   2.224  1.00  0.00     0.089 C 
BRANCH   9  13
HETATM   13  C   UNL     1      42.367 -12.457  -1.168  1.00  0.00     0.231 C 
HETATM   14  C   UNL     1      42.560 -12.871  -2.616  1.00  0.00     0.034 C 
ENDBRANCH   9  13
BRANCH  12  15
HETATM   15  N   UNL     1      42.969 -17.537   2.731  1.00  0.00    -0.327 N 
HETATM   16  C   UNL     1      42.780 -18.140   3.968  1.00  0.00     0.097 A 
HETATM   17  C   UNL     1      43.575 -19.260   4.069  1.00  0.00     0.019 A 
HETATM   18  C   UNL     1      44.264 -19.389   2.851  1.00  0.00     0.019 A 
HETATM   19  C   UNL     1      43.866 -18.343   2.048  1.00  0.00     0.097 A 
ENDBRANCH  12  15
ENDBRANCH   1   3
BRANCH   1  20
HETATM   20  N   UNL     1      41.527 -13.838   4.703  1.00  0.00    -0.334 N 
HETATM   21  C   UNL     1      40.652 -14.335   5.640  1.00  0.00     0.321 C 
HETATM   22  N   UNL     1      39.892 -13.399   6.285  1.00  0.00    -0.306 N 
HETATM   23  O   UNL     1      40.615 -15.513   5.975  1.00  0.00    -0.247 OA
HETATM   24  H   UNL     1      39.587 -13.686   7.212  1.00  0.00     0.171 HD
HETATM   25  H   UNL     1      41.803 -12.893   4.929  1.00  0.00     0.165 HD
BRANCH  22  26
HETATM   26  C   UNL     1      39.504 -12.105   5.888  1.00  0.00     0.071 A 
HETATM   27  C   UNL     1      39.725 -11.034   6.770  1.00  0.00     0.097 A 
HETATM   28  C   UNL     1      39.337  -9.737   6.407  1.00  0.00     0.077 A 
HETATM   29  C   UNL     1      38.734  -9.496   5.164  1.00  0.00     0.092 A 
HETATM   30  C   UNL     1      38.493 -10.581   4.307  1.00  0.00     0.069 A 
HETATM   31 CL   UNL     1      37.730 -10.382   2.765  1.00  0.00    -0.081 Cl
HETATM   32  C   UNL     1      38.864 -11.875   4.672  1.00  0.00     0.059 A 
BRANCH  27  33
HETATM   33  O   UNL     1      40.327 -11.358   7.961  1.00  0.00    -0.354 OA
HETATM   34  C   UNL     1      39.619 -11.002   9.145  1.00  0.00     0.210 C 
ENDBRANCH  27  33
BRANCH  29  35
HETATM   35  O   UNL     1      38.338  -8.265   4.715  1.00  0.00    -0.354 OA
HETATM   36  C   UNL     1      37.185  -7.679   5.308  1.00  0.00     0.210 C 
ENDBRANCH  29  35
ENDBRANCH  22  26
ENDBRANCH   1  20
TORSDOF 7
ENDMDL
MODEL 7
REMARK VINA RESULT:      -6.5      5.198      8.999
REMARK  7 active torsions:
REMARK  status: ('A' for Active; 'I' for Inactive)
REMARK    1  A    between atoms: C_2  and  N_3 
REMARK    2  A    between atoms: C_8  and  C_9 
REMARK    3  A    between atoms: C_9  and  N_10 
REMARK       I    between atoms: N_10  and  C_11 
REMARK       I    between atoms: C_11  and  N_12 
REMARK    4  A    between atoms: N_12  and  C_13 
REMARK    5  A    between atoms: C_14  and  O_15 
REMARK    6  A    between atoms: C_18  and  O_19 
REMARK    7  A    between atoms: C_26  and  N_27 
ROOT
HETATM    1  C   UNL     1      40.013 -14.478   5.452  1.00  0.00     0.118 C 
HETATM    2  C   UNL     1      40.227 -15.772   6.234  1.00  0.00     0.037 C 
ENDROOT
BRANCH   1   3
HETATM    3  C   UNL     1      41.012 -14.310   4.314  1.00  0.00     0.006 C 
HETATM    4  C   UNL     1      40.659 -14.019   2.928  1.00  0.00    -0.031 C 
HETATM    5  C   UNL     1      41.760 -14.070   2.093  1.00  0.00     0.017 C 
HETATM    6  C   UNL     1      39.306 -13.652   2.372  1.00  0.00     0.068 C 
HETATM    7  C   UNL     1      41.745 -13.840   0.620  1.00  0.00     0.281 C 
HETATM    8  S   UNL     1      43.187 -14.446   2.911  1.00  0.00    -0.074 SA
HETATM    9  N   UNL     1      40.505 -13.057   0.206  1.00  0.00    -0.067 N 
HETATM   10  H   UNL     1      40.415 -13.176  -0.811  1.00  0.00     0.280 HD
HETATM   11  C   UNL     1      39.265 -13.703   0.831  1.00  0.00     0.240 C 
HETATM   12  C   UNL     1      42.399 -14.425   4.422  1.00  0.00     0.089 C 
BRANCH   9  13
HETATM   13  C   UNL     1      40.588 -11.569   0.475  1.00  0.00     0.231 C 
HETATM   14  C   UNL     1      42.000 -11.051   0.273  1.00  0.00     0.034 C 
ENDBRANCH   9  13
BRANCH  12  15
HETATM   15  N   UNL     1      43.221 -14.482   5.569  1.00  0.00    -0.327 N 
HETATM   16  C   UNL     1      43.838 -15.603   6.110  1.00  0.00     0.097 A 
HETATM   17  C   UNL     1      44.595 -15.240   7.202  1.00  0.00     0.019 A 
HETATM   18  C   UNL     1      44.480 -13.846   7.339  1.00  0.00     0.019 A 
HETATM   19  C   UNL     1      43.657 -13.406   6.326  1.00  0.00     0.097 A 
ENDBRANCH  12  15
ENDBRANCH   1   3
BRANCH   1  20
HETATM   20  N   UNL     1      40.104 -13.317   6.331  1.00  0.00    -0.334 N 
HETATM   21  C   UNL     1      39.284 -12.234   6.117  1.00  0.00     0.321 C 
HETATM   22  N   UNL     1      39.235 -11.328   7.140  1.00  0.00    -0.306 N 
HETATM   23  O   UNL     1      38.554 -12.119   5.140  1.00  0.00    -0.247 OA
HETATM   24  H   UNL     1      38.368 -10.797   7.176  1.00  0.00     0.171 HD
HETATM   25  H   UNL     1      40.189 -13.521   7.317  1.00  0.00     0.165 HD
BRANCH  22  26
HETATM   26  C   UNL     1      40.166 -11.047   8.158  1.00  0.00     0.071 A 
HETATM   27  C   UNL     1      41.427 -10.542   7.800  1.00  0.00     0.097 A 
HETATM   28  C   UNL     1      42.378 -10.266   8.792  1.00  0.00     0.077 A 
HETATM   29  C   UNL     1      42.079 -10.485  10.145  1.00  0.00     0.092 A 
HETATM   30  C   UNL     1      40.827 -11.017  10.483  1.00  0.00     0.069 A 
HETATM   31 CL   UNL     1      40.381 -11.344  12.125  1.00  0.00    -0.081 Cl
HETATM   32  C   UNL     1      39.884 -11.308   9.498  1.00  0.00     0.059 A 
BRANCH  27  33
HETATM   33  O   UNL     1      41.631 -10.352   6.455  1.00  0.00    -0.354 OA
HETATM   34  C   UNL     1      41.575  -9.005   5.991  1.00  0.00     0.210 C 
ENDBRANCH  27  33
BRANCH  29  35
HETATM   35  O   UNL     1      42.935 -10.229  11.183  1.00  0.00    -0.354 OA
HETATM   36  C   UNL     1      44.017 -11.128  11.391  1.00  0.00     0.210 C 
ENDBRANCH  29  35
ENDBRANCH  22  26
ENDBRANCH   1  20
TORSDOF 7
ENDMDL
MODEL 8
REMARK VINA RESULT:      -6.5      5.179      9.203
REMARK  7 active torsions:
REMARK  status: ('A' for Active; 'I' for Inactive)
REMARK    1  A    between atoms: C_2  and  N_3 
REMARK    2  A    between atoms: C_8  and  C_9 
REMARK    3  A    between atoms: C_9  and  N_10 
REMARK       I    between atoms: N_10  and  C_11 
REMARK       I    between atoms: C_11  and  N_12 
REMARK    4  A    between atoms: N_12  and  C_13 
REMARK    5  A    between atoms: C_14  and  O_15 
REMARK    6  A    between atoms: C_18  and  O_19 
REMARK    7  A    between atoms: C_26  and  N_27 
ROOT
HETATM    1  C   UNL     1      40.136 -14.330   5.447  1.00  0.00     0.118 C 
HETATM    2  C   UNL     1      40.080 -15.642   6.227  1.00  0.00     0.037 C 
ENDROOT
BRANCH   1   3
HETATM    3  C   UNL     1      41.090 -14.394   4.262  1.00  0.00     0.006 C 
HETATM    4  C   UNL     1      40.708 -14.186   2.868  1.00  0.00    -0.031 C 
HETATM    5  C   UNL     1      41.751 -14.453   2.001  1.00  0.00     0.017 C 
HETATM    6  C   UNL     1      39.385 -13.701   2.332  1.00  0.00     0.068 C 
HETATM    7  C   UNL     1      41.691 -14.356   0.515  1.00  0.00     0.281 C 
HETATM    8  S   UNL     1      43.160 -14.933   2.796  1.00  0.00    -0.074 SA
HETATM    9  N   UNL     1      40.539 -13.461   0.075  1.00  0.00    -0.067 N 
HETATM   10  H   UNL     1      40.385 -13.658  -0.922  1.00  0.00     0.280 HD
HETATM   11  C   UNL     1      39.261 -13.884   0.806  1.00  0.00     0.240 C 
HETATM   12  C   UNL     1      42.455 -14.676   4.328  1.00  0.00     0.089 C 
BRANCH   9  13
HETATM   13  C   UNL     1      40.819 -11.978   0.198  1.00  0.00     0.231 C 
HETATM   14  C   UNL     1      42.192 -11.630  -0.350  1.00  0.00     0.034 C 
ENDBRANCH   9  13
BRANCH  12  15
HETATM   15  N   UNL     1      43.320 -14.735   5.443  1.00  0.00    -0.327 N 
HETATM   16  C   UNL     1      44.049 -13.693   6.002  1.00  0.00     0.097 A 
HETATM   17  C   UNL     1      44.734 -14.141   7.109  1.00  0.00     0.019 A 
HETATM   18  C   UNL     1      44.407 -15.497   7.276  1.00  0.00     0.019 A 
HETATM   19  C   UNL     1      43.533 -15.831   6.265  1.00  0.00     0.097 A 
ENDBRANCH  12  15
ENDBRANCH   1   3
BRANCH   1  20
HETATM   20  N   UNL     1      40.537 -13.227   6.312  1.00  0.00    -0.334 N 
HETATM   21  C   UNL     1      40.332 -11.930   5.902  1.00  0.00     0.321 C 
HETATM   22  N   UNL     1      40.470 -10.980   6.877  1.00  0.00    -0.306 N 
HETATM   23  O   UNL     1      39.945 -11.626   4.780  1.00  0.00    -0.247 OA
HETATM   24  H   UNL     1      39.934 -10.134   6.703  1.00  0.00     0.171 HD
HETATM   25  H   UNL     1      40.318 -13.337   7.292  1.00  0.00     0.165 HD
BRANCH  22  26
HETATM   26  C   UNL     1      41.196 -11.007   8.083  1.00  0.00     0.071 A 
HETATM   27  C   UNL     1      40.493 -10.920   9.296  1.00  0.00     0.097 A 
HETATM   28  C   UNL     1      41.191 -10.930  10.511  1.00  0.00     0.077 A 
HETATM   29  C   UNL     1      42.590 -11.033  10.529  1.00  0.00     0.092 A 
HETATM   30  C   UNL     1      43.278 -11.089   9.308  1.00  0.00     0.069 A 
HETATM   31 CL   UNL     1      45.006 -11.190   9.232  1.00  0.00    -0.081 Cl
HETATM   32  C   UNL     1      42.588 -11.063   8.097  1.00  0.00     0.059 A 
BRANCH  27  33
HETATM   33  O   UNL     1      39.127 -10.830   9.187  1.00  0.00    -0.354 OA
HETATM   34  C   UNL     1      38.527  -9.649   9.711  1.00  0.00     0.210 C 
ENDBRANCH  27  33
BRANCH  29  35
HETATM   35  O   UNL     1      43.354 -11.069  11.664  1.00  0.00    -0.354 OA
HETATM   36  C   UNL     1      42.688 -11.003  12.919  1.00  0.00     0.210 C 
ENDBRANCH  29  35
ENDBRANCH  22  26
ENDBRANCH   1  20
TORSDOF 7
ENDMDL
MODEL 9
REMARK VINA RESULT:      -6.4      3.402      7.341
REMARK  7 active torsions:
REMARK  status: ('A' for Active; 'I' for Inactive)
REMARK    1  A    between atoms: C_2  and  N_3 
REMARK    2  A    between atoms: C_8  and  C_9 
REMARK    3  A    between atoms: C_9  and  N_10 
REMARK       I    between atoms: N_10  and  C_11 
REMARK       I    between atoms: C_11  and  N_12 
REMARK    4  A    between atoms: N_12  and  C_13 
REMARK    5  A    between atoms: C_14  and  O_15 
REMARK    6  A    between atoms: C_18  and  O_19 
REMARK    7  A    between atoms: C_26  and  N_27 
ROOT
HETATM    1  C   UNL     1      40.836 -12.413   1.967  1.00  0.00     0.118 C 
HETATM    2  C   UNL     1      39.317 -12.559   2.023  1.00  0.00     0.037 C 
ENDROOT
BRANCH   1   3
HETATM    3  C   UNL     1      41.365 -12.344   0.540  1.00  0.00     0.006 C 
HETATM    4  C   UNL     1      41.370 -13.459  -0.403  1.00  0.00    -0.031 C 
HETATM    5  C   UNL     1      42.045 -13.145  -1.568  1.00  0.00     0.017 C 
HETATM    6  C   UNL     1      40.716 -14.808  -0.249  1.00  0.00     0.068 C 
HETATM    7  C   UNL     1      42.249 -14.060  -2.727  1.00  0.00     0.281 C 
HETATM    8  S   UNL     1      42.659 -11.573  -1.569  1.00  0.00    -0.074 SA
HETATM    9  N   UNL     1      41.225 -15.189  -2.714  1.00  0.00    -0.067 N 
HETATM   10  H   UNL     1      41.585 -15.912  -3.349  1.00  0.00     0.280 HD
HETATM   11  C   UNL     1      41.181 -15.817  -1.318  1.00  0.00     0.240 C 
HETATM   12  C   UNL     1      41.932 -11.224  -0.067  1.00  0.00     0.089 C 
BRANCH   9  13
HETATM   13  C   UNL     1      39.854 -14.793  -3.221  1.00  0.00     0.231 C 
HETATM   14  C   UNL     1      39.191 -15.937  -3.967  1.00  0.00     0.034 C 
ENDBRANCH   9  13
BRANCH  12  15
HETATM   15  N   UNL     1      41.954  -9.874   0.352  1.00  0.00    -0.327 N 
HETATM   16  C   UNL     1      42.936  -8.927   0.093  1.00  0.00     0.097 A 
HETATM   17  C   UNL     1      42.570  -7.713   0.630  1.00  0.00     0.019 A 
HETATM   18  C   UNL     1      41.305  -7.887   1.219  1.00  0.00     0.019 A 
HETATM   19  C   UNL     1      40.944  -9.202   1.020  1.00  0.00     0.097 A 
ENDBRANCH  12  15
ENDBRANCH   1   3
BRANCH   1  20
HETATM   20  N   UNL     1      41.491 -13.518   2.658  1.00  0.00    -0.334 N 
HETATM   21  C   UNL     1      42.122 -13.293   3.859  1.00  0.00     0.321 C 
HETATM   22  N   UNL     1      42.455 -14.417   4.563  1.00  0.00    -0.306 N 
HETATM   23  O   UNL     1      42.287 -12.179   4.340  1.00  0.00    -0.247 OA
HETATM   24  H   UNL     1      42.516 -14.268   5.568  1.00  0.00     0.171 HD
HETATM   25  H   UNL     1      40.981 -14.389   2.672  1.00  0.00     0.165 HD
BRANCH  22  26
HETATM   26  C   UNL     1      42.683 -15.736   4.126  1.00  0.00     0.071 A 
HETATM   27  C   UNL     1      42.490 -16.791   5.034  1.00  0.00     0.097 A 
HETATM   28  C   UNL     1      42.723 -18.112   4.631  1.00  0.00     0.077 A 
HETATM   29  C   UNL     1      43.143 -18.394   3.322  1.00  0.00     0.092 A 
HETATM   30  C   UNL     1      43.360 -17.327   2.437  1.00  0.00     0.069 A 
HETATM   31 CL   UNL     1      43.902 -17.579   0.812  1.00  0.00    -0.081 Cl
HETATM   32  C   UNL     1      43.144 -16.010   2.840  1.00  0.00     0.059 A 
BRANCH  27  33
HETATM   33  O   UNL     1      42.072 -16.426   6.290  1.00  0.00    -0.354 OA
HETATM   34  C   UNL     1      42.669 -17.120   7.382  1.00  0.00     0.210 C 
ENDBRANCH  27  33
BRANCH  29  35
HETATM   35  O   UNL     1      43.378 -19.651   2.833  1.00  0.00    -0.354 OA
HETATM   36  C   UNL     1      44.581 -20.303   3.222  1.00  0.00     0.210 C 
ENDBRANCH  29  35
ENDBRANCH  22  26
ENDBRANCH   1  20
TORSDOF 7
ENDMDL
MODEL 10
REMARK VINA RESULT:      -6.4      2.669      5.354
REMARK  7 active torsions:
REMARK  status: ('A' for Active; 'I' for Inactive)
REMARK    1  A    between atoms: C_2  and  N_3 
REMARK    2  A    between atoms: C_8  and  C_9 
REMARK    3  A    between atoms: C_9  and  N_10 
REMARK       I    between atoms: N_10  and  C_11 
REMARK       I    between atoms: C_11  and  N_12 
REMARK    4  A    between atoms: N_12  and  C_13 
REMARK    5  A    between atoms: C_14  and  O_15 
REMARK    6  A    between atoms: C_18  and  O_19 
REMARK    7  A    between atoms: C_26  and  N_27 
ROOT
HETATM    1  C   UNL     1      43.831 -16.808   1.556  1.00  0.00     0.118 C 
HETATM    2  C   UNL     1      44.067 -18.039   0.682  1.00  0.00     0.037 C 
ENDROOT
BRANCH   1   3
HETATM    3  C   UNL     1      43.546 -17.169   3.008  1.00  0.00     0.006 C 
HETATM    4  C   UNL     1      43.125 -16.222   4.037  1.00  0.00    -0.031 C 
HETATM    5  C   UNL     1      43.087 -16.804   5.290  1.00  0.00     0.017 C 
HETATM    6  C   UNL     1      42.716 -14.781   3.860  1.00  0.00     0.068 C 
HETATM    7  C   UNL     1      42.715 -16.114   6.558  1.00  0.00     0.281 C 
HETATM    8  S   UNL     1      43.529 -18.433   5.271  1.00  0.00    -0.074 SA
HETATM    9  N   UNL     1      41.904 -14.855   6.272  1.00  0.00    -0.067 N 
HETATM   10  H   UNL     1      41.925 -14.297   7.136  1.00  0.00     0.280 HD
HETATM   11  C   UNL     1      42.618 -14.026   5.201  1.00  0.00     0.240 C 
HETATM   12  C   UNL     1      43.661 -18.440   3.571  1.00  0.00     0.089 C 
BRANCH   9  13
HETATM   13  C   UNL     1      40.449 -15.112   5.942  1.00  0.00     0.231 C 
HETATM   14  C   UNL     1      39.721 -13.819   5.622  1.00  0.00     0.034 C 
ENDBRANCH   9  13
BRANCH  12  15
HETATM   15  N   UNL     1      43.823 -19.699   2.951  1.00  0.00    -0.327 N 
HETATM   16  C   UNL     1      44.877 -20.589   3.111  1.00  0.00     0.097 A 
HETATM   17  C   UNL     1      44.645 -21.729   2.375  1.00  0.00     0.019 A 
HETATM   18  C   UNL     1      43.394 -21.571   1.754  1.00  0.00     0.019 A 
HETATM   19  C   UNL     1      42.906 -20.340   2.134  1.00  0.00     0.097 A 
ENDBRANCH  12  15
ENDBRANCH   1   3
BRANCH   1  20
HETATM   20  N   UNL     1      42.721 -16.012   1.044  1.00  0.00    -0.334 N 
HETATM   21  C   UNL     1      41.481 -16.589   0.893  1.00  0.00     0.321 C 
HETATM   22  N   UNL     1      40.452 -15.713   0.684  1.00  0.00    -0.306 N 
HETATM   23  O   UNL     1      41.267 -17.786   1.041  1.00  0.00    -0.247 OA
HETATM   24  H   UNL     1      39.547 -16.064   0.988  1.00  0.00     0.171 HD
HETATM   25  H   UNL     1      42.644 -15.077   1.417  1.00  0.00     0.165 HD
BRANCH  22  26
HETATM   26  C   UNL     1      40.454 -14.406   0.159  1.00  0.00     0.071 A 
HETATM   27  C   UNL     1      40.557 -14.238  -1.232  1.00  0.00     0.097 A 
HETATM   28  C   UNL     1      40.576 -12.949  -1.781  1.00  0.00     0.077 A 
HETATM   29  C   UNL     1      40.486 -11.821  -0.952  1.00  0.00     0.092 A 
HETATM   30  C   UNL     1      40.414 -12.005   0.436  1.00  0.00     0.069 A 
HETATM   31 CL   UNL     1      40.327 -10.671   1.537  1.00  0.00    -0.081 Cl
HETATM   32  C   UNL     1      40.412 -13.286   0.987  1.00  0.00     0.059 A 
BRANCH  27  33
HETATM   33  O   UNL     1      40.632 -15.395  -1.967  1.00  0.00    -0.354 OA
HETATM   34  C   UNL     1      40.103 -15.341  -3.289  1.00  0.00     0.210 C 
ENDBRANCH  27  33
BRANCH  29  35
HETATM   35  O   UNL     1      40.479 -10.526  -1.398  1.00  0.00    -0.354 OA
HETATM   36  C   UNL     1      41.720  -9.945  -1.779  1.00  0.00     0.210 C 
ENDBRANCH  29  35
ENDBRANCH  22  26
ENDBRANCH   1  20
TORSDOF 7
ENDMDL
