MODEL 1
REMARK VINA RESULT:      -9.0      0.000      0.000
REMARK  7 active torsions:
REMARK  status: ('A' for Active; 'I' for Inactive)
REMARK    1  A    between atoms: C_4  and  C_5 
REMARK    2  A    between atoms: C_9  and  C_10 
REMARK       I    between atoms: C_10  and  N_11 
REMARK    3  A    between atoms: N_11  and  N_12 
REMARK       I    between atoms: N_12  and  C_13 
REMARK    4  A    between atoms: C_13  and  C_14 
REMARK    5  A    between atoms: C_14  and  C_15 
REMARK    6  A    between atoms: C_15  and  N_16 
REMARK    7  A    between atoms: C_15  and  C_20 
REMARK       I    between atoms: N_16  and  C_17 
REMARK       I    between atoms: C_17  and  N_18 
ROOT
HETATM    1  N   UNL     1      39.719 -15.573   2.641  1.00  0.00    -0.267 N 
HETATM    2  C   UNL     1      39.828 -14.369   3.307  1.00  0.00     0.238 C 
HETATM    3  O   UNL     1      39.968 -13.296   2.720  1.00  0.00    -0.272 OA
HETATM    4  H   UNL     1      40.053 -16.403   3.152  1.00  0.00     0.190 HD
ENDROOT
BRANCH   1   5
HETATM    5  N   UNL     1      39.920 -15.543   1.250  1.00  0.00    -0.262 N 
HETATM    6  C   UNL     1      41.090 -15.900   0.606  1.00  0.00     0.288 C 
HETATM    7  O   UNL     1      41.261 -15.524  -0.554  1.00  0.00    -0.264 OA
HETATM    8  H   UNL     1      39.259 -14.978   0.717  1.00  0.00     0.190 HD
BRANCH   6   9
HETATM    9  C   UNL     1      42.065 -16.699   1.305  1.00  0.00     0.121 A 
HETATM   10  N   UNL     1      43.158 -16.242   1.976  1.00  0.00    -0.272 N 
HETATM   11  N   UNL     1      43.936 -17.202   2.504  1.00  0.00    -0.174 NA
HETATM   12  H   UNL     1      43.446 -15.275   2.068  1.00  0.00     0.189 HD
HETATM   13  C   UNL     1      43.275 -18.343   2.238  1.00  0.00     0.089 A 
HETATM   14  C   UNL     1      42.089 -18.064   1.506  1.00  0.00     0.071 A 
BRANCH  13  15
HETATM   15  C   UNL     1      43.781 -19.653   2.654  1.00  0.00    -0.006 A 
HETATM   16  C   UNL     1      44.403 -19.820   3.900  1.00  0.00     0.014 A 
HETATM   17  C   UNL     1      44.859 -21.079   4.304  1.00  0.00     0.001 A 
HETATM   18  C   UNL     1      44.696 -22.182   3.470  1.00  0.00     0.000 A 
HETATM   19  C   UNL     1      44.084 -22.029   2.227  1.00  0.00     0.001 A 
HETATM   20  C   UNL     1      43.633 -20.771   1.820  1.00  0.00     0.014 A 
ENDBRANCH  13  15
ENDBRANCH   6   9
ENDBRANCH   1   5
BRANCH   2  21
HETATM   21  C   UNL     1      39.788 -14.454   4.822  1.00  0.00     0.134 C 
BRANCH  21  22
HETATM   22  C   UNL     1      41.030 -13.895   5.541  1.00  0.00     0.127 C 
BRANCH  22  23
HETATM   23  N   UNL     1      41.579 -12.622   5.060  1.00  0.00    -0.339 N 
HETATM   24  C   UNL     1      41.081 -11.378   5.249  1.00  0.00     0.292 C 
HETATM   25  N   UNL     1      41.751 -10.430   4.556  1.00  0.00    -0.254 NA
HETATM   26  O   UNL     1      40.114 -11.095   5.939  1.00  0.00    -0.254 OA
HETATM   27  H   UNL     1      42.106 -10.671   3.643  1.00  0.00     0.128 HD
HETATM   28  H   UNL     1      41.287  -9.526   4.575  1.00  0.00     0.128 HD
HETATM   29  H   UNL     1      42.465 -12.676   4.578  1.00  0.00     0.164 HD
ENDBRANCH  22  23
BRANCH  22  30
HETATM   30  C   UNL     1      42.119 -14.931   5.800  1.00  0.00    -0.035 A 
HETATM   31  C   UNL     1      41.900 -16.311   5.655  1.00  0.00     0.011 A 
HETATM   32  C   UNL     1      42.913 -17.231   5.937  1.00  0.00     0.024 A 
HETATM   33  C   UNL     1      44.158 -16.782   6.371  1.00  0.00     0.034 A 
HETATM   34 CL   UNL     1      45.402 -17.917   6.722  1.00  0.00    -0.084 Cl
HETATM   35  C   UNL     1      44.399 -15.420   6.521  1.00  0.00     0.024 A 
HETATM   36  C   UNL     1      43.386 -14.501   6.235  1.00  0.00     0.011 A 
ENDBRANCH  22  30
ENDBRANCH  21  22
ENDBRANCH   2  21
TORSDOF 7
ENDMDL
MODEL 2
REMARK VINA RESULT:      -9.0      2.214      2.842
REMARK  7 active torsions:
REMARK  status: ('A' for Active; 'I' for Inactive)
REMARK    1  A    between atoms: C_4  and  C_5 
REMARK    2  A    between atoms: C_9  and  C_10 
REMARK       I    between atoms: C_10  and  N_11 
REMARK    3  A    between atoms: N_11  and  N_12 
REMARK       I    between atoms: N_12  and  C_13 
REMARK    4  A    between atoms: C_13  and  C_14 
REMARK    5  A    between atoms: C_14  and  C_15 
REMARK    6  A    between atoms: C_15  and  N_16 
REMARK    7  A    between atoms: C_15  and  C_20 
REMARK       I    between atoms: N_16  and  C_17 
REMARK       I    between atoms: C_17  and  N_18 
ROOT
HETATM    1  N   UNL     1      41.810 -14.685   4.002  1.00  0.00    -0.267 N 
HETATM    2  C   UNL     1      42.932 -13.900   3.822  1.00  0.00     0.238 C 
HETATM    3  O   UNL     1      43.073 -13.157   2.851  1.00  0.00    -0.272 OA
HETATM    4  H   UNL     1      41.951 -15.557   4.532  1.00  0.00     0.190 HD
ENDROOT
BRANCH   1   5
HETATM    5  N   UNL     1      40.885 -14.712   2.944  1.00  0.00    -0.262 N 
HETATM    6  C   UNL     1      41.039 -15.419   1.767  1.00  0.00     0.288 C 
HETATM    7  O   UNL     1      40.344 -15.110   0.799  1.00  0.00    -0.264 OA
HETATM    8  H   UNL     1      40.194 -13.962   2.939  1.00  0.00     0.190 HD
BRANCH   6   9
HETATM    9  C   UNL     1      42.000 -16.492   1.710  1.00  0.00     0.121 A 
HETATM   10  N   UNL     1      43.075 -16.576   0.877  1.00  0.00    -0.272 N 
HETATM   11  N   UNL     1      43.789 -17.708   0.993  1.00  0.00    -0.174 NA
HETATM   12  H   UNL     1      43.344 -15.899   0.173  1.00  0.00     0.189 HD
HETATM   13  C   UNL     1      43.203 -18.363   2.012  1.00  0.00     0.089 A 
HETATM   14  C   UNL     1      42.091 -17.622   2.496  1.00  0.00     0.071 A 
BRANCH  13  15
HETATM   15  C   UNL     1      43.682 -19.665   2.481  1.00  0.00    -0.006 A 
HETATM   16  C   UNL     1      43.522 -20.816   1.695  1.00  0.00     0.014 A 
HETATM   17  C   UNL     1      44.007 -22.051   2.136  1.00  0.00     0.001 A 
HETATM   18  C   UNL     1      44.658 -22.149   3.363  1.00  0.00     0.000 A 
HETATM   19  C   UNL     1      44.819 -21.015   4.156  1.00  0.00     0.001 A 
HETATM   20  C   UNL     1      44.330 -19.780   3.720  1.00  0.00     0.014 A 
ENDBRANCH  13  15
ENDBRANCH   6   9
ENDBRANCH   1   5
BRANCH   2  21
HETATM   21  C   UNL     1      43.999 -14.030   4.893  1.00  0.00     0.134 C 
BRANCH  21  22
HETATM   22  C   UNL     1      43.480 -14.425   6.289  1.00  0.00     0.127 C 
BRANCH  22  23
HETATM   23  N   UNL     1      43.954 -13.646   7.437  1.00  0.00    -0.339 N 
HETATM   24  C   UNL     1      45.215 -13.227   7.694  1.00  0.00     0.292 C 
HETATM   25  N   UNL     1      45.343 -12.649   8.909  1.00  0.00    -0.254 NA
HETATM   26  O   UNL     1      46.175 -13.360   6.951  1.00  0.00    -0.254 OA
HETATM   27  H   UNL     1      44.796 -13.021   9.672  1.00  0.00     0.128 HD
HETATM   28  H   UNL     1      46.311 -12.475   9.164  1.00  0.00     0.128 HD
HETATM   29  H   UNL     1      43.245 -13.337   8.086  1.00  0.00     0.164 HD
ENDBRANCH  22  23
BRANCH  22  30
HETATM   30  C   UNL     1      43.506 -15.926   6.560  1.00  0.00    -0.035 A 
HETATM   31  C   UNL     1      42.348 -16.657   6.876  1.00  0.00     0.011 A 
HETATM   32  C   UNL     1      42.419 -18.025   7.153  1.00  0.00     0.024 A 
HETATM   33  C   UNL     1      43.648 -18.678   7.121  1.00  0.00     0.034 A 
HETATM   34 CL   UNL     1      43.733 -20.361   7.467  1.00  0.00    -0.084 Cl
HETATM   35  C   UNL     1      44.808 -17.975   6.809  1.00  0.00     0.024 A 
HETATM   36  C   UNL     1      44.736 -16.608   6.528  1.00  0.00     0.011 A 
ENDBRANCH  22  30
ENDBRANCH  21  22
ENDBRANCH   2  21
TORSDOF 7
ENDMDL
MODEL 3
REMARK VINA RESULT:      -8.9      2.638      4.974
REMARK  7 active torsions:
REMARK  status: ('A' for Active; 'I' for Inactive)
REMARK    1  A    between atoms: C_4  and  C_5 
REMARK    2  A    between atoms: C_9  and  C_10 
REMARK       I    between atoms: C_10  and  N_11 
REMARK    3  A    between atoms: N_11  and  N_12 
REMARK       I    between atoms: N_12  and  C_13 
REMARK    4  A    between atoms: C_13  and  C_14 
REMARK    5  A    between atoms: C_14  and  C_15 
REMARK    6  A    between atoms: C_15  and  N_16 
REMARK    7  A    between atoms: C_15  and  C_20 
REMARK       I    between atoms: N_16  and  C_17 
REMARK       I    between atoms: C_17  and  N_18 
ROOT
HETATM    1  N   UNL     1      41.872 -14.288   5.933  1.00  0.00    -0.267 N 
HETATM    2  C   UNL     1      41.552 -13.913   4.643  1.00  0.00     0.238 C 
HETATM    3  O   UNL     1      42.320 -13.268   3.930  1.00  0.00    -0.272 OA
HETATM    4  H   UNL     1      41.078 -14.400   6.579  1.00  0.00     0.190 HD
ENDROOT
BRANCH   1   5
HETATM    5  N   UNL     1      43.069 -13.773   6.459  1.00  0.00    -0.262 N 
HETATM    6  C   UNL     1      43.951 -14.468   7.265  1.00  0.00     0.288 C 
HETATM    7  O   UNL     1      44.772 -13.833   7.925  1.00  0.00    -0.264 OA
HETATM    8  H   UNL     1      43.153 -12.757   6.461  1.00  0.00     0.190 HD
BRANCH   6   9
HETATM    9  C   UNL     1      43.884 -15.908   7.305  1.00  0.00     0.121 A 
HETATM   10  N   UNL     1      43.383 -16.670   8.317  1.00  0.00    -0.272 N 
HETATM   11  N   UNL     1      43.483 -17.996   8.125  1.00  0.00    -0.174 NA
HETATM   12  H   UNL     1      42.997 -16.330   9.190  1.00  0.00     0.189 HD
HETATM   13  C   UNL     1      43.998 -18.110   6.888  1.00  0.00     0.089 A 
HETATM   14  C   UNL     1      44.244 -16.824   6.337  1.00  0.00     0.071 A 
BRANCH  13  15
HETATM   15  C   UNL     1      44.266 -19.412   6.271  1.00  0.00    -0.006 A 
HETATM   16  C   UNL     1      45.000 -19.505   5.080  1.00  0.00     0.014 A 
HETATM   17  C   UNL     1      45.277 -20.751   4.509  1.00  0.00     0.001 A 
HETATM   18  C   UNL     1      44.826 -21.916   5.126  1.00  0.00     0.000 A 
HETATM   19  C   UNL     1      44.092 -21.839   6.307  1.00  0.00     0.001 A 
HETATM   20  C   UNL     1      43.809 -20.593   6.874  1.00  0.00     0.014 A 
ENDBRANCH  13  15
ENDBRANCH   6   9
ENDBRANCH   1   5
BRANCH   2  21
HETATM   21  C   UNL     1      40.174 -14.330   4.164  1.00  0.00     0.134 C 
BRANCH  21  22
HETATM   22  C   UNL     1      40.123 -14.898   2.733  1.00  0.00     0.127 C 
BRANCH  22  23
HETATM   23  N   UNL     1      38.809 -15.015   2.094  1.00  0.00    -0.339 N 
HETATM   24  C   UNL     1      38.291 -14.244   1.110  1.00  0.00     0.292 C 
HETATM   25  N   UNL     1      36.997 -14.529   0.839  1.00  0.00    -0.254 NA
HETATM   26  O   UNL     1      38.881 -13.353   0.518  1.00  0.00    -0.254 OA
HETATM   27  H   UNL     1      36.399 -14.792   1.608  1.00  0.00     0.128 HD
HETATM   28  H   UNL     1      36.567 -13.854   0.214  1.00  0.00     0.128 HD
HETATM   29  H   UNL     1      38.243 -15.800   2.384  1.00  0.00     0.164 HD
ENDBRANCH  22  23
BRANCH  22  30
HETATM   30  C   UNL     1      40.978 -16.144   2.527  1.00  0.00    -0.035 A 
HETATM   31  C   UNL     1      41.257 -17.050   3.564  1.00  0.00     0.011 A 
HETATM   32  C   UNL     1      42.074 -18.162   3.344  1.00  0.00     0.024 A 
HETATM   33  C   UNL     1      42.626 -18.380   2.084  1.00  0.00     0.034 A 
HETATM   34 CL   UNL     1      43.637 -19.746   1.817  1.00  0.00    -0.084 Cl
HETATM   35  C   UNL     1      42.364 -17.497   1.041  1.00  0.00     0.024 A 
HETATM   36  C   UNL     1      41.543 -16.387   1.262  1.00  0.00     0.011 A 
ENDBRANCH  22  30
ENDBRANCH  21  22
ENDBRANCH   2  21
TORSDOF 7
ENDMDL
MODEL 4
REMARK VINA RESULT:      -8.8      1.175      1.347
REMARK  7 active torsions:
REMARK  status: ('A' for Active; 'I' for Inactive)
REMARK    1  A    between atoms: C_4  and  C_5 
REMARK    2  A    between atoms: C_9  and  C_10 
REMARK       I    between atoms: C_10  and  N_11 
REMARK    3  A    between atoms: N_11  and  N_12 
REMARK       I    between atoms: N_12  and  C_13 
REMARK    4  A    between atoms: C_13  and  C_14 
REMARK    5  A    between atoms: C_14  and  C_15 
REMARK    6  A    between atoms: C_15  and  N_16 
REMARK    7  A    between atoms: C_15  and  C_20 
REMARK       I    between atoms: N_16  and  C_17 
REMARK       I    between atoms: C_17  and  N_18 
ROOT
HETATM    1  N   UNL     1      40.500 -14.522   2.725  1.00  0.00    -0.267 N 
HETATM    2  C   UNL     1      41.142 -13.327   2.982  1.00  0.00     0.238 C 
HETATM    3  O   UNL     1      41.440 -12.530   2.092  1.00  0.00    -0.272 OA
HETATM    4  H   UNL     1      40.690 -15.287   3.388  1.00  0.00     0.190 HD
ENDROOT
BRANCH   1   5
HETATM    5  N   UNL     1      40.324 -14.864   1.373  1.00  0.00    -0.262 N 
HETATM    6  C   UNL     1      41.180 -15.659   0.634  1.00  0.00     0.288 C 
HETATM    7  O   UNL     1      41.108 -15.617  -0.594  1.00  0.00    -0.264 OA
HETATM    8  H   UNL     1      39.675 -14.279   0.848  1.00  0.00     0.190 HD
BRANCH   6   9
HETATM    9  C   UNL     1      42.120 -16.510   1.319  1.00  0.00     0.121 A 
HETATM   10  N   UNL     1      43.212 -16.108   2.028  1.00  0.00    -0.272 N 
HETATM   11  N   UNL     1      43.955 -17.108   2.531  1.00  0.00    -0.174 NA
HETATM   12  H   UNL     1      43.522 -15.153   2.163  1.00  0.00     0.189 HD
HETATM   13  C   UNL     1      43.271 -18.220   2.208  1.00  0.00     0.089 A 
HETATM   14  C   UNL     1      42.107 -17.882   1.466  1.00  0.00     0.071 A 
BRANCH  13  15
HETATM   15  C   UNL     1      43.736 -19.558   2.581  1.00  0.00    -0.006 A 
HETATM   16  C   UNL     1      44.391 -19.776   3.802  1.00  0.00     0.014 A 
HETATM   17  C   UNL     1      44.808 -21.061   4.166  1.00  0.00     0.001 A 
HETATM   18  C   UNL     1      44.571 -22.138   3.316  1.00  0.00     0.000 A 
HETATM   19  C   UNL     1      43.926 -21.935   2.098  1.00  0.00     0.001 A 
HETATM   20  C   UNL     1      43.515 -20.651   1.731  1.00  0.00     0.014 A 
ENDBRANCH  13  15
ENDBRANCH   6   9
ENDBRANCH   1   5
BRANCH   2  21
HETATM   21  C   UNL     1      41.483 -13.067   4.437  1.00  0.00     0.134 C 
BRANCH  21  22
HETATM   22  C   UNL     1      41.002 -14.148   5.424  1.00  0.00     0.127 C 
BRANCH  22  23
HETATM   23  N   UNL     1      40.272 -13.705   6.616  1.00  0.00    -0.339 N 
HETATM   24  C   UNL     1      39.275 -12.792   6.689  1.00  0.00     0.292 C 
HETATM   25  N   UNL     1      38.910 -12.508   7.959  1.00  0.00    -0.254 NA
HETATM   26  O   UNL     1      38.749 -12.235   5.738  1.00  0.00    -0.254 OA
HETATM   27  H   UNL     1      39.629 -12.491   8.667  1.00  0.00     0.128 HD
HETATM   28  H   UNL     1      38.275 -11.718   8.020  1.00  0.00     0.128 HD
HETATM   29  H   UNL     1      40.502 -14.178   7.478  1.00  0.00     0.164 HD
ENDBRANCH  22  23
BRANCH  22  30
HETATM   30  C   UNL     1      42.054 -15.204   5.751  1.00  0.00    -0.035 A 
HETATM   31  C   UNL     1      41.815 -16.580   5.603  1.00  0.00     0.011 A 
HETATM   32  C   UNL     1      42.792 -17.518   5.948  1.00  0.00     0.024 A 
HETATM   33  C   UNL     1      44.020 -17.091   6.447  1.00  0.00     0.034 A 
HETATM   34 CL   UNL     1      45.219 -18.247   6.876  1.00  0.00    -0.084 Cl
HETATM   35  C   UNL     1      44.279 -15.732   6.602  1.00  0.00     0.024 A 
HETATM   36  C   UNL     1      43.303 -14.795   6.253  1.00  0.00     0.011 A 
ENDBRANCH  22  30
ENDBRANCH  21  22
ENDBRANCH   2  21
TORSDOF 7
ENDMDL
MODEL 5
REMARK VINA RESULT:      -8.5      5.096      9.258
REMARK  7 active torsions:
REMARK  status: ('A' for Active; 'I' for Inactive)
REMARK    1  A    between atoms: C_4  and  C_5 
REMARK    2  A    between atoms: C_9  and  C_10 
REMARK       I    between atoms: C_10  and  N_11 
REMARK    3  A    between atoms: N_11  and  N_12 
REMARK       I    between atoms: N_12  and  C_13 
REMARK    4  A    between atoms: C_13  and  C_14 
REMARK    5  A    between atoms: C_14  and  C_15 
REMARK    6  A    between atoms: C_15  and  N_16 
REMARK    7  A    between atoms: C_15  and  C_20 
REMARK       I    between atoms: N_16  and  C_17 
REMARK       I    between atoms: C_17  and  N_18 
ROOT
HETATM    1  N   UNL     1      44.624 -13.896   7.738  1.00  0.00    -0.267 N 
HETATM    2  C   UNL     1      44.193 -14.103   6.443  1.00  0.00     0.238 C 
HETATM    3  O   UNL     1      44.829 -13.717   5.463  1.00  0.00    -0.272 OA
HETATM    4  H   UNL     1      43.886 -13.826   8.453  1.00  0.00     0.190 HD
ENDROOT
BRANCH   1   5
HETATM    5  N   UNL     1      45.764 -13.090   7.901  1.00  0.00    -0.262 N 
HETATM    6  C   UNL     1      45.786 -11.857   8.525  1.00  0.00     0.288 C 
HETATM    7  O   UNL     1      46.742 -11.110   8.319  1.00  0.00    -0.264 OA
HETATM    8  H   UNL     1      46.554 -13.309   7.295  1.00  0.00     0.190 HD
BRANCH   6   9
HETATM    9  C   UNL     1      44.698 -11.488   9.397  1.00  0.00     0.121 A 
HETATM   10  N   UNL     1      43.382 -11.396   9.058  1.00  0.00    -0.272 N 
HETATM   11  N   UNL     1      42.574 -10.985  10.049  1.00  0.00    -0.174 NA
HETATM   12  H   UNL     1      42.985 -11.563   8.141  1.00  0.00     0.189 HD
HETATM   13  C   UNL     1      43.388 -10.883  11.115  1.00  0.00     0.089 A 
HETATM   14  C   UNL     1      44.721 -11.209  10.748  1.00  0.00     0.071 A 
BRANCH  13  15
HETATM   15  C   UNL     1      42.901 -10.463  12.432  1.00  0.00    -0.006 A 
HETATM   16  C   UNL     1      43.614  -9.528  13.196  1.00  0.00     0.014 A 
HETATM   17  C   UNL     1      43.131  -9.109  14.440  1.00  0.00     0.001 A 
HETATM   18  C   UNL     1      41.930  -9.617  14.929  1.00  0.00     0.000 A 
HETATM   19  C   UNL     1      41.214 -10.550  14.183  1.00  0.00     0.001 A 
HETATM   20  C   UNL     1      41.699 -10.974  12.942  1.00  0.00     0.014 A 
ENDBRANCH  13  15
ENDBRANCH   6   9
ENDBRANCH   1   5
BRANCH   2  21
HETATM   21  C   UNL     1      42.863 -14.820   6.303  1.00  0.00     0.134 C 
BRANCH  21  22
HETATM   22  C   UNL     1      42.661 -15.568   4.972  1.00  0.00     0.127 C 
BRANCH  22  23
HETATM   23  N   UNL     1      41.318 -15.558   4.383  1.00  0.00    -0.339 N 
HETATM   24  C   UNL     1      40.903 -14.912   3.268  1.00  0.00     0.292 C 
HETATM   25  N   UNL     1      39.568 -14.994   3.074  1.00  0.00    -0.254 NA
HETATM   26  O   UNL     1      41.618 -14.283   2.502  1.00  0.00    -0.254 OA
HETATM   27  H   UNL     1      38.969 -14.982   3.886  1.00  0.00     0.128 HD
HETATM   28  H   UNL     1      39.239 -14.386   2.330  1.00  0.00     0.128 HD
HETATM   29  H   UNL     1      40.632 -16.149   4.832  1.00  0.00     0.164 HD
ENDBRANCH  22  23
BRANCH  22  30
HETATM   30  C   UNL     1      43.297 -16.954   4.934  1.00  0.00    -0.035 A 
HETATM   31  C   UNL     1      43.983 -17.501   6.031  1.00  0.00     0.011 A 
HETATM   32  C   UNL     1      44.583 -18.761   5.944  1.00  0.00     0.024 A 
HETATM   33  C   UNL     1      44.507 -19.487   4.758  1.00  0.00     0.034 A 
HETATM   34 CL   UNL     1      45.251 -21.034   4.652  1.00  0.00    -0.084 Cl
HETATM   35  C   UNL     1      43.832 -18.965   3.659  1.00  0.00     0.024 A 
HETATM   36  C   UNL     1      43.229 -17.708   3.747  1.00  0.00     0.011 A 
ENDBRANCH  22  30
ENDBRANCH  21  22
ENDBRANCH   2  21
TORSDOF 7
ENDMDL
MODEL 6
REMARK VINA RESULT:      -8.5      1.729      2.233
REMARK  7 active torsions:
REMARK  status: ('A' for Active; 'I' for Inactive)
REMARK    1  A    between atoms: C_4  and  C_5 
REMARK    2  A    between atoms: C_9  and  C_10 
REMARK       I    between atoms: C_10  and  N_11 
REMARK    3  A    between atoms: N_11  and  N_12 
REMARK       I    between atoms: N_12  and  C_13 
REMARK    4  A    between atoms: C_13  and  C_14 
REMARK    5  A    between atoms: C_14  and  C_15 
REMARK    6  A    between atoms: C_15  and  N_16 
REMARK    7  A    between atoms: C_15  and  C_20 
REMARK       I    between atoms: N_16  and  C_17 
REMARK       I    between atoms: C_17  and  N_18 
ROOT
HETATM    1  N   UNL     1      39.928 -15.772   3.643  1.00  0.00    -0.267 N 
HETATM    2  C   UNL     1      40.200 -14.667   4.425  1.00  0.00     0.238 C 
HETATM    3  O   UNL     1      40.110 -13.515   4.000  1.00  0.00    -0.272 OA
HETATM    4  H   UNL     1      40.435 -16.633   3.889  1.00  0.00     0.190 HD
ENDROOT
BRANCH   1   5
HETATM    5  N   UNL     1      39.678 -15.532   2.280  1.00  0.00    -0.262 N 
HETATM    6  C   UNL     1      40.580 -15.747   1.255  1.00  0.00     0.288 C 
HETATM    7  O   UNL     1      40.379 -15.201   0.170  1.00  0.00    -0.264 OA
HETATM    8  H   UNL     1      38.889 -14.921   2.074  1.00  0.00     0.190 HD
BRANCH   6   9
HETATM    9  C   UNL     1      41.717 -16.602   1.484  1.00  0.00     0.121 A 
HETATM   10  N   UNL     1      43.028 -16.272   1.314  1.00  0.00    -0.272 N 
HETATM   11  N   UNL     1      43.895 -17.271   1.552  1.00  0.00    -0.174 NA
HETATM   12  H   UNL     1      43.387 -15.381   0.992  1.00  0.00     0.189 HD
HETATM   13  C   UNL     1      43.119 -18.283   1.980  1.00  0.00     0.089 A 
HETATM   14  C   UNL     1      41.753 -17.894   1.968  1.00  0.00     0.071 A 
BRANCH  13  15
HETATM   15  C   UNL     1      43.674 -19.584   2.362  1.00  0.00    -0.006 A 
HETATM   16  C   UNL     1      44.509 -19.707   3.483  1.00  0.00     0.014 A 
HETATM   17  C   UNL     1      45.014 -20.956   3.860  1.00  0.00     0.001 A 
HETATM   18  C   UNL     1      44.687 -22.092   3.124  1.00  0.00     0.000 A 
HETATM   19  C   UNL     1      43.862 -21.984   2.007  1.00  0.00     0.001 A 
HETATM   20  C   UNL     1      43.362 -20.735   1.625  1.00  0.00     0.014 A 
ENDBRANCH  13  15
ENDBRANCH   6   9
ENDBRANCH   1   5
BRANCH   2  21
HETATM   21  C   UNL     1      40.644 -14.965   5.845  1.00  0.00     0.134 C 
BRANCH  21  22
HETATM   22  C   UNL     1      42.161 -15.153   6.030  1.00  0.00     0.127 C 
BRANCH  22  23
HETATM   23  N   UNL     1      43.043 -14.649   4.972  1.00  0.00    -0.339 N 
HETATM   24  C   UNL     1      44.246 -14.045   5.110  1.00  0.00     0.292 C 
HETATM   25  N   UNL     1      44.739 -13.574   3.943  1.00  0.00    -0.254 NA
HETATM   26  O   UNL     1      44.849 -13.891   6.161  1.00  0.00    -0.254 OA
HETATM   27  H   UNL     1      44.087 -13.198   3.270  1.00  0.00     0.128 HD
HETATM   28  H   UNL     1      45.560 -12.990   4.068  1.00  0.00     0.128 HD
HETATM   29  H   UNL     1      42.743 -14.824   4.024  1.00  0.00     0.164 HD
ENDBRANCH  22  23
BRANCH  22  30
HETATM   30  C   UNL     1      42.563 -16.548   6.500  1.00  0.00    -0.035 A 
HETATM   31  C   UNL     1      43.269 -16.769   7.694  1.00  0.00     0.011 A 
HETATM   32  C   UNL     1      43.649 -18.060   8.073  1.00  0.00     0.024 A 
HETATM   33  C   UNL     1      43.331 -19.144   7.260  1.00  0.00     0.034 A 
HETATM   34 CL   UNL     1      43.805 -20.731   7.725  1.00  0.00    -0.084 Cl
HETATM   35  C   UNL     1      42.631 -18.950   6.073  1.00  0.00     0.024 A 
HETATM   36  C   UNL     1      42.247 -17.660   5.697  1.00  0.00     0.011 A 
ENDBRANCH  22  30
ENDBRANCH  21  22
ENDBRANCH   2  21
TORSDOF 7
ENDMDL
MODEL 7
REMARK VINA RESULT:      -8.2      5.052      9.042
REMARK  7 active torsions:
REMARK  status: ('A' for Active; 'I' for Inactive)
REMARK    1  A    between atoms: C_4  and  C_5 
REMARK    2  A    between atoms: C_9  and  C_10 
REMARK       I    between atoms: C_10  and  N_11 
REMARK    3  A    between atoms: N_11  and  N_12 
REMARK       I    between atoms: N_12  and  C_13 
REMARK    4  A    between atoms: C_13  and  C_14 
REMARK    5  A    between atoms: C_14  and  C_15 
REMARK    6  A    between atoms: C_15  and  N_16 
REMARK    7  A    between atoms: C_15  and  C_20 
REMARK       I    between atoms: N_16  and  C_17 
REMARK       I    between atoms: C_17  and  N_18 
ROOT
HETATM    1  N   UNL     1      43.787 -14.276   7.119  1.00  0.00    -0.267 N 
HETATM    2  C   UNL     1      43.594 -15.590   6.743  1.00  0.00     0.238 C 
HETATM    3  O   UNL     1      44.495 -16.428   6.774  1.00  0.00    -0.272 OA
HETATM    4  H   UNL     1      43.179 -13.583   6.660  1.00  0.00     0.190 HD
ENDROOT
BRANCH   1   5
HETATM    5  N   UNL     1      45.108 -13.891   7.406  1.00  0.00    -0.262 N 
HETATM    6  C   UNL     1      45.474 -12.766   8.120  1.00  0.00     0.288 C 
HETATM    7  O   UNL     1      46.631 -12.359   8.025  1.00  0.00    -0.264 OA
HETATM    8  H   UNL     1      45.832 -14.322   6.830  1.00  0.00     0.190 HD
BRANCH   6   9
HETATM    9  C   UNL     1      44.497 -12.112   8.954  1.00  0.00     0.121 A 
HETATM   10  N   UNL     1      43.306 -11.587   8.550  1.00  0.00    -0.272 N 
HETATM   11  N   UNL     1      42.597 -10.987   9.521  1.00  0.00    -0.174 NA
HETATM   12  H   UNL     1      42.946 -11.573   7.603  1.00  0.00     0.189 HD
HETATM   13  C   UNL     1      43.320 -11.203  10.635  1.00  0.00     0.089 A 
HETATM   14  C   UNL     1      44.505 -11.921  10.320  1.00  0.00     0.071 A 
BRANCH  13  15
HETATM   15  C   UNL     1      42.893 -10.714  11.948  1.00  0.00    -0.006 A 
HETATM   16  C   UNL     1      41.702 -11.169  12.532  1.00  0.00     0.014 A 
HETATM   17  C   UNL     1      41.313 -10.721  13.798  1.00  0.00     0.001 A 
HETATM   18  C   UNL     1      42.112  -9.817  14.494  1.00  0.00     0.000 A 
HETATM   19  C   UNL     1      43.295  -9.352  13.924  1.00  0.00     0.001 A 
HETATM   20  C   UNL     1      43.682  -9.795  12.656  1.00  0.00     0.014 A 
ENDBRANCH  13  15
ENDBRANCH   6   9
ENDBRANCH   1   5
BRANCH   2  21
HETATM   21  C   UNL     1      42.196 -15.935   6.263  1.00  0.00     0.134 C 
BRANCH  21  22
HETATM   22  C   UNL     1      41.532 -14.872   5.368  1.00  0.00     0.127 C 
BRANCH  22  23
HETATM   23  N   UNL     1      40.265 -14.291   5.825  1.00  0.00    -0.339 N 
HETATM   24  C   UNL     1      40.054 -13.058   6.339  1.00  0.00     0.292 C 
HETATM   25  N   UNL     1      38.793 -12.883   6.793  1.00  0.00    -0.254 NA
HETATM   26  O   UNL     1      40.890 -12.171   6.430  1.00  0.00    -0.254 OA
HETATM   27  H   UNL     1      38.331 -13.669   7.227  1.00  0.00     0.128 HD
HETATM   28  H   UNL     1      38.677 -12.018   7.314  1.00  0.00     0.128 HD
HETATM   29  H   UNL     1      39.442 -14.861   5.689  1.00  0.00     0.164 HD
ENDBRANCH  22  23
BRANCH  22  30
HETATM   30  C   UNL     1      41.497 -15.239   3.887  1.00  0.00    -0.035 A 
HETATM   31  C   UNL     1      42.643 -15.643   3.181  1.00  0.00     0.011 A 
HETATM   32  C   UNL     1      42.577 -15.937   1.816  1.00  0.00     0.024 A 
HETATM   33  C   UNL     1      41.364 -15.828   1.141  1.00  0.00     0.034 A 
HETATM   34 CL   UNL     1      41.286 -16.185  -0.540  1.00  0.00    -0.084 Cl
HETATM   35  C   UNL     1      40.216 -15.432   1.819  1.00  0.00     0.024 A 
HETATM   36  C   UNL     1      40.282 -15.141   3.184  1.00  0.00     0.011 A 
ENDBRANCH  22  30
ENDBRANCH  21  22
ENDBRANCH   2  21
TORSDOF 7
ENDMDL
MODEL 8
REMARK VINA RESULT:      -8.2      4.139      6.586
REMARK  7 active torsions:
REMARK  status: ('A' for Active; 'I' for Inactive)
REMARK    1  A    between atoms: C_4  and  C_5 
REMARK    2  A    between atoms: C_9  and  C_10 
REMARK       I    between atoms: C_10  and  N_11 
REMARK    3  A    between atoms: N_11  and  N_12 
REMARK       I    between atoms: N_12  and  C_13 
REMARK    4  A    between atoms: C_13  and  C_14 
REMARK    5  A    between atoms: C_14  and  C_15 
REMARK    6  A    between atoms: C_15  and  N_16 
REMARK    7  A    between atoms: C_15  and  C_20 
REMARK       I    between atoms: N_16  and  C_17 
REMARK       I    between atoms: C_17  and  N_18 
ROOT
HETATM    1  N   UNL     1      42.297 -13.702   1.657  1.00  0.00    -0.267 N 
HETATM    2  C   UNL     1      42.087 -12.764   0.667  1.00  0.00     0.238 C 
HETATM    3  O   UNL     1      42.455 -11.594   0.772  1.00  0.00    -0.272 OA
HETATM    4  H   UNL     1      41.609 -14.467   1.707  1.00  0.00     0.190 HD
ENDROOT
BRANCH   1   5
HETATM    5  N   UNL     1      42.829 -13.229   2.869  1.00  0.00    -0.262 N 
HETATM    6  C   UNL     1      42.864 -13.937   4.056  1.00  0.00     0.288 C 
HETATM    7  O   UNL     1      43.040 -13.319   5.105  1.00  0.00    -0.264 OA
HETATM    8  H   UNL     1      42.952 -12.219   2.936  1.00  0.00     0.190 HD
BRANCH   6   9
HETATM    9  C   UNL     1      42.698 -15.369   4.027  1.00  0.00     0.121 A 
HETATM   10  N   UNL     1      41.634 -16.072   4.506  1.00  0.00    -0.272 N 
HETATM   11  N   UNL     1      41.748 -17.407   4.399  1.00  0.00    -0.174 NA
HETATM   12  H   UNL     1      40.814 -15.687   4.960  1.00  0.00     0.189 HD
HETATM   13  C   UNL     1      42.907 -17.585   3.740  1.00  0.00     0.089 A 
HETATM   14  C   UNL     1      43.519 -16.330   3.474  1.00  0.00     0.071 A 
BRANCH  13  15
HETATM   15  C   UNL     1      43.416 -18.917   3.402  1.00  0.00    -0.006 A 
HETATM   16  C   UNL     1      43.094 -19.519   2.177  1.00  0.00     0.014 A 
HETATM   17  C   UNL     1      43.604 -20.778   1.847  1.00  0.00     0.001 A 
HETATM   18  C   UNL     1      44.444 -21.446   2.736  1.00  0.00     0.000 A 
HETATM   19  C   UNL     1      44.768 -20.861   3.958  1.00  0.00     0.001 A 
HETATM   20  C   UNL     1      44.253 -19.605   4.291  1.00  0.00     0.014 A 
ENDBRANCH  13  15
ENDBRANCH   6   9
ENDBRANCH   1   5
BRANCH   2  21
HETATM   21  C   UNL     1      41.346 -13.263  -0.560  1.00  0.00     0.134 C 
BRANCH  21  22
HETATM   22  C   UNL     1      39.927 -13.799  -0.293  1.00  0.00     0.127 C 
BRANCH  22  23
HETATM   23  N   UNL     1      39.805 -15.110   0.355  1.00  0.00    -0.339 N 
HETATM   24  C   UNL     1      39.622 -15.373   1.669  1.00  0.00     0.292 C 
HETATM   25  N   UNL     1      39.691 -16.692   1.959  1.00  0.00    -0.254 NA
HETATM   26  O   UNL     1      39.438 -14.541   2.544  1.00  0.00    -0.254 OA
HETATM   27  H   UNL     1      40.350 -17.257   1.443  1.00  0.00     0.128 HD
HETATM   28  H   UNL     1      39.707 -16.876   2.958  1.00  0.00     0.128 HD
HETATM   29  H   UNL     1      39.802 -15.910  -0.262  1.00  0.00     0.164 HD
ENDBRANCH  22  23
BRANCH  22  30
HETATM   30  C   UNL     1      38.972 -13.648  -1.473  1.00  0.00    -0.035 A 
HETATM   31  C   UNL     1      38.116 -12.544  -1.616  1.00  0.00     0.011 A 
HETATM   32  C   UNL     1      37.230 -12.459  -2.694  1.00  0.00     0.024 A 
HETATM   33  C   UNL     1      37.187 -13.481  -3.640  1.00  0.00     0.034 A 
HETATM   34 CL   UNL     1      36.092 -13.377  -4.962  1.00  0.00    -0.084 Cl
HETATM   35  C   UNL     1      38.026 -14.584  -3.519  1.00  0.00     0.024 A 
HETATM   36  C   UNL     1      38.914 -14.665  -2.444  1.00  0.00     0.011 A 
ENDBRANCH  22  30
ENDBRANCH  21  22
ENDBRANCH   2  21
TORSDOF 7
ENDMDL
MODEL 9
REMARK VINA RESULT:      -8.1      3.574      5.981
REMARK  7 active torsions:
REMARK  status: ('A' for Active; 'I' for Inactive)
REMARK    1  A    between atoms: C_4  and  C_5 
REMARK    2  A    between atoms: C_9  and  C_10 
REMARK       I    between atoms: C_10  and  N_11 
REMARK    3  A    between atoms: N_11  and  N_12 
REMARK       I    between atoms: N_12  and  C_13 
REMARK    4  A    between atoms: C_13  and  C_14 
REMARK    5  A    between atoms: C_14  and  C_15 
REMARK    6  A    between atoms: C_15  and  N_16 
REMARK    7  A    between atoms: C_15  and  C_20 
REMARK       I    between atoms: N_16  and  C_17 
REMARK       I    between atoms: C_17  and  N_18 
ROOT
HETATM    1  N   UNL     1      39.854 -15.246   2.826  1.00  0.00    -0.267 N 
HETATM    2  C   UNL     1      39.844 -14.173   1.958  1.00  0.00     0.238 C 
HETATM    3  O   UNL     1      40.104 -13.025   2.319  1.00  0.00    -0.272 OA
HETATM    4  H   UNL     1      39.223 -16.024   2.588  1.00  0.00     0.190 HD
ENDROOT
BRANCH   1   5
HETATM    5  N   UNL     1      40.036 -14.951   4.189  1.00  0.00    -0.262 N 
HETATM    6  C   UNL     1      40.852 -15.654   5.055  1.00  0.00     0.288 C 
HETATM    7  O   UNL     1      40.680 -15.519   6.266  1.00  0.00    -0.264 OA
HETATM    8  H   UNL     1      39.326 -14.355   4.613  1.00  0.00     0.190 HD
BRANCH   6   9
HETATM    9  C   UNL     1      41.877 -16.514   4.517  1.00  0.00     0.121 A 
HETATM   10  N   UNL     1      43.101 -16.129   4.058  1.00  0.00    -0.272 N 
HETATM   11  N   UNL     1      43.854 -17.125   3.563  1.00  0.00    -0.174 NA
HETATM   12  H   UNL     1      43.457 -15.181   4.020  1.00  0.00     0.189 HD
HETATM   13  C   UNL     1      43.122 -18.231   3.785  1.00  0.00     0.089 A 
HETATM   14  C   UNL     1      41.887 -17.888   4.398  1.00  0.00     0.071 A 
BRANCH  13  15
HETATM   15  C   UNL     1      43.587 -19.565   3.397  1.00  0.00    -0.006 A 
HETATM   16  C   UNL     1      43.296 -20.087   2.128  1.00  0.00     0.014 A 
HETATM   17  C   UNL     1      43.766 -21.349   1.752  1.00  0.00     0.001 A 
HETATM   18  C   UNL     1      44.533 -22.101   2.639  1.00  0.00     0.000 A 
HETATM   19  C   UNL     1      44.825 -21.597   3.905  1.00  0.00     0.001 A 
HETATM   20  C   UNL     1      44.351 -20.338   4.283  1.00  0.00     0.014 A 
ENDBRANCH  13  15
ENDBRANCH   6   9
ENDBRANCH   1   5
BRANCH   2  21
HETATM   21  C   UNL     1      39.466 -14.495   0.524  1.00  0.00     0.134 C 
BRANCH  21  22
HETATM   22  C   UNL     1      40.636 -14.485  -0.478  1.00  0.00     0.127 C 
BRANCH  22  23
HETATM   23  N   UNL     1      41.847 -15.229  -0.118  1.00  0.00    -0.339 N 
HETATM   24  C   UNL     1      41.934 -16.473   0.407  1.00  0.00     0.292 C 
HETATM   25  N   UNL     1      43.195 -16.814   0.755  1.00  0.00    -0.254 NA
HETATM   26  O   UNL     1      40.997 -17.235   0.593  1.00  0.00    -0.254 OA
HETATM   27  H   UNL     1      43.796 -16.093   1.127  1.00  0.00     0.128 HD
HETATM   28  H   UNL     1      43.238 -17.679   1.285  1.00  0.00     0.128 HD
HETATM   29  H   UNL     1      42.725 -14.780  -0.339  1.00  0.00     0.164 HD
ENDBRANCH  22  23
BRANCH  22  30
HETATM   30  C   UNL     1      40.953 -13.107  -1.051  1.00  0.00    -0.035 A 
HETATM   31  C   UNL     1      39.979 -12.104  -1.190  1.00  0.00     0.011 A 
HETATM   32  C   UNL     1      40.303 -10.866  -1.752  1.00  0.00     0.024 A 
HETATM   33  C   UNL     1      41.603 -10.617  -2.185  1.00  0.00     0.034 A 
HETATM   34 CL   UNL     1      41.997  -9.095  -2.882  1.00  0.00    -0.084 Cl
HETATM   35  C   UNL     1      42.584 -11.595  -2.056  1.00  0.00     0.024 A 
HETATM   36  C   UNL     1      42.261 -12.832  -1.491  1.00  0.00     0.011 A 
ENDBRANCH  22  30
ENDBRANCH  21  22
ENDBRANCH   2  21
TORSDOF 7
ENDMDL
MODEL 10
REMARK VINA RESULT:      -8.0      2.532      3.350
REMARK  7 active torsions:
REMARK  status: ('A' for Active; 'I' for Inactive)
REMARK    1  A    between atoms: C_4  and  C_5 
REMARK    2  A    between atoms: C_9  and  C_10 
REMARK       I    between atoms: C_10  and  N_11 
REMARK    3  A    between atoms: N_11  and  N_12 
REMARK       I    between atoms: N_12  and  C_13 
REMARK    4  A    between atoms: C_13  and  C_14 
REMARK    5  A    between atoms: C_14  and  C_15 
REMARK    6  A    between atoms: C_15  and  N_16 
REMARK    7  A    between atoms: C_15  and  C_20 
REMARK       I    between atoms: N_16  and  C_17 
REMARK       I    between atoms: C_17  and  N_18 
ROOT
HETATM    1  N   UNL     1      42.360 -13.366   2.031  1.00  0.00    -0.267 N 
HETATM    2  C   UNL     1      41.539 -13.142   3.117  1.00  0.00     0.238 C 
HETATM    3  O   UNL     1      40.325 -13.347   3.085  1.00  0.00    -0.272 OA
HETATM    4  H   UNL     1      43.204 -12.779   1.975  1.00  0.00     0.190 HD
ENDROOT
BRANCH   1   5
HETATM    5  N   UNL     1      41.727 -13.708   0.823  1.00  0.00    -0.262 N 
HETATM    6  C   UNL     1      41.611 -14.989   0.317  1.00  0.00     0.288 C 
HETATM    7  O   UNL     1      41.342 -15.129  -0.875  1.00  0.00    -0.264 OA
HETATM    8  H   UNL     1      41.581 -12.942   0.166  1.00  0.00     0.190 HD
BRANCH   6   9
HETATM    9  C   UNL     1      41.804 -16.114   1.197  1.00  0.00     0.121 A 
HETATM   10  N   UNL     1      41.028 -16.452   2.264  1.00  0.00    -0.272 N 
HETATM   11  N   UNL     1      41.453 -17.525   2.952  1.00  0.00    -0.174 NA
HETATM   12  H   UNL     1      40.212 -15.951   2.597  1.00  0.00     0.189 HD
HETATM   13  C   UNL     1      42.513 -17.965   2.251  1.00  0.00     0.089 A 
HETATM   14  C   UNL     1      42.750 -17.117   1.135  1.00  0.00     0.071 A 
BRANCH  13  15
HETATM   15  C   UNL     1      43.283 -19.143   2.656  1.00  0.00    -0.006 A 
HETATM   16  C   UNL     1      43.333 -20.284   1.841  1.00  0.00     0.014 A 
HETATM   17  C   UNL     1      44.092 -21.396   2.219  1.00  0.00     0.001 A 
HETATM   18  C   UNL     1      44.810 -21.378   3.412  1.00  0.00     0.000 A 
HETATM   19  C   UNL     1      44.766 -20.254   4.234  1.00  0.00     0.001 A 
HETATM   20  C   UNL     1      44.003 -19.144   3.860  1.00  0.00     0.014 A 
ENDBRANCH  13  15
ENDBRANCH   6   9
ENDBRANCH   1   5
BRANCH   2  21
HETATM   21  C   UNL     1      42.227 -12.599   4.356  1.00  0.00     0.134 C 
BRANCH  21  22
HETATM   22  C   UNL     1      42.457 -13.628   5.480  1.00  0.00     0.127 C 
BRANCH  22  23
HETATM   23  N   UNL     1      41.319 -14.459   5.885  1.00  0.00    -0.339 N 
HETATM   24  C   UNL     1      41.308 -15.789   6.134  1.00  0.00     0.292 C 
HETATM   25  N   UNL     1      40.065 -16.276   6.350  1.00  0.00    -0.254 NA
HETATM   26  O   UNL     1      42.286 -16.520   6.145  1.00  0.00    -0.254 OA
HETATM   27  H   UNL     1      39.302 -15.881   5.822  1.00  0.00     0.128 HD
HETATM   28  H   UNL     1      40.040 -17.291   6.384  1.00  0.00     0.128 HD
HETATM   29  H   UNL     1      40.451 -13.970   6.052  1.00  0.00     0.164 HD
ENDBRANCH  22  23
BRANCH  22  30
HETATM   30  C   UNL     1      43.226 -13.079   6.677  1.00  0.00    -0.035 A 
HETATM   31  C   UNL     1      44.425 -13.653   7.133  1.00  0.00     0.011 A 
HETATM   32  C   UNL     1      45.081 -13.143   8.257  1.00  0.00     0.024 A 
HETATM   33  C   UNL     1      44.545 -12.054   8.940  1.00  0.00     0.034 A 
HETATM   34 CL   UNL     1      45.352 -11.431  10.325  1.00  0.00    -0.084 Cl
HETATM   35  C   UNL     1      43.360 -11.469   8.506  1.00  0.00     0.024 A 
HETATM   36  C   UNL     1      42.706 -11.977   7.381  1.00  0.00     0.011 A 
ENDBRANCH  22  30
ENDBRANCH  21  22
ENDBRANCH   2  21
TORSDOF 7
ENDMDL
