MODEL 1
REMARK VINA RESULT:     -10.5      0.000      0.000
REMARK  4 active torsions:
REMARK  status: ('A' for Active; 'I' for Inactive)
REMARK    1  A    between atoms: C_6  and  C_7 
REMARK    2  A    between atoms: C_15  and  C_16 
REMARK       I    between atoms: C_16  and  N_17 
REMARK    3  A    between atoms: N_17  and  N_18 
REMARK       I    between atoms: N_18  and  C_19 
REMARK       I    between atoms: C_19  and  N_20 
REMARK    4  A    between atoms: N_20  and  C_21 
ROOT
HETATM    1  C   UNL     1      39.401 -13.928   2.601  1.00  0.00     0.001 A 
HETATM    2  C   UNL     1      40.538 -14.026   3.401  1.00  0.00     0.015 A 
HETATM    3  C   UNL     1      41.312 -15.216   3.439  1.00  0.00     0.009 A 
HETATM    4  C   UNL     1      40.918 -16.304   2.639  1.00  0.00     0.068 A 
HETATM    5  N   UNL     1      41.598 -17.461   2.588  1.00  0.00    -0.248 NA
HETATM    6  C   UNL     1      42.716 -17.620   3.336  1.00  0.00     0.070 A 
HETATM    7  C   UNL     1      43.165 -16.626   4.187  1.00  0.00     0.050 A 
HETATM    8  C   UNL     1      42.479 -15.408   4.213  1.00  0.00     0.048 A 
HETATM    9  C   UNL     1      39.782 -16.181   1.849  1.00  0.00     0.032 A 
HETATM   10  C   UNL     1      39.021 -15.011   1.823  1.00  0.00     0.002 A 
ENDROOT
BRANCH   8  11
HETATM   11  C   UNL     1      43.035 -14.320   5.058  1.00  0.00     0.271 C 
HETATM   12  N   UNL     1      43.085 -14.609   6.406  1.00  0.00    -0.262 N 
HETATM   13  H   UNL     1      42.666 -15.437   6.823  1.00  0.00     0.190 HD
HETATM   14  O   UNL     1      43.430 -13.268   4.568  1.00  0.00    -0.266 OA
BRANCH  12  15
HETATM   15  N   UNL     1      43.505 -13.618   7.297  1.00  0.00    -0.249 N 
HETATM   16  C   UNL     1      44.850 -13.460   7.503  1.00  0.00     0.341 C 
HETATM   17  N   UNL     1      45.246 -12.572   8.455  1.00  0.00    -0.286 N 
HETATM   18  O   UNL     1      45.697 -14.052   6.830  1.00  0.00    -0.245 OA
HETATM   19  H   UNL     1      46.240 -12.444   8.558  1.00  0.00     0.172 HD
HETATM   20  H   UNL     1      42.862 -13.378   8.055  1.00  0.00     0.192 HD
BRANCH  17  21
HETATM   21  C   UNL     1      44.415 -11.818   9.229  1.00  0.00     0.174 A 
HETATM   22  S   UNL     1      44.436 -12.201  10.890  1.00  0.00    -0.062 SA
HETATM   23  C   UNL     1      43.295 -10.949  11.167  1.00  0.00     0.072 A 
HETATM   24  C   UNL     1      42.975 -10.343   9.970  1.00  0.00     0.126 A 
HETATM   25  N   UNL     1      43.618 -10.848   8.855  1.00  0.00    -0.236 NA
ENDBRANCH  17  21
ENDBRANCH  12  15
ENDBRANCH   8  11
BRANCH   6  26
HETATM   26  C   UNL     1      43.386 -18.926   3.191  1.00  0.00     0.014 A 
HETATM   27  C   UNL     1      44.302 -19.452   4.125  1.00  0.00     0.046 A 
HETATM   28 CL   UNL     1      44.800 -18.581   5.539  1.00  0.00    -0.083 Cl
HETATM   29  C   UNL     1      44.898 -20.705   3.924  1.00  0.00     0.025 A 
HETATM   30  C   UNL     1      44.609 -21.450   2.783  1.00  0.00     0.002 A 
HETATM   31  C   UNL     1      43.727 -20.943   1.836  1.00  0.00     0.001 A 
HETATM   32  C   UNL     1      43.126 -19.698   2.039  1.00  0.00     0.015 A 
ENDBRANCH   6  26
TORSDOF 4
ENDMDL
MODEL 2
REMARK VINA RESULT:     -10.1      4.610      7.713
REMARK  4 active torsions:
REMARK  status: ('A' for Active; 'I' for Inactive)
REMARK    1  A    between atoms: C_6  and  C_7 
REMARK    2  A    between atoms: C_15  and  C_16 
REMARK       I    between atoms: C_16  and  N_17 
REMARK    3  A    between atoms: N_17  and  N_18 
REMARK       I    between atoms: N_18  and  C_19 
REMARK       I    between atoms: C_19  and  N_20 
REMARK    4  A    between atoms: N_20  and  C_21 
ROOT
HETATM    1  C   UNL     1      42.605 -13.768   4.703  1.00  0.00     0.001 A 
HETATM    2  C   UNL     1      42.217 -14.560   3.624  1.00  0.00     0.015 A 
HETATM    3  C   UNL     1      42.617 -15.919   3.526  1.00  0.00     0.009 A 
HETATM    4  C   UNL     1      43.408 -16.466   4.553  1.00  0.00     0.068 A 
HETATM    5  N   UNL     1      43.814 -17.745   4.562  1.00  0.00    -0.248 NA
HETATM    6  C   UNL     1      43.467 -18.572   3.547  1.00  0.00     0.070 A 
HETATM    7  C   UNL     1      42.725 -18.121   2.469  1.00  0.00     0.050 A 
HETATM    8  C   UNL     1      42.270 -16.799   2.476  1.00  0.00     0.048 A 
HETATM    9  C   UNL     1      43.780 -15.656   5.618  1.00  0.00     0.032 A 
HETATM   10  C   UNL     1      43.391 -14.318   5.704  1.00  0.00     0.002 A 
ENDROOT
BRANCH   8  11
HETATM   11  C   UNL     1      41.392 -16.365   1.359  1.00  0.00     0.271 C 
HETATM   12  N   UNL     1      42.049 -16.141   0.167  1.00  0.00    -0.262 N 
HETATM   13  H   UNL     1      43.062 -16.144   0.069  1.00  0.00     0.190 HD
HETATM   14  O   UNL     1      40.181 -16.243   1.509  1.00  0.00    -0.266 OA
BRANCH  12  15
HETATM   15  N   UNL     1      41.328 -15.641  -0.920  1.00  0.00    -0.249 N 
HETATM   16  C   UNL     1      41.365 -14.292  -1.158  1.00  0.00     0.341 C 
HETATM   17  N   UNL     1      40.570 -13.799  -2.146  1.00  0.00    -0.286 N 
HETATM   18  O   UNL     1      42.119 -13.533  -0.544  1.00  0.00    -0.245 OA
HETATM   19  H   UNL     1      40.647 -12.811  -2.327  1.00  0.00     0.172 HD
HETATM   20  H   UNL     1      40.494 -16.164  -1.200  1.00  0.00     0.192 HD
BRANCH  17  21
HETATM   21  C   UNL     1      39.733 -14.536  -2.930  1.00  0.00     0.174 A 
HETATM   22  S   UNL     1      38.082 -14.137  -2.791  1.00  0.00    -0.062 SA
HETATM   23  C   UNL     1      37.720 -15.331  -3.970  1.00  0.00     0.072 A 
HETATM   24  C   UNL     1      38.885 -15.953  -4.369  1.00  0.00     0.126 A 
HETATM   25  N   UNL     1      40.042 -15.496  -3.766  1.00  0.00    -0.236 NA
ENDBRANCH  17  21
ENDBRANCH  12  15
ENDBRANCH   8  11
BRANCH   6  26
HETATM   26  C   UNL     1      43.959 -19.956   3.668  1.00  0.00     0.014 A 
HETATM   27  C   UNL     1      44.361 -20.549   4.883  1.00  0.00     0.046 A 
HETATM   28 CL   UNL     1      44.381 -19.682   6.384  1.00  0.00    -0.083 Cl
HETATM   29  C   UNL     1      44.815 -21.875   4.924  1.00  0.00     0.025 A 
HETATM   30  C   UNL     1      44.895 -22.631   3.756  1.00  0.00     0.002 A 
HETATM   31  C   UNL     1      44.527 -22.062   2.542  1.00  0.00     0.001 A 
HETATM   32  C   UNL     1      44.067 -20.743   2.501  1.00  0.00     0.015 A 
ENDBRANCH   6  26
TORSDOF 4
ENDMDL
MODEL 3
REMARK VINA RESULT:      -9.6      4.742      7.544
REMARK  4 active torsions:
REMARK  status: ('A' for Active; 'I' for Inactive)
REMARK    1  A    between atoms: C_6  and  C_7 
REMARK    2  A    between atoms: C_15  and  C_16 
REMARK       I    between atoms: C_16  and  N_17 
REMARK    3  A    between atoms: N_17  and  N_18 
REMARK       I    between atoms: N_18  and  C_19 
REMARK       I    between atoms: C_19  and  N_20 
REMARK    4  A    between atoms: N_20  and  C_21 
ROOT
HETATM    1  C   UNL     1      39.880 -14.062   4.967  1.00  0.00     0.001 A 
HETATM    2  C   UNL     1      40.350 -14.320   3.681  1.00  0.00     0.015 A 
HETATM    3  C   UNL     1      41.110 -15.484   3.394  1.00  0.00     0.009 A 
HETATM    4  C   UNL     1      41.373 -16.393   4.435  1.00  0.00     0.068 A 
HETATM    5  N   UNL     1      42.060 -17.533   4.257  1.00  0.00    -0.248 NA
HETATM    6  C   UNL     1      42.540 -17.848   3.030  1.00  0.00     0.070 A 
HETATM    7  C   UNL     1      42.370 -17.002   1.948  1.00  0.00     0.050 A 
HETATM    8  C   UNL     1      41.624 -15.833   2.124  1.00  0.00     0.048 A 
HETATM    9  C   UNL     1      40.893 -16.114   5.708  1.00  0.00     0.032 A 
HETATM   10  C   UNL     1      40.154 -14.962   5.985  1.00  0.00     0.002 A 
ENDROOT
BRANCH   8  11
HETATM   11  C   UNL     1      41.369 -14.990   0.927  1.00  0.00     0.271 C 
HETATM   12  N   UNL     1      40.260 -15.357   0.193  1.00  0.00    -0.262 N 
HETATM   13  H   UNL     1      39.723 -16.204   0.364  1.00  0.00     0.190 HD
HETATM   14  O   UNL     1      42.090 -14.038   0.651  1.00  0.00    -0.266 OA
BRANCH  12  15
HETATM   15  N   UNL     1      39.986 -14.686  -1.001  1.00  0.00    -0.249 N 
HETATM   16  C   UNL     1      40.544 -15.165  -2.158  1.00  0.00     0.341 C 
HETATM   17  N   UNL     1      40.365 -14.442  -3.296  1.00  0.00    -0.286 N 
HETATM   18  O   UNL     1      41.151 -16.238  -2.204  1.00  0.00    -0.245 OA
HETATM   19  H   UNL     1      40.751 -14.836  -4.138  1.00  0.00     0.172 HD
HETATM   20  H   UNL     1      39.788 -13.685  -0.932  1.00  0.00     0.192 HD
BRANCH  17  21
HETATM   21  C   UNL     1      39.674 -13.271  -3.389  1.00  0.00     0.174 A 
HETATM   22  S   UNL     1      40.619 -11.906  -3.772  1.00  0.00    -0.062 SA
HETATM   23  C   UNL     1      39.196 -10.945  -3.748  1.00  0.00     0.072 A 
HETATM   24  C   UNL     1      38.110 -11.737  -3.437  1.00  0.00     0.126 A 
HETATM   25  N   UNL     1      38.388 -13.075  -3.227  1.00  0.00    -0.236 NA
ENDBRANCH  17  21
ENDBRANCH  12  15
ENDBRANCH   8  11
BRANCH   6  26
HETATM   26  C   UNL     1      43.268 -19.128   2.951  1.00  0.00     0.014 A 
HETATM   27  C   UNL     1      44.241 -19.543   3.883  1.00  0.00     0.046 A 
HETATM   28 CL   UNL     1      44.744 -18.552   5.214  1.00  0.00    -0.083 Cl
HETATM   29  C   UNL     1      44.890 -20.778   3.746  1.00  0.00     0.025 A 
HETATM   30  C   UNL     1      44.599 -21.615   2.671  1.00  0.00     0.002 A 
HETATM   31  C   UNL     1      43.660 -21.218   1.725  1.00  0.00     0.001 A 
HETATM   32  C   UNL     1      43.006 -19.990   1.865  1.00  0.00     0.015 A 
ENDBRANCH   6  26
TORSDOF 4
ENDMDL
MODEL 4
REMARK VINA RESULT:      -9.5      1.770      2.140
REMARK  4 active torsions:
REMARK  status: ('A' for Active; 'I' for Inactive)
REMARK    1  A    between atoms: C_6  and  C_7 
REMARK    2  A    between atoms: C_15  and  C_16 
REMARK       I    between atoms: C_16  and  N_17 
REMARK    3  A    between atoms: N_17  and  N_18 
REMARK       I    between atoms: N_18  and  C_19 
REMARK       I    between atoms: C_19  and  N_20 
REMARK    4  A    between atoms: N_20  and  C_21 
ROOT
HETATM    1  C   UNL     1      41.346 -13.301   0.803  1.00  0.00     0.001 A 
HETATM    2  C   UNL     1      41.878 -13.562   2.064  1.00  0.00     0.015 A 
HETATM    3  C   UNL     1      42.341 -14.857   2.415  1.00  0.00     0.009 A 
HETATM    4  C   UNL     1      42.267 -15.884   1.456  1.00  0.00     0.068 A 
HETATM    5  N   UNL     1      42.702 -17.133   1.685  1.00  0.00    -0.248 NA
HETATM    6  C   UNL     1      43.236 -17.453   2.888  1.00  0.00     0.070 A 
HETATM    7  C   UNL     1      43.317 -16.526   3.913  1.00  0.00     0.050 A 
HETATM    8  C   UNL     1      42.899 -15.216   3.664  1.00  0.00     0.048 A 
HETATM    9  C   UNL     1      41.734 -15.598   0.206  1.00  0.00     0.032 A 
HETATM   10  C   UNL     1      41.273 -14.324  -0.130  1.00  0.00     0.002 A 
ENDROOT
BRANCH   8  11
HETATM   11  C   UNL     1      43.087 -14.213   4.744  1.00  0.00     0.271 C 
HETATM   12  N   UNL     1      41.959 -13.966   5.499  1.00  0.00    -0.262 N 
HETATM   13  H   UNL     1      41.036 -14.331   5.275  1.00  0.00     0.190 HD
HETATM   14  O   UNL     1      44.174 -13.680   4.940  1.00  0.00    -0.266 OA
BRANCH  12  15
HETATM   15  N   UNL     1      42.005 -12.972   6.481  1.00  0.00    -0.249 N 
HETATM   16  C   UNL     1      41.523 -11.729   6.168  1.00  0.00     0.341 C 
HETATM   17  N   UNL     1      41.676 -10.739   7.089  1.00  0.00    -0.286 N 
HETATM   18  O   UNL     1      40.923 -11.497   5.115  1.00  0.00    -0.245 OA
HETATM   19  H   UNL     1      41.277  -9.845   6.851  1.00  0.00     0.172 HD
HETATM   20  H   UNL     1      42.752 -13.048   7.177  1.00  0.00     0.192 HD
BRANCH  17  21
HETATM   21  C   UNL     1      42.272 -10.876   8.307  1.00  0.00     0.174 A 
HETATM   22  S   UNL     1      41.268 -10.536   9.640  1.00  0.00    -0.062 SA
HETATM   23  C   UNL     1      42.571 -10.920  10.689  1.00  0.00     0.072 A 
HETATM   24  C   UNL     1      43.678 -11.265   9.941  1.00  0.00     0.126 A 
HETATM   25  N   UNL     1      43.504 -11.235   8.570  1.00  0.00    -0.236 NA
ENDBRANCH  17  21
ENDBRANCH  12  15
ENDBRANCH   8  11
BRANCH   6  26
HETATM   26  C   UNL     1      43.690 -18.850   3.022  1.00  0.00     0.014 A 
HETATM   27  C   UNL     1      44.368 -19.356   4.149  1.00  0.00     0.046 A 
HETATM   28 CL   UNL     1      44.808 -18.362   5.500  1.00  0.00    -0.083 Cl
HETATM   29  C   UNL     1      44.766 -20.699   4.209  1.00  0.00     0.025 A 
HETATM   30  C   UNL     1      44.513 -21.559   3.142  1.00  0.00     0.002 A 
HETATM   31  C   UNL     1      43.866 -21.078   2.009  1.00  0.00     0.001 A 
HETATM   32  C   UNL     1      43.462 -19.742   1.952  1.00  0.00     0.015 A 
ENDBRANCH   6  26
TORSDOF 4
ENDMDL
MODEL 5
REMARK VINA RESULT:      -9.1      4.058      6.886
REMARK  4 active torsions:
REMARK  status: ('A' for Active; 'I' for Inactive)
REMARK    1  A    between atoms: C_6  and  C_7 
REMARK    2  A    between atoms: C_15  and  C_16 
REMARK       I    between atoms: C_16  and  N_17 
REMARK    3  A    between atoms: N_17  and  N_18 
REMARK       I    between atoms: N_18  and  C_19 
REMARK       I    between atoms: C_19  and  N_20 
REMARK    4  A    between atoms: N_20  and  C_21 
ROOT
HETATM    1  C   UNL     1      43.568 -13.875   6.559  1.00  0.00     0.001 A 
HETATM    2  C   UNL     1      43.194 -14.318   5.292  1.00  0.00     0.015 A 
HETATM    3  C   UNL     1      43.417 -15.660   4.885  1.00  0.00     0.009 A 
HETATM    4  C   UNL     1      44.015 -16.550   5.795  1.00  0.00     0.068 A 
HETATM    5  N   UNL     1      44.244 -17.843   5.512  1.00  0.00    -0.248 NA
HETATM    6  C   UNL     1      43.899 -18.341   4.301  1.00  0.00     0.070 A 
HETATM    7  C   UNL     1      43.341 -17.538   3.321  1.00  0.00     0.050 A 
HETATM    8  C   UNL     1      43.069 -16.201   3.626  1.00  0.00     0.048 A 
HETATM    9  C   UNL     1      44.377 -16.085   7.052  1.00  0.00     0.032 A 
HETATM   10  C   UNL     1      44.163 -14.761   7.442  1.00  0.00     0.002 A 
ENDROOT
BRANCH   8  11
HETATM   11  C   UNL     1      42.379 -15.383   2.595  1.00  0.00     0.271 C 
HETATM   12  N   UNL     1      41.180 -15.906   2.157  1.00  0.00    -0.262 N 
HETATM   13  H   UNL     1      40.840 -16.831   2.409  1.00  0.00     0.190 HD
HETATM   14  O   UNL     1      42.851 -14.323   2.200  1.00  0.00    -0.266 OA
BRANCH  12  15
HETATM   15  N   UNL     1      40.498 -15.261   1.122  1.00  0.00    -0.249 N 
HETATM   16  C   UNL     1      40.796 -15.612  -0.169  1.00  0.00     0.341 C 
HETATM   17  N   UNL     1      40.212 -14.901  -1.170  1.00  0.00    -0.286 N 
HETATM   18  O   UNL     1      41.527 -16.567  -0.442  1.00  0.00    -0.245 OA
HETATM   19  H   UNL     1      40.416 -15.205  -2.109  1.00  0.00     0.172 HD
HETATM   20  H   UNL     1      40.173 -14.309   1.308  1.00  0.00     0.192 HD
BRANCH  17  21
HETATM   21  C   UNL     1      39.348 -13.860  -1.003  1.00  0.00     0.174 A 
HETATM   22  S   UNL     1      39.933 -12.348  -1.526  1.00  0.00    -0.062 SA
HETATM   23  C   UNL     1      38.439 -11.639  -1.069  1.00  0.00     0.072 A 
HETATM   24  C   UNL     1      37.611 -12.608  -0.540  1.00  0.00     0.126 A 
HETATM   25  N   UNL     1      38.138 -13.884  -0.499  1.00  0.00    -0.236 NA
ENDBRANCH  17  21
ENDBRANCH  12  15
ENDBRANCH   8  11
BRANCH   6  26
HETATM   26  C   UNL     1      44.186 -19.774   4.106  1.00  0.00     0.014 A 
HETATM   27  C   UNL     1      44.074 -20.442   2.870  1.00  0.00     0.046 A 
HETATM   28 CL   UNL     1      43.516 -19.656   1.429  1.00  0.00    -0.083 Cl
HETATM   29  C   UNL     1      44.369 -21.808   2.759  1.00  0.00     0.025 A 
HETATM   30  C   UNL     1      44.763 -22.540   3.877  1.00  0.00     0.002 A 
HETATM   31  C   UNL     1      44.859 -21.909   5.113  1.00  0.00     0.001 A 
HETATM   32  C   UNL     1      44.573 -20.546   5.223  1.00  0.00     0.015 A 
ENDBRANCH   6  26
TORSDOF 4
ENDMDL
MODEL 6
REMARK VINA RESULT:      -8.9      4.681      6.844
REMARK  4 active torsions:
REMARK  status: ('A' for Active; 'I' for Inactive)
REMARK    1  A    between atoms: C_6  and  C_7 
REMARK    2  A    between atoms: C_15  and  C_16 
REMARK       I    between atoms: C_16  and  N_17 
REMARK    3  A    between atoms: N_17  and  N_18 
REMARK       I    between atoms: N_18  and  C_19 
REMARK       I    between atoms: C_19  and  N_20 
REMARK    4  A    between atoms: N_20  and  C_21 
ROOT
HETATM    1  C   UNL     1      39.924 -14.038   4.939  1.00  0.00     0.001 A 
HETATM    2  C   UNL     1      40.429 -14.295   3.666  1.00  0.00     0.015 A 
HETATM    3  C   UNL     1      41.182 -15.469   3.396  1.00  0.00     0.009 A 
HETATM    4  C   UNL     1      41.401 -16.386   4.439  1.00  0.00     0.068 A 
HETATM    5  N   UNL     1      42.078 -17.534   4.276  1.00  0.00    -0.248 NA
HETATM    6  C   UNL     1      42.590 -17.849   3.062  1.00  0.00     0.070 A 
HETATM    7  C   UNL     1      42.465 -16.996   1.981  1.00  0.00     0.050 A 
HETATM    8  C   UNL     1      41.730 -15.817   2.140  1.00  0.00     0.048 A 
HETATM    9  C   UNL     1      40.885 -16.108   5.698  1.00  0.00     0.032 A 
HETATM   10  C   UNL     1      40.153 -14.948   5.960  1.00  0.00     0.002 A 
ENDROOT
BRANCH   8  11
HETATM   11  C   UNL     1      41.523 -14.964   0.941  1.00  0.00     0.271 C 
HETATM   12  N   UNL     1      42.088 -13.708   1.027  1.00  0.00    -0.262 N 
HETATM   13  H   UNL     1      42.504 -13.331   1.876  1.00  0.00     0.190 HD
HETATM   14  O   UNL     1      40.913 -15.376  -0.039  1.00  0.00    -0.266 OA
BRANCH  12  15
HETATM   15  N   UNL     1      41.872 -12.796  -0.009  1.00  0.00    -0.249 N 
HETATM   16  C   UNL     1      40.925 -11.822   0.171  1.00  0.00     0.341 C 
HETATM   17  N   UNL     1      40.641 -11.010  -0.883  1.00  0.00    -0.286 N 
HETATM   18  O   UNL     1      40.369 -11.632   1.256  1.00  0.00    -0.245 OA
HETATM   19  H   UNL     1      39.972 -10.277  -0.712  1.00  0.00     0.172 HD
HETATM   20  H   UNL     1      42.060 -13.126  -0.959  1.00  0.00     0.192 HD
BRANCH  17  21
HETATM   21  C   UNL     1      41.220 -11.081  -2.115  1.00  0.00     0.174 A 
HETATM   22  S   UNL     1      42.080  -9.687  -2.586  1.00  0.00    -0.062 SA
HETATM   23  C   UNL     1      42.494 -10.469  -4.056  1.00  0.00     0.072 A 
HETATM   24  C   UNL     1      41.934 -11.730  -4.081  1.00  0.00     0.126 A 
HETATM   25  N   UNL     1      41.197 -12.077  -2.965  1.00  0.00    -0.236 NA
ENDBRANCH  17  21
ENDBRANCH  12  15
ENDBRANCH   8  11
BRANCH   6  26
HETATM   26  C   UNL     1      43.303 -19.138   2.998  1.00  0.00     0.014 A 
HETATM   27  C   UNL     1      44.269 -19.555   3.936  1.00  0.00     0.046 A 
HETATM   28 CL   UNL     1      44.782 -18.556   5.257  1.00  0.00    -0.083 Cl
HETATM   29  C   UNL     1      44.905 -20.799   3.813  1.00  0.00     0.025 A 
HETATM   30  C   UNL     1      44.605 -21.644   2.746  1.00  0.00     0.002 A 
HETATM   31  C   UNL     1      43.673 -21.246   1.795  1.00  0.00     0.001 A 
HETATM   32  C   UNL     1      43.033 -20.010   1.921  1.00  0.00     0.015 A 
ENDBRANCH   6  26
TORSDOF 4
ENDMDL
MODEL 7
REMARK VINA RESULT:      -8.8      2.483      3.165
REMARK  4 active torsions:
REMARK  status: ('A' for Active; 'I' for Inactive)
REMARK    1  A    between atoms: C_6  and  C_7 
REMARK    2  A    between atoms: C_15  and  C_16 
REMARK       I    between atoms: C_16  and  N_17 
REMARK    3  A    between atoms: N_17  and  N_18 
REMARK       I    between atoms: N_18  and  C_19 
REMARK       I    between atoms: C_19  and  N_20 
REMARK    4  A    between atoms: N_20  and  C_21 
ROOT
HETATM    1  C   UNL     1      40.247 -14.079   1.276  1.00  0.00     0.001 A 
HETATM    2  C   UNL     1      40.711 -14.029   2.589  1.00  0.00     0.015 A 
HETATM    3  C   UNL     1      41.367 -15.139   3.181  1.00  0.00     0.009 A 
HETATM    4  C   UNL     1      41.559 -16.301   2.410  1.00  0.00     0.068 A 
HETATM    5  N   UNL     1      42.190 -17.392   2.873  1.00  0.00    -0.248 NA
HETATM    6  C   UNL     1      42.671 -17.408   4.139  1.00  0.00     0.070 A 
HETATM    7  C   UNL     1      42.499 -16.332   4.992  1.00  0.00     0.050 A 
HETATM    8  C   UNL     1      41.874 -15.182   4.500  1.00  0.00     0.048 A 
HETATM    9  C   UNL     1      41.089 -16.325   1.103  1.00  0.00     0.032 A 
HETATM   10  C   UNL     1      40.436 -15.232   0.530  1.00  0.00     0.002 A 
ENDROOT
BRANCH   8  11
HETATM   11  C   UNL     1      41.790 -14.003   5.400  1.00  0.00     0.271 C 
HETATM   12  N   UNL     1      40.607 -13.903   6.104  1.00  0.00    -0.262 N 
HETATM   13  H   UNL     1      39.800 -14.501   5.942  1.00  0.00     0.190 HD
HETATM   14  O   UNL     1      42.719 -13.210   5.505  1.00  0.00    -0.266 OA
BRANCH  12  15
HETATM   15  N   UNL     1      40.390 -12.781   6.908  1.00  0.00    -0.249 N 
HETATM   16  C   UNL     1      39.514 -11.825   6.465  1.00  0.00     0.341 C 
HETATM   17  N   UNL     1      39.395 -10.685   7.197  1.00  0.00    -0.286 N 
HETATM   18  O   UNL     1      38.808 -11.987   5.466  1.00  0.00    -0.245 OA
HETATM   19  H   UNL     1      38.715 -10.017   6.872  1.00  0.00     0.172 HD
HETATM   20  H   UNL     1      41.161 -12.494   7.516  1.00  0.00     0.192 HD
BRANCH  17  21
HETATM   21  C   UNL     1      40.076 -10.406   8.344  1.00  0.00     0.174 A 
HETATM   22  S   UNL     1      41.331  -9.266   8.177  1.00  0.00    -0.062 SA
HETATM   23  C   UNL     1      41.650  -9.407   9.857  1.00  0.00     0.072 A 
HETATM   24  C   UNL     1      40.783 -10.323  10.416  1.00  0.00     0.126 A 
HETATM   25  N   UNL     1      39.881 -10.900   9.543  1.00  0.00    -0.236 NA
ENDBRANCH  17  21
ENDBRANCH  12  15
ENDBRANCH   8  11
BRANCH   6  26
HETATM   26  C   UNL     1      43.355 -18.653   4.534  1.00  0.00     0.014 A 
HETATM   27  C   UNL     1      44.074 -19.476   3.645  1.00  0.00     0.046 A 
HETATM   28 CL   UNL     1      44.185 -19.146   1.947  1.00  0.00    -0.083 Cl
HETATM   29  C   UNL     1      44.705 -20.646   4.094  1.00  0.00     0.025 A 
HETATM   30  C   UNL     1      44.616 -21.028   5.431  1.00  0.00     0.002 A 
HETATM   31  C   UNL     1      43.892 -20.245   6.323  1.00  0.00     0.001 A 
HETATM   32  C   UNL     1      43.271 -19.075   5.878  1.00  0.00     0.015 A 
ENDBRANCH   6  26
TORSDOF 4
ENDMDL
MODEL 8
REMARK VINA RESULT:      -8.6      4.982      7.518
REMARK  4 active torsions:
REMARK  status: ('A' for Active; 'I' for Inactive)
REMARK    1  A    between atoms: C_6  and  C_7 
REMARK    2  A    between atoms: C_15  and  C_16 
REMARK       I    between atoms: C_16  and  N_17 
REMARK    3  A    between atoms: N_17  and  N_18 
REMARK       I    between atoms: N_18  and  C_19 
REMARK       I    between atoms: C_19  and  N_20 
REMARK    4  A    between atoms: N_20  and  C_21 
ROOT
HETATM    1  C   UNL     1      39.423 -12.398   4.780  1.00  0.00     0.001 A 
HETATM    2  C   UNL     1      40.221 -12.728   3.687  1.00  0.00     0.015 A 
HETATM    3  C   UNL     1      41.059 -13.874   3.706  1.00  0.00     0.009 A 
HETATM    4  C   UNL     1      41.062 -14.689   4.852  1.00  0.00     0.068 A 
HETATM    5  N   UNL     1      41.801 -15.806   4.955  1.00  0.00    -0.248 NA
HETATM    6  C   UNL     1      42.594 -16.189   3.926  1.00  0.00     0.070 A 
HETATM    7  C   UNL     1      42.694 -15.434   2.771  1.00  0.00     0.050 A 
HETATM    8  C   UNL     1      41.898 -14.291   2.647  1.00  0.00     0.048 A 
HETATM    9  C   UNL     1      40.257 -14.340   5.928  1.00  0.00     0.032 A 
HETATM   10  C   UNL     1      39.441 -13.206   5.906  1.00  0.00     0.002 A 
ENDROOT
BRANCH   8  11
HETATM   11  C   UNL     1      41.946 -13.552   1.360  1.00  0.00     0.271 C 
HETATM   12  N   UNL     1      41.177 -14.101   0.354  1.00  0.00    -0.262 N 
HETATM   13  H   UNL     1      40.710 -15.003   0.427  1.00  0.00     0.190 HD
HETATM   14  O   UNL     1      42.607 -12.527   1.235  1.00  0.00    -0.266 OA
BRANCH  12  15
HETATM   15  N   UNL     1      41.225 -13.535  -0.922  1.00  0.00    -0.249 N 
HETATM   16  C   UNL     1      41.151 -14.370  -2.005  1.00  0.00     0.341 C 
HETATM   17  N   UNL     1      41.313 -13.823  -3.240  1.00  0.00    -0.286 N 
HETATM   18  O   UNL     1      40.899 -15.572  -1.898  1.00  0.00    -0.245 OA
HETATM   19  H   UNL     1      41.214 -14.451  -4.021  1.00  0.00     0.172 HD
HETATM   20  H   UNL     1      41.738 -12.655  -1.015  1.00  0.00     0.192 HD
BRANCH  17  21
HETATM   21  C   UNL     1      41.544 -12.504  -3.498  1.00  0.00     0.174 A 
HETATM   22  S   UNL     1      40.188 -11.632  -4.051  1.00  0.00    -0.062 SA
HETATM   23  C   UNL     1      41.156 -10.216  -4.113  1.00  0.00     0.072 A 
HETATM   24  C   UNL     1      42.443 -10.519  -3.719  1.00  0.00     0.126 A 
HETATM   25  N   UNL     1      42.665 -11.838  -3.370  1.00  0.00    -0.236 NA
ENDBRANCH  17  21
ENDBRANCH  12  15
ENDBRANCH   8  11
BRANCH   6  26
HETATM   26  C   UNL     1      43.350 -17.435   4.147  1.00  0.00     0.014 A 
HETATM   27  C   UNL     1      43.367 -18.519   3.245  1.00  0.00     0.046 A 
HETATM   28 CL   UNL     1      42.437 -18.534   1.782  1.00  0.00    -0.083 Cl
HETATM   29  C   UNL     1      44.114 -19.674   3.519  1.00  0.00     0.025 A 
HETATM   30  C   UNL     1      44.842 -19.780   4.702  1.00  0.00     0.002 A 
HETATM   31  C   UNL     1      44.823 -18.735   5.618  1.00  0.00     0.001 A 
HETATM   32  C   UNL     1      44.086 -17.580   5.342  1.00  0.00     0.015 A 
ENDBRANCH   6  26
TORSDOF 4
ENDMDL
MODEL 9
REMARK VINA RESULT:      -8.4      4.775      7.854
REMARK  4 active torsions:
REMARK  status: ('A' for Active; 'I' for Inactive)
REMARK    1  A    between atoms: C_6  and  C_7 
REMARK    2  A    between atoms: C_15  and  C_16 
REMARK       I    between atoms: C_16  and  N_17 
REMARK    3  A    between atoms: N_17  and  N_18 
REMARK       I    between atoms: N_18  and  C_19 
REMARK       I    between atoms: C_19  and  N_20 
REMARK    4  A    between atoms: N_20  and  C_21 
ROOT
HETATM    1  C   UNL     1      40.941 -12.178   4.638  1.00  0.00     0.001 A 
HETATM    2  C   UNL     1      40.704 -13.110   3.629  1.00  0.00     0.015 A 
HETATM    3  C   UNL     1      41.319 -14.389   3.650  1.00  0.00     0.009 A 
HETATM    4  C   UNL     1      42.169 -14.713   4.724  1.00  0.00     0.068 A 
HETATM    5  N   UNL     1      42.775 -15.905   4.845  1.00  0.00    -0.248 NA
HETATM    6  C   UNL     1      42.583 -16.859   3.903  1.00  0.00     0.070 A 
HETATM    7  C   UNL     1      41.798 -16.627   2.787  1.00  0.00     0.050 A 
HETATM    8  C   UNL     1      41.138 -15.400   2.678  1.00  0.00     0.048 A 
HETATM    9  C   UNL     1      42.387 -13.767   5.717  1.00  0.00     0.032 A 
HETATM   10  C   UNL     1      41.786 -12.507   5.686  1.00  0.00     0.002 A 
ENDROOT
BRANCH   8  11
HETATM   11  C   UNL     1      40.222 -15.208   1.524  1.00  0.00     0.271 C 
HETATM   12  N   UNL     1      40.847 -14.844   0.350  1.00  0.00    -0.262 N 
HETATM   13  H   UNL     1      41.833 -14.598   0.286  1.00  0.00     0.190 HD
HETATM   14  O   UNL     1      39.013 -15.387   1.631  1.00  0.00    -0.266 OA
BRANCH  12  15
HETATM   15  N   UNL     1      40.066 -14.549  -0.771  1.00  0.00    -0.249 N 
HETATM   16  C   UNL     1      40.386 -15.150  -1.960  1.00  0.00     0.341 C 
HETATM   17  N   UNL     1      39.693 -14.772  -3.068  1.00  0.00    -0.286 N 
HETATM   18  O   UNL     1      41.234 -16.042  -2.044  1.00  0.00    -0.245 OA
HETATM   19  H   UNL     1      39.920 -15.258  -3.921  1.00  0.00     0.172 HD
HETATM   20  H   UNL     1      39.620 -13.629  -0.791  1.00  0.00     0.192 HD
BRANCH  17  21
HETATM   21  C   UNL     1      38.700 -13.839  -3.101  1.00  0.00     0.174 A 
HETATM   22  S   UNL     1      37.267 -14.342  -3.873  1.00  0.00    -0.062 SA
HETATM   23  C   UNL     1      36.569 -12.815  -3.519  1.00  0.00     0.072 A 
HETATM   24  C   UNL     1      37.488 -12.032  -2.850  1.00  0.00     0.126 A 
HETATM   25  N   UNL     1      38.715 -12.623  -2.615  1.00  0.00    -0.236 NA
ENDBRANCH  17  21
ENDBRANCH  12  15
ENDBRANCH   8  11
BRANCH   6  26
HETATM   26  C   UNL     1      43.289 -18.131   4.146  1.00  0.00     0.014 A 
HETATM   27  C   UNL     1      43.932 -18.882   3.142  1.00  0.00     0.046 A 
HETATM   28 CL   UNL     1      43.912 -18.420   1.471  1.00  0.00    -0.083 Cl
HETATM   29  C   UNL     1      44.589 -20.083   3.447  1.00  0.00     0.025 A 
HETATM   30  C   UNL     1      44.603 -20.568   4.753  1.00  0.00     0.002 A 
HETATM   31  C   UNL     1      43.956 -19.858   5.758  1.00  0.00     0.001 A 
HETATM   32  C   UNL     1      43.308 -18.657   5.455  1.00  0.00     0.015 A 
ENDBRANCH   6  26
TORSDOF 4
ENDMDL
MODEL 10
REMARK VINA RESULT:      -8.3      4.463      7.588
REMARK  4 active torsions:
REMARK  status: ('A' for Active; 'I' for Inactive)
REMARK    1  A    between atoms: C_6  and  C_7 
REMARK    2  A    between atoms: C_15  and  C_16 
REMARK       I    between atoms: C_16  and  N_17 
REMARK    3  A    between atoms: N_17  and  N_18 
REMARK       I    between atoms: N_18  and  C_19 
REMARK       I    between atoms: C_19  and  N_20 
REMARK    4  A    between atoms: N_20  and  C_21 
ROOT
HETATM    1  C   UNL     1      40.024 -13.428   5.617  1.00  0.00     0.001 A 
HETATM    2  C   UNL     1      40.584 -14.426   4.820  1.00  0.00     0.015 A 
HETATM    3  C   UNL     1      40.926 -14.181   3.464  1.00  0.00     0.009 A 
HETATM    4  C   UNL     1      40.703 -12.897   2.933  1.00  0.00     0.068 A 
HETATM    5  N   UNL     1      41.017 -12.562   1.671  1.00  0.00    -0.248 NA
HETATM    6  C   UNL     1      41.570 -13.482   0.845  1.00  0.00     0.070 A 
HETATM    7  C   UNL     1      41.792 -14.784   1.258  1.00  0.00     0.050 A 
HETATM    8  C   UNL     1      41.500 -15.125   2.582  1.00  0.00     0.048 A 
HETATM    9  C   UNL     1      40.146 -11.920   3.747  1.00  0.00     0.032 A 
HETATM   10  C   UNL     1      39.803 -12.171   5.078  1.00  0.00     0.002 A 
ENDROOT
BRANCH   8  11
HETATM   11  C   UNL     1      41.840 -16.499   3.033  1.00  0.00     0.271 C 
HETATM   12  N   UNL     1      43.163 -16.677   3.384  1.00  0.00    -0.262 N 
HETATM   13  H   UNL     1      43.887 -15.978   3.234  1.00  0.00     0.190 HD
HETATM   14  O   UNL     1      40.989 -17.379   3.098  1.00  0.00    -0.266 OA
BRANCH  12  15
HETATM   15  N   UNL     1      43.605 -17.955   3.733  1.00  0.00    -0.249 N 
HETATM   16  C   UNL     1      44.241 -18.115   4.936  1.00  0.00     0.341 C 
HETATM   17  N   UNL     1      44.768 -19.337   5.217  1.00  0.00    -0.286 N 
HETATM   18  O   UNL     1      44.305 -17.213   5.775  1.00  0.00    -0.245 OA
HETATM   19  H   UNL     1      45.194 -19.439   6.124  1.00  0.00     0.172 HD
HETATM   20  H   UNL     1      43.847 -18.584   2.963  1.00  0.00     0.192 HD
BRANCH  17  21
HETATM   21  C   UNL     1      44.719 -20.427   4.401  1.00  0.00     0.174 A 
HETATM   22  S   UNL     1      44.755 -21.930   5.205  1.00  0.00    -0.062 SA
HETATM   23  C   UNL     1      44.639 -22.718   3.685  1.00  0.00     0.072 A 
HETATM   24  C   UNL     1      44.595 -21.775   2.678  1.00  0.00     0.126 A 
HETATM   25  N   UNL     1      44.646 -20.458   3.093  1.00  0.00    -0.236 NA
ENDBRANCH  17  21
ENDBRANCH  12  15
ENDBRANCH   8  11
BRANCH   6  26
HETATM   26  C   UNL     1      41.882 -12.999  -0.512  1.00  0.00     0.014 A 
HETATM   27  C   UNL     1      41.605 -13.719  -1.691  1.00  0.00     0.046 A 
HETATM   28 CL   UNL     1      40.910 -15.308  -1.675  1.00  0.00    -0.083 Cl
HETATM   29  C   UNL     1      41.926 -13.194  -2.951  1.00  0.00     0.025 A 
HETATM   30  C   UNL     1      42.547 -11.952  -3.061  1.00  0.00     0.002 A 
HETATM   31  C   UNL     1      42.853 -11.231  -1.912  1.00  0.00     0.001 A 
HETATM   32  C   UNL     1      42.525 -11.750  -0.657  1.00  0.00     0.015 A 
ENDBRANCH   6  26
TORSDOF 4
ENDMDL
