MODEL 1
REMARK VINA RESULT:      -9.6      0.000      0.000
REMARK  5 active torsions:
REMARK  status: ('A' for Active; 'I' for Inactive)
REMARK    1  A    between atoms: C_4  and  O_5 
REMARK    2  A    between atoms: O_5  and  C_6 
REMARK    3  A    between atoms: C_6  and  C_7 
REMARK       I    between atoms: C_7  and  N_8 
REMARK    4  A    between atoms: N_8  and  C_9 
REMARK    5  A    between atoms: C_11  and  C_12 
ROOT
HETATM    1  C   UNL     1      44.731 -13.575   7.706  1.00  0.00     0.035 A 
HETATM    2  C   UNL     1      44.123 -12.994   8.825  1.00  0.00     0.045 A 
HETATM    3  C   UNL     1      44.756 -11.962   9.540  1.00  0.00     0.019 A 
HETATM    4  C   UNL     1      46.015 -11.518   9.111  1.00  0.00     0.016 A 
HETATM    5  C   UNL     1      46.626 -12.085   7.994  1.00  0.00     0.003 A 
HETATM    6  C   UNL     1      45.985 -13.109   7.296  1.00  0.00     0.029 A 
ENDROOT
BRANCH   1   7
HETATM    7  N   UNL     1      44.153 -14.610   6.947  1.00  0.00    -0.325 N 
HETATM    8  C   UNL     1      43.736 -15.858   7.379  1.00  0.00     0.251 C 
HETATM    9  O   UNL     1      43.816 -16.301   8.522  1.00  0.00    -0.270 OA
HETATM   10  H   UNL     1      44.076 -14.458   5.945  1.00  0.00     0.169 HD
BRANCH   8  11
HETATM   11  C   UNL     1      43.065 -16.678   6.265  1.00  0.00     0.217 C 
HETATM   12  C   UNL     1      41.561 -16.704   6.512  1.00  0.00     0.050 C 
BRANCH  11  13
HETATM   13  O   UNL     1      43.269 -16.075   4.978  1.00  0.00    -0.337 OA
BRANCH  13  14
HETATM   14  C   UNL     1      43.176 -16.974   3.950  1.00  0.00     0.070 A 
HETATM   15  C   UNL     1      42.402 -16.600   2.853  1.00  0.00     0.043 A 
HETATM   16  C   UNL     1      42.264 -17.464   1.760  1.00  0.00    -0.059 A 
HETATM   17  C   UNL     1      41.429 -17.079   0.575  1.00  0.00     0.048 C 
HETATM   18  C   UNL     1      42.944 -18.688   1.771  1.00  0.00     0.013 A 
HETATM   19  C   UNL     1      43.746 -19.059   2.861  1.00  0.00    -0.059 A 
HETATM   20  C   UNL     1      43.866 -18.187   3.949  1.00  0.00     0.043 A 
HETATM   21  C   UNL     1      44.488 -20.363   2.832  1.00  0.00     0.048 C 
ENDBRANCH  13  14
ENDBRANCH  11  13
ENDBRANCH   8  11
ENDBRANCH   1   7
BRANCH   3  22
HETATM   22  C   UNL     1      44.142 -11.349  10.717  1.00  0.00     0.181 A 
HETATM   23  O   UNL     1      42.903 -11.818  11.080  1.00  0.00    -0.289 OA
HETATM   24  C   UNL     1      42.582 -11.085  12.183  1.00  0.00     0.106 A 
HETATM   25  C   UNL     1      43.630 -10.217  12.435  1.00  0.00     0.093 A 
HETATM   26  C   UNL     1      41.421 -11.170  12.941  1.00  0.00     0.040 A 
HETATM   27  N   UNL     1      44.614 -10.388  11.494  1.00  0.00    -0.221 NA
HETATM   28  C   UNL     1      43.543  -9.352  13.533  1.00  0.00     0.034 A 
HETATM   29  C   UNL     1      42.388  -9.407  14.328  1.00  0.00     0.002 A 
HETATM   30  C   UNL     1      41.347 -10.298  14.035  1.00  0.00     0.003 A 
ENDBRANCH   3  22
TORSDOF 5
ENDMDL
MODEL 2
REMARK VINA RESULT:      -9.6      0.175      1.603
REMARK  5 active torsions:
REMARK  status: ('A' for Active; 'I' for Inactive)
REMARK    1  A    between atoms: C_4  and  O_5 
REMARK    2  A    between atoms: O_5  and  C_6 
REMARK    3  A    between atoms: C_6  and  C_7 
REMARK       I    between atoms: C_7  and  N_8 
REMARK    4  A    between atoms: N_8  and  C_9 
REMARK    5  A    between atoms: C_11  and  C_12 
ROOT
HETATM    1  C   UNL     1      44.722 -13.501   7.734  1.00  0.00     0.035 A 
HETATM    2  C   UNL     1      44.110 -12.921   8.851  1.00  0.00     0.045 A 
HETATM    3  C   UNL     1      44.755 -11.915   9.591  1.00  0.00     0.019 A 
HETATM    4  C   UNL     1      46.030 -11.494   9.187  1.00  0.00     0.016 A 
HETATM    5  C   UNL     1      46.645 -12.059   8.073  1.00  0.00     0.003 A 
HETATM    6  C   UNL     1      45.992 -13.058   7.350  1.00  0.00     0.029 A 
ENDROOT
BRANCH   1   7
HETATM    7  N   UNL     1      44.132 -14.511   6.951  1.00  0.00    -0.325 N 
HETATM    8  C   UNL     1      43.739 -15.780   7.345  1.00  0.00     0.251 C 
HETATM    9  O   UNL     1      43.855 -16.266   8.467  1.00  0.00    -0.270 OA
HETATM   10  H   UNL     1      44.025 -14.322   5.958  1.00  0.00     0.169 HD
BRANCH   8  11
HETATM   11  C   UNL     1      43.045 -16.562   6.219  1.00  0.00     0.217 C 
HETATM   12  C   UNL     1      41.536 -16.409   6.372  1.00  0.00     0.050 C 
BRANCH  11  13
HETATM   13  O   UNL     1      43.392 -16.038   4.928  1.00  0.00    -0.337 OA
BRANCH  13  14
HETATM   14  C   UNL     1      43.198 -16.941   3.918  1.00  0.00     0.070 A 
HETATM   15  C   UNL     1      43.931 -18.125   3.980  1.00  0.00     0.043 A 
HETATM   16  C   UNL     1      43.782 -19.099   2.986  1.00  0.00    -0.059 A 
HETATM   17  C   UNL     1      44.568 -20.375   3.034  1.00  0.00     0.048 C 
HETATM   18  C   UNL     1      42.860 -18.882   1.953  1.00  0.00     0.013 A 
HETATM   19  C   UNL     1      42.100 -17.704   1.900  1.00  0.00    -0.059 A 
HETATM   20  C   UNL     1      42.269 -16.736   2.897  1.00  0.00     0.043 A 
HETATM   21  C   UNL     1      41.098 -17.511   0.799  1.00  0.00     0.048 C 
ENDBRANCH  13  14
ENDBRANCH  11  13
ENDBRANCH   8  11
ENDBRANCH   1   7
BRANCH   3  22
HETATM   22  C   UNL     1      44.136 -11.304  10.767  1.00  0.00     0.181 A 
HETATM   23  O   UNL     1      42.912 -11.799  11.146  1.00  0.00    -0.289 OA
HETATM   24  C   UNL     1      42.583 -11.063  12.244  1.00  0.00     0.106 A 
HETATM   25  C   UNL     1      43.612 -10.167  12.478  1.00  0.00     0.093 A 
HETATM   26  C   UNL     1      41.431 -11.167  13.014  1.00  0.00     0.040 A 
HETATM   27  N   UNL     1      44.591 -10.324  11.530  1.00  0.00    -0.221 NA
HETATM   28  C   UNL     1      43.514  -9.292  13.568  1.00  0.00     0.034 A 
HETATM   29  C   UNL     1      42.367  -9.367  14.374  1.00  0.00     0.002 A 
HETATM   30  C   UNL     1      41.346 -10.286  14.099  1.00  0.00     0.003 A 
ENDBRANCH   3  22
TORSDOF 5
ENDMDL
MODEL 3
REMARK VINA RESULT:      -9.6      2.026     10.200
REMARK  5 active torsions:
REMARK  status: ('A' for Active; 'I' for Inactive)
REMARK    1  A    between atoms: C_4  and  O_5 
REMARK    2  A    between atoms: O_5  and  C_6 
REMARK    3  A    between atoms: C_6  and  C_7 
REMARK       I    between atoms: C_7  and  N_8 
REMARK    4  A    between atoms: N_8  and  C_9 
REMARK    5  A    between atoms: C_11  and  C_12 
ROOT
HETATM    1  C   UNL     1      43.136 -13.948   6.044  1.00  0.00     0.035 A 
HETATM    2  C   UNL     1      43.483 -15.268   5.740  1.00  0.00     0.045 A 
HETATM    3  C   UNL     1      43.135 -15.845   4.505  1.00  0.00     0.019 A 
HETATM    4  C   UNL     1      42.432 -15.068   3.573  1.00  0.00     0.016 A 
HETATM    5  C   UNL     1      42.087 -13.749   3.863  1.00  0.00     0.003 A 
HETATM    6  C   UNL     1      42.439 -13.193   5.094  1.00  0.00     0.029 A 
ENDROOT
BRANCH   1   7
HETATM    7  N   UNL     1      43.453 -13.311   7.259  1.00  0.00    -0.325 N 
HETATM    8  C   UNL     1      44.707 -13.053   7.787  1.00  0.00     0.251 C 
HETATM    9  O   UNL     1      45.787 -13.357   7.290  1.00  0.00    -0.270 OA
HETATM   10  H   UNL     1      42.675 -13.053   7.861  1.00  0.00     0.169 HD
BRANCH   8  11
HETATM   11  C   UNL     1      44.644 -12.251   9.098  1.00  0.00     0.217 C 
HETATM   12  C   UNL     1      46.064 -12.025   9.604  1.00  0.00     0.050 C 
BRANCH  11  13
HETATM   13  O   UNL     1      44.061 -10.956   8.890  1.00  0.00    -0.337 OA
BRANCH  13  14
HETATM   14  C   UNL     1      43.266 -10.558   9.931  1.00  0.00     0.070 A 
HETATM   15  C   UNL     1      41.888 -10.584   9.720  1.00  0.00     0.043 A 
HETATM   16  C   UNL     1      41.012 -10.197  10.739  1.00  0.00    -0.059 A 
HETATM   17  C   UNL     1      39.527 -10.212  10.526  1.00  0.00     0.048 C 
HETATM   18  C   UNL     1      41.537  -9.822  11.983  1.00  0.00     0.013 A 
HETATM   19  C   UNL     1      42.922  -9.819  12.210  1.00  0.00    -0.059 A 
HETATM   20  C   UNL     1      43.785 -10.200  11.176  1.00  0.00     0.043 A 
HETATM   21  C   UNL     1      43.456  -9.442  13.561  1.00  0.00     0.048 C 
ENDBRANCH  13  14
ENDBRANCH  11  13
ENDBRANCH   8  11
ENDBRANCH   1   7
BRANCH   3  22
HETATM   22  C   UNL     1      43.480 -17.226   4.174  1.00  0.00     0.181 A 
HETATM   23  O   UNL     1      43.124 -17.666   2.922  1.00  0.00    -0.289 OA
HETATM   24  C   UNL     1      43.560 -18.957   2.889  1.00  0.00     0.106 A 
HETATM   25  C   UNL     1      44.153 -19.236   4.108  1.00  0.00     0.093 A 
HETATM   26  C   UNL     1      43.446 -19.857   1.837  1.00  0.00     0.040 A 
HETATM   27  N   UNL     1      44.091 -18.132   4.920  1.00  0.00    -0.221 NA
HETATM   28  C   UNL     1      44.692 -20.511   4.323  1.00  0.00     0.034 A 
HETATM   29  C   UNL     1      44.600 -21.451   3.284  1.00  0.00     0.002 A 
HETATM   30  C   UNL     1      43.987 -21.129   2.066  1.00  0.00     0.003 A 
ENDBRANCH   3  22
TORSDOF 5
ENDMDL
MODEL 4
REMARK VINA RESULT:      -9.4      1.402      2.248
REMARK  5 active torsions:
REMARK  status: ('A' for Active; 'I' for Inactive)
REMARK    1  A    between atoms: C_4  and  O_5 
REMARK    2  A    between atoms: O_5  and  C_6 
REMARK    3  A    between atoms: C_6  and  C_7 
REMARK       I    between atoms: C_7  and  N_8 
REMARK    4  A    between atoms: N_8  and  C_9 
REMARK    5  A    between atoms: C_11  and  C_12 
ROOT
HETATM    1  C   UNL     1      44.695 -13.460   7.721  1.00  0.00     0.035 A 
HETATM    2  C   UNL     1      44.091 -12.883   8.844  1.00  0.00     0.045 A 
HETATM    3  C   UNL     1      44.747 -11.890   9.592  1.00  0.00     0.019 A 
HETATM    4  C   UNL     1      46.026 -11.479   9.191  1.00  0.00     0.016 A 
HETATM    5  C   UNL     1      46.634 -12.041   8.070  1.00  0.00     0.003 A 
HETATM    6  C   UNL     1      45.970 -13.027   7.340  1.00  0.00     0.029 A 
ENDROOT
BRANCH   1   7
HETATM    7  N   UNL     1      44.094 -14.457   6.930  1.00  0.00    -0.325 N 
HETATM    8  C   UNL     1      43.696 -15.727   7.312  1.00  0.00     0.251 C 
HETATM    9  O   UNL     1      43.817 -16.228   8.427  1.00  0.00    -0.270 OA
HETATM   10  H   UNL     1      43.982 -14.254   5.940  1.00  0.00     0.169 HD
BRANCH   8  11
HETATM   11  C   UNL     1      42.989 -16.492   6.181  1.00  0.00     0.217 C 
HETATM   12  C   UNL     1      41.961 -15.572   5.533  1.00  0.00     0.050 C 
BRANCH  11  13
HETATM   13  O   UNL     1      43.915 -16.877   5.153  1.00  0.00    -0.337 OA
BRANCH  13  14
HETATM   14  C   UNL     1      44.050 -18.235   5.042  1.00  0.00     0.070 A 
HETATM   15  C   UNL     1      43.825 -18.989   6.192  1.00  0.00     0.043 A 
HETATM   16  C   UNL     1      43.939 -20.383   6.154  1.00  0.00    -0.059 A 
HETATM   17  C   UNL     1      43.707 -21.209   7.384  1.00  0.00     0.048 C 
HETATM   18  C   UNL     1      44.244 -21.008   4.937  1.00  0.00     0.013 A 
HETATM   19  C   UNL     1      44.445 -20.256   3.770  1.00  0.00    -0.059 A 
HETATM   20  C   UNL     1      44.338 -18.862   3.828  1.00  0.00     0.043 A 
HETATM   21  C   UNL     1      44.741 -20.954   2.475  1.00  0.00     0.048 C 
ENDBRANCH  13  14
ENDBRANCH  11  13
ENDBRANCH   8  11
ENDBRANCH   1   7
BRANCH   3  22
HETATM   22  C   UNL     1      44.136 -11.283  10.774  1.00  0.00     0.181 A 
HETATM   23  O   UNL     1      42.924 -11.793  11.171  1.00  0.00    -0.289 OA
HETATM   24  C   UNL     1      42.600 -11.057  12.271  1.00  0.00     0.106 A 
HETATM   25  C   UNL     1      43.620 -10.146  12.487  1.00  0.00     0.093 A 
HETATM   26  C   UNL     1      41.460 -11.174  13.056  1.00  0.00     0.040 A 
HETATM   27  N   UNL     1      44.588 -10.294  11.527  1.00  0.00    -0.221 NA
HETATM   28  C   UNL     1      43.524  -9.269  13.575  1.00  0.00     0.034 A 
HETATM   29  C   UNL     1      42.389  -9.356  14.397  1.00  0.00     0.002 A 
HETATM   30  C   UNL     1      41.377 -10.289  14.139  1.00  0.00     0.003 A 
ENDBRANCH   3  22
TORSDOF 5
ENDMDL
MODEL 5
REMARK VINA RESULT:      -9.1      2.688     10.013
REMARK  5 active torsions:
REMARK  status: ('A' for Active; 'I' for Inactive)
REMARK    1  A    between atoms: C_4  and  O_5 
REMARK    2  A    between atoms: O_5  and  C_6 
REMARK    3  A    between atoms: C_6  and  C_7 
REMARK       I    between atoms: C_7  and  N_8 
REMARK    4  A    between atoms: N_8  and  C_9 
REMARK    5  A    between atoms: C_11  and  C_12 
ROOT
HETATM    1  C   UNL     1      41.097 -13.184   5.583  1.00  0.00     0.035 A 
HETATM    2  C   UNL     1      41.900 -14.328   5.548  1.00  0.00     0.045 A 
HETATM    3  C   UNL     1      41.682 -15.340   4.597  1.00  0.00     0.019 A 
HETATM    4  C   UNL     1      40.640 -15.182   3.672  1.00  0.00     0.016 A 
HETATM    5  C   UNL     1      39.838 -14.043   3.693  1.00  0.00     0.003 A 
HETATM    6  C   UNL     1      40.067 -13.049   4.645  1.00  0.00     0.029 A 
ENDROOT
BRANCH   1   7
HETATM    7  N   UNL     1      41.261 -12.136   6.508  1.00  0.00    -0.325 N 
HETATM    8  C   UNL     1      40.304 -11.556   7.324  1.00  0.00     0.251 C 
HETATM    9  O   UNL     1      39.111 -11.845   7.372  1.00  0.00    -0.270 OA
HETATM   10  H   UNL     1      42.180 -11.703   6.556  1.00  0.00     0.169 HD
BRANCH   8  11
HETATM   11  C   UNL     1      40.893 -10.497   8.270  1.00  0.00     0.217 C 
HETATM   12  C   UNL     1      40.090  -9.209   8.127  1.00  0.00     0.050 C 
BRANCH  11  13
HETATM   13  O   UNL     1      40.789 -10.907   9.642  1.00  0.00    -0.337 OA
BRANCH  13  14
HETATM   14  C   UNL     1      41.950 -10.718  10.343  1.00  0.00     0.070 A 
HETATM   15  C   UNL     1      43.142 -10.988   9.674  1.00  0.00     0.043 A 
HETATM   16  C   UNL     1      44.370 -10.812  10.324  1.00  0.00    -0.059 A 
HETATM   17  C   UNL     1      45.662 -11.105   9.621  1.00  0.00     0.048 C 
HETATM   18  C   UNL     1      44.381 -10.325  11.638  1.00  0.00     0.013 A 
HETATM   19  C   UNL     1      43.184 -10.027  12.307  1.00  0.00    -0.059 A 
HETATM   20  C   UNL     1      41.965 -10.218  11.646  1.00  0.00     0.043 A 
HETATM   21  C   UNL     1      43.227  -9.478  13.703  1.00  0.00     0.048 C 
ENDBRANCH  13  14
ENDBRANCH  11  13
ENDBRANCH   8  11
ENDBRANCH   1   7
BRANCH   3  22
HETATM   22  C   UNL     1      42.505 -16.548   4.551  1.00  0.00     0.181 A 
HETATM   23  O   UNL     1      42.500 -17.253   3.372  1.00  0.00    -0.289 OA
HETATM   24  C   UNL     1      43.334 -18.303   3.611  1.00  0.00     0.106 A 
HETATM   25  C   UNL     1      43.801 -18.187   4.909  1.00  0.00     0.093 A 
HETATM   26  C   UNL     1      43.675 -19.323   2.732  1.00  0.00     0.040 A 
HETATM   27  N   UNL     1      43.264 -17.072   5.500  1.00  0.00    -0.221 NA
HETATM   28  C   UNL     1      44.690 -19.153   5.397  1.00  0.00     0.034 A 
HETATM   29  C   UNL     1      45.064 -20.201   4.540  1.00  0.00     0.002 A 
HETATM   30  C   UNL     1      44.564 -20.283   3.234  1.00  0.00     0.003 A 
ENDBRANCH   3  22
TORSDOF 5
ENDMDL
MODEL 6
REMARK VINA RESULT:      -9.1      2.728      9.948
REMARK  5 active torsions:
REMARK  status: ('A' for Active; 'I' for Inactive)
REMARK    1  A    between atoms: C_4  and  O_5 
REMARK    2  A    between atoms: O_5  and  C_6 
REMARK    3  A    between atoms: C_6  and  C_7 
REMARK       I    between atoms: C_7  and  N_8 
REMARK    4  A    between atoms: N_8  and  C_9 
REMARK    5  A    between atoms: C_11  and  C_12 
ROOT
HETATM    1  C   UNL     1      41.013 -13.158   5.510  1.00  0.00     0.035 A 
HETATM    2  C   UNL     1      41.822 -14.299   5.509  1.00  0.00     0.045 A 
HETATM    3  C   UNL     1      41.623 -15.330   4.574  1.00  0.00     0.019 A 
HETATM    4  C   UNL     1      40.593 -15.194   3.632  1.00  0.00     0.016 A 
HETATM    5  C   UNL     1      39.785 -14.059   3.620  1.00  0.00     0.003 A 
HETATM    6  C   UNL     1      39.996 -13.046   4.556  1.00  0.00     0.029 A 
ENDROOT
BRANCH   1   7
HETATM    7  N   UNL     1      41.159 -12.092   6.417  1.00  0.00    -0.325 N 
HETATM    8  C   UNL     1      40.226 -11.597   7.314  1.00  0.00     0.251 C 
HETATM    9  O   UNL     1      39.075 -11.995   7.467  1.00  0.00    -0.270 OA
HETATM   10  H   UNL     1      42.034 -11.575   6.384  1.00  0.00     0.169 HD
BRANCH   8  11
HETATM   11  C   UNL     1      40.795 -10.480   8.205  1.00  0.00     0.217 C 
HETATM   12  C   UNL     1      39.899  -9.253   8.085  1.00  0.00     0.050 C 
BRANCH  11  13
HETATM   13  O   UNL     1      40.797 -10.866   9.588  1.00  0.00    -0.337 OA
BRANCH  13  14
HETATM   14  C   UNL     1      42.017 -10.697  10.185  1.00  0.00     0.070 A 
HETATM   15  C   UNL     1      42.018 -10.267  11.511  1.00  0.00     0.043 A 
HETATM   16  C   UNL     1      43.227 -10.078  12.189  1.00  0.00    -0.059 A 
HETATM   17  C   UNL     1      43.246  -9.609  13.614  1.00  0.00     0.048 C 
HETATM   18  C   UNL     1      44.430 -10.362  11.529  1.00  0.00     0.013 A 
HETATM   19  C   UNL     1      44.435 -10.821  10.203  1.00  0.00    -0.059 A 
HETATM   20  C   UNL     1      43.217 -10.995   9.536  1.00  0.00     0.043 A 
HETATM   21  C   UNL     1      45.736 -11.147   9.531  1.00  0.00     0.048 C 
ENDBRANCH  13  14
ENDBRANCH  11  13
ENDBRANCH   8  11
ENDBRANCH   1   7
BRANCH   3  22
HETATM   22  C   UNL     1      42.451 -16.534   4.564  1.00  0.00     0.181 A 
HETATM   23  O   UNL     1      42.511 -17.231   3.381  1.00  0.00    -0.289 OA
HETATM   24  C   UNL     1      43.336 -18.280   3.656  1.00  0.00     0.106 A 
HETATM   25  C   UNL     1      43.734 -18.171   4.978  1.00  0.00     0.093 A 
HETATM   26  C   UNL     1      43.728 -19.292   2.790  1.00  0.00     0.040 A 
HETATM   27  N   UNL     1      43.161 -17.063   5.547  1.00  0.00    -0.221 NA
HETATM   28  C   UNL     1      44.599 -19.138   5.506  1.00  0.00     0.034 A 
HETATM   29  C   UNL     1      45.023 -20.177   4.662  1.00  0.00     0.002 A 
HETATM   30  C   UNL     1      44.592 -20.252   3.331  1.00  0.00     0.003 A 
ENDBRANCH   3  22
TORSDOF 5
ENDMDL
MODEL 7
REMARK VINA RESULT:      -9.0      2.929      4.002
REMARK  5 active torsions:
REMARK  status: ('A' for Active; 'I' for Inactive)
REMARK    1  A    between atoms: C_4  and  O_5 
REMARK    2  A    between atoms: O_5  and  C_6 
REMARK    3  A    between atoms: C_6  and  C_7 
REMARK       I    between atoms: C_7  and  N_8 
REMARK    4  A    between atoms: N_8  and  C_9 
REMARK    5  A    between atoms: C_11  and  C_12 
ROOT
HETATM    1  C   UNL     1      41.388 -12.507   4.772  1.00  0.00     0.035 A 
HETATM    2  C   UNL     1      41.682 -12.254   6.117  1.00  0.00     0.045 A 
HETATM    3  C   UNL     1      41.648 -10.946   6.633  1.00  0.00     0.019 A 
HETATM    4  C   UNL     1      41.309  -9.891   5.775  1.00  0.00     0.016 A 
HETATM    5  C   UNL     1      41.008 -10.133   4.436  1.00  0.00     0.003 A 
HETATM    6  C   UNL     1      41.048 -11.436   3.938  1.00  0.00     0.029 A 
ENDROOT
BRANCH   1   7
HETATM    7  N   UNL     1      41.404 -13.789   4.193  1.00  0.00    -0.325 N 
HETATM    8  C   UNL     1      42.351 -14.331   3.339  1.00  0.00     0.251 C 
HETATM    9  O   UNL     1      43.356 -13.770   2.911  1.00  0.00    -0.270 OA
HETATM   10  H   UNL     1      40.599 -14.385   4.369  1.00  0.00     0.169 HD
BRANCH   8  11
HETATM   11  C   UNL     1      42.066 -15.802   2.993  1.00  0.00     0.217 C 
HETATM   12  C   UNL     1      40.828 -15.866   2.106  1.00  0.00     0.050 C 
BRANCH  11  13
HETATM   13  O   UNL     1      43.148 -16.383   2.250  1.00  0.00    -0.337 OA
BRANCH  13  14
HETATM   14  C   UNL     1      43.540 -17.597   2.744  1.00  0.00     0.070 A 
HETATM   15  C   UNL     1      43.901 -17.645   4.090  1.00  0.00     0.043 A 
HETATM   16  C   UNL     1      44.308 -18.853   4.668  1.00  0.00    -0.059 A 
HETATM   17  C   UNL     1      44.705 -18.920   6.113  1.00  0.00     0.048 C 
HETATM   18  C   UNL     1      44.310 -20.015   3.885  1.00  0.00     0.013 A 
HETATM   19  C   UNL     1      43.923 -19.978   2.537  1.00  0.00    -0.059 A 
HETATM   20  C   UNL     1      43.528 -18.760   1.972  1.00  0.00     0.043 A 
HETATM   21  C   UNL     1      43.906 -21.244   1.731  1.00  0.00     0.048 C 
ENDBRANCH  13  14
ENDBRANCH  11  13
ENDBRANCH   8  11
ENDBRANCH   1   7
BRANCH   3  22
HETATM   22  C   UNL     1      41.961 -10.661   8.033  1.00  0.00     0.181 A 
HETATM   23  O   UNL     1      43.238 -10.946   8.449  1.00  0.00    -0.289 OA
HETATM   24  C   UNL     1      43.247 -10.587   9.763  1.00  0.00     0.106 A 
HETATM   25  C   UNL     1      41.988 -10.105  10.079  1.00  0.00     0.093 A 
HETATM   26  C   UNL     1      44.309 -10.675  10.653  1.00  0.00     0.040 A 
HETATM   27  N   UNL     1      41.177 -10.162   8.974  1.00  0.00    -0.221 NA
HETATM   28  C   UNL     1      41.741  -9.661  11.384  1.00  0.00     0.034 A 
HETATM   29  C   UNL     1      42.789  -9.730  12.315  1.00  0.00     0.002 A 
HETATM   30  C   UNL     1      44.048 -10.229  11.955  1.00  0.00     0.003 A 
ENDBRANCH   3  22
TORSDOF 5
ENDMDL
MODEL 8
REMARK VINA RESULT:      -8.9      2.986      4.169
REMARK  5 active torsions:
REMARK  status: ('A' for Active; 'I' for Inactive)
REMARK    1  A    between atoms: C_4  and  O_5 
REMARK    2  A    between atoms: O_5  and  C_6 
REMARK    3  A    between atoms: C_6  and  C_7 
REMARK       I    between atoms: C_7  and  N_8 
REMARK    4  A    between atoms: N_8  and  C_9 
REMARK    5  A    between atoms: C_11  and  C_12 
ROOT
HETATM    1  C   UNL     1      41.011 -12.793   4.574  1.00  0.00     0.035 A 
HETATM    2  C   UNL     1      41.450 -12.515   5.873  1.00  0.00     0.045 A 
HETATM    3  C   UNL     1      41.485 -11.197   6.361  1.00  0.00     0.019 A 
HETATM    4  C   UNL     1      41.066 -10.156   5.521  1.00  0.00     0.016 A 
HETATM    5  C   UNL     1      40.620 -10.422   4.228  1.00  0.00     0.003 A 
HETATM    6  C   UNL     1      40.594 -11.735   3.758  1.00  0.00     0.029 A 
ENDROOT
BRANCH   1   7
HETATM    7  N   UNL     1      40.951 -14.087   4.024  1.00  0.00    -0.325 N 
HETATM    8  C   UNL     1      41.858 -14.698   3.173  1.00  0.00     0.251 C 
HETATM    9  O   UNL     1      42.885 -14.201   2.721  1.00  0.00    -0.270 OA
HETATM   10  H   UNL     1      40.118 -14.635   4.224  1.00  0.00     0.169 HD
BRANCH   8  11
HETATM   11  C   UNL     1      41.491 -16.159   2.866  1.00  0.00     0.217 C 
HETATM   12  C   UNL     1      40.190 -16.181   2.070  1.00  0.00     0.050 C 
BRANCH  11  13
HETATM   13  O   UNL     1      42.492 -16.789   2.052  1.00  0.00    -0.337 OA
BRANCH  13  14
HETATM   14  C   UNL     1      43.109 -17.835   2.684  1.00  0.00     0.070 A 
HETATM   15  C   UNL     1      43.222 -19.026   1.969  1.00  0.00     0.043 A 
HETATM   16  C   UNL     1      43.846 -20.138   2.547  1.00  0.00    -0.059 A 
HETATM   17  C   UNL     1      43.969 -21.429   1.794  1.00  0.00     0.048 C 
HETATM   18  C   UNL     1      44.386 -20.022   3.835  1.00  0.00     0.013 A 
HETATM   19  C   UNL     1      44.299 -18.818   4.548  1.00  0.00    -0.059 A 
HETATM   20  C   UNL     1      43.663 -17.718   3.960  1.00  0.00     0.043 A 
HETATM   21  C   UNL     1      44.913 -18.713   5.914  1.00  0.00     0.048 C 
ENDBRANCH  13  14
ENDBRANCH  11  13
ENDBRANCH   8  11
ENDBRANCH   1   7
BRANCH   3  22
HETATM   22  C   UNL     1      41.950 -10.886   7.712  1.00  0.00     0.181 A 
HETATM   23  O   UNL     1      43.203 -11.334   8.051  1.00  0.00    -0.289 OA
HETATM   24  C   UNL     1      43.370 -10.910   9.335  1.00  0.00     0.106 A 
HETATM   25  C   UNL     1      42.224 -10.231   9.710  1.00  0.00     0.093 A 
HETATM   26  C   UNL     1      44.479 -11.106  10.149  1.00  0.00     0.040 A 
HETATM   27  N   UNL     1      41.325 -10.226   8.674  1.00  0.00    -0.221 NA
HETATM   28  C   UNL     1      42.151  -9.686  10.998  1.00  0.00     0.034 A 
HETATM   29  C   UNL     1      43.252  -9.859  11.853  1.00  0.00     0.002 A 
HETATM   30  C   UNL     1      44.392 -10.557  11.434  1.00  0.00     0.003 A 
ENDBRANCH   3  22
TORSDOF 5
ENDMDL
MODEL 9
REMARK VINA RESULT:      -8.9      5.408      9.492
REMARK  5 active torsions:
REMARK  status: ('A' for Active; 'I' for Inactive)
REMARK    1  A    between atoms: C_4  and  O_5 
REMARK    2  A    between atoms: O_5  and  C_6 
REMARK    3  A    between atoms: C_6  and  C_7 
REMARK       I    between atoms: C_7  and  N_8 
REMARK    4  A    between atoms: N_8  and  C_9 
REMARK    5  A    between atoms: C_11  and  C_12 
ROOT
HETATM    1  C   UNL     1      43.008 -14.452   3.831  1.00  0.00     0.035 A 
HETATM    2  C   UNL     1      43.240 -15.805   3.563  1.00  0.00     0.045 A 
HETATM    3  C   UNL     1      43.646 -16.688   4.580  1.00  0.00     0.019 A 
HETATM    4  C   UNL     1      43.813 -16.187   5.879  1.00  0.00     0.016 A 
HETATM    5  C   UNL     1      43.579 -14.842   6.158  1.00  0.00     0.003 A 
HETATM    6  C   UNL     1      43.178 -13.980   5.137  1.00  0.00     0.029 A 
ENDROOT
BRANCH   1   7
HETATM    7  N   UNL     1      42.601 -13.517   2.861  1.00  0.00    -0.325 N 
HETATM    8  C   UNL     1      41.337 -13.338   2.322  1.00  0.00     0.251 C 
HETATM    9  O   UNL     1      40.331 -13.989   2.587  1.00  0.00    -0.270 OA
HETATM   10  H   UNL     1      43.325 -12.930   2.454  1.00  0.00     0.169 HD
BRANCH   8  11
HETATM   11  C   UNL     1      41.269 -12.147   1.353  1.00  0.00     0.217 C 
HETATM   12  C   UNL     1      41.014 -10.875   2.155  1.00  0.00     0.050 C 
BRANCH  11  13
HETATM   13  O   UNL     1      42.514 -11.965   0.661  1.00  0.00    -0.337 OA
BRANCH  13  14
HETATM   14  C   UNL     1      42.385 -12.060  -0.698  1.00  0.00     0.070 A 
HETATM   15  C   UNL     1      41.978 -13.292  -1.209  1.00  0.00     0.043 A 
HETATM   16  C   UNL     1      41.819 -13.464  -2.589  1.00  0.00    -0.059 A 
HETATM   17  C   UNL     1      41.389 -14.785  -3.155  1.00  0.00     0.048 C 
HETATM   18  C   UNL     1      42.035 -12.373  -3.441  1.00  0.00     0.013 A 
HETATM   19  C   UNL     1      42.419 -11.124  -2.930  1.00  0.00    -0.059 A 
HETATM   20  C   UNL     1      42.584 -10.971  -1.549  1.00  0.00     0.043 A 
HETATM   21  C   UNL     1      42.615  -9.965  -3.863  1.00  0.00     0.048 C 
ENDBRANCH  13  14
ENDBRANCH  11  13
ENDBRANCH   8  11
ENDBRANCH   1   7
BRANCH   3  22
HETATM   22  C   UNL     1      43.902 -18.103   4.317  1.00  0.00     0.181 A 
HETATM   23  O   UNL     1      43.637 -18.552   3.047  1.00  0.00    -0.289 OA
HETATM   24  C   UNL     1      43.961 -19.874   3.088  1.00  0.00     0.106 A 
HETATM   25  C   UNL     1      44.405 -20.162   4.368  1.00  0.00     0.093 A 
HETATM   26  C   UNL     1      43.876 -20.795   2.052  1.00  0.00     0.040 A 
HETATM   27  N   UNL     1      44.357 -19.031   5.143  1.00  0.00    -0.221 NA
HETATM   28  C   UNL     1      44.808 -21.470   4.667  1.00  0.00     0.034 A 
HETATM   29  C   UNL     1      44.740 -22.432   3.646  1.00  0.00     0.002 A 
HETATM   30  C   UNL     1      44.281 -22.099   2.365  1.00  0.00     0.003 A 
ENDBRANCH   3  22
TORSDOF 5
ENDMDL
MODEL 10
REMARK VINA RESULT:      -8.8      5.278      9.236
REMARK  5 active torsions:
REMARK  status: ('A' for Active; 'I' for Inactive)
REMARK    1  A    between atoms: C_4  and  O_5 
REMARK    2  A    between atoms: O_5  and  C_6 
REMARK    3  A    between atoms: C_6  and  C_7 
REMARK       I    between atoms: C_7  and  N_8 
REMARK    4  A    between atoms: N_8  and  C_9 
REMARK    5  A    between atoms: C_11  and  C_12 
ROOT
HETATM    1  C   UNL     1      43.093 -14.646   4.299  1.00  0.00     0.035 A 
HETATM    2  C   UNL     1      43.312 -16.001   4.025  1.00  0.00     0.045 A 
HETATM    3  C   UNL     1      43.782 -16.876   5.020  1.00  0.00     0.019 A 
HETATM    4  C   UNL     1      44.026 -16.367   6.304  1.00  0.00     0.016 A 
HETATM    5  C   UNL     1      43.805 -15.022   6.589  1.00  0.00     0.003 A 
HETATM    6  C   UNL     1      43.340 -14.166   5.590  1.00  0.00     0.029 A 
ENDROOT
BRANCH   1   7
HETATM    7  N   UNL     1      42.624 -13.719   3.350  1.00  0.00    -0.325 N 
HETATM    8  C   UNL     1      41.498 -13.809   2.548  1.00  0.00     0.251 C 
HETATM    9  O   UNL     1      40.702 -14.743   2.508  1.00  0.00    -0.270 OA
HETATM   10  H   UNL     1      43.204 -12.900   3.180  1.00  0.00     0.169 HD
BRANCH   8  11
HETATM   11  C   UNL     1      41.269 -12.545   1.703  1.00  0.00     0.217 C 
HETATM   12  C   UNL     1      40.958 -11.380   2.636  1.00  0.00     0.050 C 
BRANCH  11  13
HETATM   13  O   UNL     1      42.447 -12.190   0.964  1.00  0.00    -0.337 OA
BRANCH  13  14
HETATM   14  C   UNL     1      42.268 -12.265  -0.390  1.00  0.00     0.070 A 
HETATM   15  C   UNL     1      42.552 -11.118  -1.130  1.00  0.00     0.043 A 
HETATM   16  C   UNL     1      42.397 -11.121  -2.521  1.00  0.00    -0.059 A 
HETATM   17  C   UNL     1      42.692  -9.893  -3.330  1.00  0.00     0.048 C 
HETATM   18  C   UNL     1      41.993 -12.301  -3.159  1.00  0.00     0.013 A 
HETATM   19  C   UNL     1      41.732 -13.466  -2.423  1.00  0.00    -0.059 A 
HETATM   20  C   UNL     1      41.881 -13.444  -1.031  1.00  0.00     0.043 A 
HETATM   21  C   UNL     1      41.329 -14.724  -3.135  1.00  0.00     0.048 C 
ENDBRANCH  13  14
ENDBRANCH  11  13
ENDBRANCH   8  11
ENDBRANCH   1   7
BRANCH   3  22
HETATM   22  C   UNL     1      44.027 -18.292   4.750  1.00  0.00     0.181 A 
HETATM   23  O   UNL     1      43.894 -18.703   3.447  1.00  0.00    -0.289 OA
HETATM   24  C   UNL     1      44.175 -20.035   3.489  1.00  0.00     0.106 A 
HETATM   25  C   UNL     1      44.462 -20.367   4.802  1.00  0.00     0.093 A 
HETATM   26  C   UNL     1      44.182 -20.929   2.426  1.00  0.00     0.040 A 
HETATM   27  N   UNL     1      44.359 -19.253   5.597  1.00  0.00    -0.221 NA
HETATM   28  C   UNL     1      44.793 -21.692   5.109  1.00  0.00     0.034 A 
HETATM   29  C   UNL     1      44.814 -22.628   4.062  1.00  0.00     0.002 A 
HETATM   30  C   UNL     1      44.512 -22.252   2.747  1.00  0.00     0.003 A 
ENDBRANCH   3  22
TORSDOF 5
ENDMDL
