MODEL 1
REMARK VINA RESULT:      -8.2      0.000      0.000
REMARK  3 active torsions:
REMARK  status: ('A' for Active; 'I' for Inactive)
REMARK    1  A    between atoms: C_3  and  N_4 
REMARK       I    between atoms: N_4  and  C_5 
REMARK    2  A    between atoms: C_5  and  C_6 
REMARK    3  A    between atoms: C_6  and  C_7 
ROOT
HETATM    1  C   UNL     1      43.431 -15.630   2.863  1.00  0.00     0.286 C 
HETATM    2  N   UNL     1      42.605 -16.243   1.732  1.00  0.00    -0.056 N 
HETATM    3  H   UNL     1      43.224 -16.322   0.916  1.00  0.00     0.278 HD
HETATM    4  H   UNL     1      42.402 -17.237   1.976  1.00  0.00     0.278 HD
HETATM    5  C   UNL     1      41.358 -15.533   1.305  1.00  0.00     0.209 C 
HETATM    6  C   UNL     1      41.665 -14.032   1.111  1.00  0.00     0.115 C 
HETATM    7  N   UNL     1      42.342 -13.459   2.269  1.00  0.00    -0.353 N 
HETATM    8  C   UNL     1      43.326 -14.100   2.975  1.00  0.00     0.249 C 
HETATM    9  O   UNL     1      44.055 -13.459   3.727  1.00  0.00    -0.271 OA
HETATM   10  C   UNL     1      40.221 -15.792   2.293  1.00  0.00     0.035 C 
HETATM   11  C   UNL     1      38.967 -15.023   1.884  1.00  0.00     0.002 C 
HETATM   12  C   UNL     1      39.249 -13.529   1.749  1.00  0.00     0.002 C 
HETATM   13  C   UNL     1      40.391 -13.252   0.771  1.00  0.00     0.027 C 
HETATM   14  H   UNL     1      42.390 -12.444   2.354  1.00  0.00     0.163 HD
ENDROOT
BRANCH   1  15
HETATM   15  C   UNL     1      43.144 -16.247   4.241  1.00  0.00     0.146 C 
BRANCH  15  16
HETATM   16  C   UNL     1      42.962 -17.745   4.173  1.00  0.00     0.224 C 
HETATM   17  N   UNL     1      44.143 -18.443   4.066  1.00  0.00    -0.327 N 
HETATM   18  H   UNL     1      44.989 -17.910   3.909  1.00  0.00     0.169 HD
HETATM   19  O   UNL     1      41.823 -18.204   4.257  1.00  0.00    -0.273 OA
BRANCH  17  20
HETATM   20  C   UNL     1      44.316 -19.851   4.082  1.00  0.00     0.040 A 
HETATM   21  C   UNL     1      44.156 -20.570   2.876  1.00  0.00    -0.035 A 
HETATM   22  C   UNL     1      43.765 -19.911   1.580  1.00  0.00     0.050 C 
HETATM   23  C   UNL     1      44.350 -21.963   2.874  1.00  0.00     0.009 A 
HETATM   24  C   UNL     1      44.699 -22.640   4.040  1.00  0.00     0.001 A 
HETATM   25  C   UNL     1      44.858 -21.932   5.224  1.00  0.00     0.002 A 
HETATM   26  C   UNL     1      44.668 -20.547   5.245  1.00  0.00     0.030 A 
ENDBRANCH  17  20
ENDBRANCH  15  16
ENDBRANCH   1  15
TORSDOF 3
ENDMDL
MODEL 2
REMARK VINA RESULT:      -8.2      2.533      2.909
REMARK  3 active torsions:
REMARK  status: ('A' for Active; 'I' for Inactive)
REMARK    1  A    between atoms: C_3  and  N_4 
REMARK       I    between atoms: N_4  and  C_5 
REMARK    2  A    between atoms: C_5  and  C_6 
REMARK    3  A    between atoms: C_6  and  C_7 
ROOT
HETATM    1  C   UNL     1      43.983 -15.609   5.775  1.00  0.00     0.286 C 
HETATM    2  N   UNL     1      43.144 -15.398   4.515  1.00  0.00    -0.056 N 
HETATM    3  H   UNL     1      43.780 -15.057   3.784  1.00  0.00     0.278 HD
HETATM    4  H   UNL     1      42.849 -16.333   4.158  1.00  0.00     0.278 HD
HETATM    5  C   UNL     1      41.977 -14.464   4.592  1.00  0.00     0.209 C 
HETATM    6  C   UNL     1      42.418 -13.151   5.275  1.00  0.00     0.115 C 
HETATM    7  N   UNL     1      43.103 -13.396   6.540  1.00  0.00    -0.353 N 
HETATM    8  C   UNL     1      44.006 -14.409   6.736  1.00  0.00     0.249 C 
HETATM    9  O   UNL     1      44.763 -14.373   7.703  1.00  0.00    -0.271 OA
HETATM   10  C   UNL     1      40.791 -15.134   5.286  1.00  0.00     0.035 C 
HETATM   11  C   UNL     1      39.621 -14.162   5.412  1.00  0.00     0.002 C 
HETATM   12  C   UNL     1      40.034 -12.886   6.140  1.00  0.00     0.002 C 
HETATM   13  C   UNL     1      41.226 -12.206   5.465  1.00  0.00     0.027 C 
HETATM   14  H   UNL     1      43.236 -12.616   7.183  1.00  0.00     0.163 HD
ENDROOT
BRANCH   1  15
HETATM   15  C   UNL     1      43.601 -16.869   6.568  1.00  0.00     0.146 C 
BRANCH  15  16
HETATM   16  C   UNL     1      43.273 -18.037   5.668  1.00  0.00     0.224 C 
HETATM   17  N   UNL     1      44.381 -18.705   5.201  1.00  0.00    -0.327 N 
HETATM   18  H   UNL     1      45.288 -18.292   5.382  1.00  0.00     0.169 HD
HETATM   19  O   UNL     1      42.090 -18.310   5.466  1.00  0.00    -0.273 OA
BRANCH  17  20
HETATM   20  C   UNL     1      44.409 -19.892   4.425  1.00  0.00     0.040 A 
HETATM   21  C   UNL     1      44.214 -19.797   3.029  1.00  0.00    -0.035 A 
HETATM   22  C   UNL     1      43.935 -18.492   2.332  1.00  0.00     0.050 C 
HETATM   23  C   UNL     1      44.263 -20.965   2.246  1.00  0.00     0.009 A 
HETATM   24  C   UNL     1      44.504 -22.207   2.826  1.00  0.00     0.001 A 
HETATM   25  C   UNL     1      44.697 -22.299   4.198  1.00  0.00     0.002 A 
HETATM   26  C   UNL     1      44.649 -21.150   4.992  1.00  0.00     0.030 A 
ENDBRANCH  17  20
ENDBRANCH  15  16
ENDBRANCH   1  15
TORSDOF 3
ENDMDL
MODEL 3
REMARK VINA RESULT:      -8.1      2.942      3.792
REMARK  3 active torsions:
REMARK  status: ('A' for Active; 'I' for Inactive)
REMARK    1  A    between atoms: C_3  and  N_4 
REMARK       I    between atoms: N_4  and  C_5 
REMARK    2  A    between atoms: C_5  and  C_6 
REMARK    3  A    between atoms: C_6  and  C_7 
ROOT
HETATM    1  C   UNL     1      41.185 -15.355   0.387  1.00  0.00     0.286 C 
HETATM    2  N   UNL     1      41.828 -14.919  -0.929  1.00  0.00    -0.056 N 
HETATM    3  H   UNL     1      42.387 -14.081  -0.727  1.00  0.00     0.278 HD
HETATM    4  H   UNL     1      42.547 -15.628  -1.193  1.00  0.00     0.278 HD
HETATM    5  C   UNL     1      40.928 -14.613  -2.086  1.00  0.00     0.209 C 
HETATM    6  C   UNL     1      39.784 -13.690  -1.614  1.00  0.00     0.115 C 
HETATM    7  N   UNL     1      39.115 -14.211  -0.427  1.00  0.00    -0.353 N 
HETATM    8  C   UNL     1      39.771 -14.800   0.624  1.00  0.00     0.249 C 
HETATM    9  O   UNL     1      39.200 -14.933   1.702  1.00  0.00    -0.271 OA
HETATM   10  C   UNL     1      40.431 -15.901  -2.741  1.00  0.00     0.035 C 
HETATM   11  C   UNL     1      39.471 -15.587  -3.886  1.00  0.00     0.002 C 
HETATM   12  C   UNL     1      38.304 -14.724  -3.413  1.00  0.00     0.002 C 
HETATM   13  C   UNL     1      38.784 -13.434  -2.746  1.00  0.00     0.027 C 
HETATM   14  H   UNL     1      38.214 -13.817  -0.161  1.00  0.00     0.163 HD
ENDROOT
BRANCH   1  15
HETATM   15  C   UNL     1      41.156 -16.879   0.585  1.00  0.00     0.146 C 
BRANCH  15  16
HETATM   16  C   UNL     1      42.415 -17.397   1.242  1.00  0.00     0.224 C 
HETATM   17  N   UNL     1      42.211 -18.499   2.039  1.00  0.00    -0.327 N 
HETATM   18  H   UNL     1      41.254 -18.775   2.221  1.00  0.00     0.169 HD
HETATM   19  O   UNL     1      43.483 -16.839   0.989  1.00  0.00    -0.273 OA
BRANCH  17  20
HETATM   20  C   UNL     1      43.194 -19.273   2.708  1.00  0.00     0.040 A 
HETATM   21  C   UNL     1      43.581 -18.901   4.015  1.00  0.00    -0.035 A 
HETATM   22  C   UNL     1      43.024 -17.690   4.716  1.00  0.00     0.050 C 
HETATM   23  C   UNL     1      44.537 -19.676   4.697  1.00  0.00     0.009 A 
HETATM   24  C   UNL     1      45.103 -20.801   4.104  1.00  0.00     0.001 A 
HETATM   25  C   UNL     1      44.721 -21.166   2.819  1.00  0.00     0.002 A 
HETATM   26  C   UNL     1      43.774 -20.408   2.126  1.00  0.00     0.030 A 
ENDBRANCH  17  20
ENDBRANCH  15  16
ENDBRANCH   1  15
TORSDOF 3
ENDMDL
MODEL 4
REMARK VINA RESULT:      -8.1      2.004      3.654
REMARK  3 active torsions:
REMARK  status: ('A' for Active; 'I' for Inactive)
REMARK    1  A    between atoms: C_3  and  N_4 
REMARK       I    between atoms: N_4  and  C_5 
REMARK    2  A    between atoms: C_5  and  C_6 
REMARK    3  A    between atoms: C_6  and  C_7 
ROOT
HETATM    1  C   UNL     1      42.163 -15.198   2.983  1.00  0.00     0.286 C 
HETATM    2  N   UNL     1      41.721 -15.780   4.325  1.00  0.00    -0.056 N 
HETATM    3  H   UNL     1      40.708 -15.625   4.401  1.00  0.00     0.278 HD
HETATM    4  H   UNL     1      41.800 -16.820   4.273  1.00  0.00     0.278 HD
HETATM    5  C   UNL     1      42.369 -15.257   5.569  1.00  0.00     0.209 C 
HETATM    6  C   UNL     1      42.376 -13.713   5.530  1.00  0.00     0.115 C 
HETATM    7  N   UNL     1      42.925 -13.200   4.280  1.00  0.00    -0.353 N 
HETATM    8  C   UNL     1      42.665 -13.746   3.050  1.00  0.00     0.249 C 
HETATM    9  O   UNL     1      42.899 -13.099   2.033  1.00  0.00    -0.271 OA
HETATM   10  C   UNL     1      43.760 -15.861   5.751  1.00  0.00     0.035 C 
HETATM   11  C   UNL     1      44.440 -15.285   6.990  1.00  0.00     0.002 C 
HETATM   12  C   UNL     1      44.505 -13.761   6.931  1.00  0.00     0.002 C 
HETATM   13  C   UNL     1      43.121 -13.139   6.740  1.00  0.00     0.027 C 
HETATM   14  H   UNL     1      43.190 -12.217   4.230  1.00  0.00     0.163 HD
ENDROOT
BRANCH   1  15
HETATM   15  C   UNL     1      43.215 -16.051   2.256  1.00  0.00     0.146 C 
BRANCH  15  16
HETATM   16  C   UNL     1      42.971 -17.532   2.428  1.00  0.00     0.224 C 
HETATM   17  N   UNL     1      44.124 -18.280   2.499  1.00  0.00    -0.327 N 
HETATM   18  H   UNL     1      44.999 -17.811   2.301  1.00  0.00     0.169 HD
HETATM   19  O   UNL     1      41.810 -17.930   2.527  1.00  0.00    -0.273 OA
BRANCH  17  20
HETATM   20  C   UNL     1      44.235 -19.670   2.756  1.00  0.00     0.040 A 
HETATM   21  C   UNL     1      44.648 -20.095   4.039  1.00  0.00    -0.035 A 
HETATM   22  C   UNL     1      45.016 -19.132   5.137  1.00  0.00     0.050 C 
HETATM   23  C   UNL     1      44.738 -21.472   4.313  1.00  0.00     0.009 A 
HETATM   24  C   UNL     1      44.425 -22.418   3.340  1.00  0.00     0.001 A 
HETATM   25  C   UNL     1      44.018 -21.999   2.080  1.00  0.00     0.002 A 
HETATM   26  C   UNL     1      43.924 -20.635   1.790  1.00  0.00     0.030 A 
ENDBRANCH  17  20
ENDBRANCH  15  16
ENDBRANCH   1  15
TORSDOF 3
ENDMDL
MODEL 5
REMARK VINA RESULT:      -8.0      2.030      2.914
REMARK  3 active torsions:
REMARK  status: ('A' for Active; 'I' for Inactive)
REMARK    1  A    between atoms: C_3  and  N_4 
REMARK       I    between atoms: N_4  and  C_5 
REMARK    2  A    between atoms: C_5  and  C_6 
REMARK    3  A    between atoms: C_6  and  C_7 
ROOT
HETATM    1  C   UNL     1      41.169 -16.372   1.926  1.00  0.00     0.286 C 
HETATM    2  N   UNL     1      40.230 -15.941   3.052  1.00  0.00    -0.056 N 
HETATM    3  H   UNL     1      39.526 -16.682   3.157  1.00  0.00     0.278 HD
HETATM    4  H   UNL     1      40.756 -15.982   3.952  1.00  0.00     0.278 HD
HETATM    5  C   UNL     1      39.513 -14.633   2.912  1.00  0.00     0.209 C 
HETATM    6  C   UNL     1      38.883 -14.545   1.505  1.00  0.00     0.115 C 
HETATM    7  N   UNL     1      39.851 -14.841   0.453  1.00  0.00    -0.353 N 
HETATM    8  C   UNL     1      40.790 -15.835   0.536  1.00  0.00     0.249 C 
HETATM    9  O   UNL     1      41.356 -16.228  -0.480  1.00  0.00    -0.271 OA
HETATM   10  C   UNL     1      40.448 -13.467   3.227  1.00  0.00     0.035 C 
HETATM   11  C   UNL     1      39.731 -12.133   3.030  1.00  0.00     0.002 C 
HETATM   12  C   UNL     1      39.157 -12.013   1.621  1.00  0.00     0.002 C 
HETATM   13  C   UNL     1      38.226 -13.178   1.284  1.00  0.00     0.027 C 
HETATM   14  H   UNL     1      39.618 -14.595  -0.508  1.00  0.00     0.163 HD
ENDROOT
BRANCH   1  15
HETATM   15  C   UNL     1      42.647 -16.045   2.196  1.00  0.00     0.146 C 
BRANCH  15  16
HETATM   16  C   UNL     1      43.531 -17.267   2.103  1.00  0.00     0.224 C 
HETATM   17  N   UNL     1      43.081 -18.335   2.844  1.00  0.00    -0.327 N 
HETATM   18  H   UNL     1      42.303 -18.175   3.472  1.00  0.00     0.169 HD
HETATM   19  O   UNL     1      44.519 -17.223   1.370  1.00  0.00    -0.273 OA
BRANCH  17  20
HETATM   20  C   UNL     1      43.626 -19.644   2.889  1.00  0.00     0.040 A 
HETATM   21  C   UNL     1      44.355 -20.039   4.033  1.00  0.00    -0.035 A 
HETATM   22  C   UNL     1      44.616 -19.115   5.193  1.00  0.00     0.050 C 
HETATM   23  C   UNL     1      44.879 -21.343   4.098  1.00  0.00     0.009 A 
HETATM   24  C   UNL     1      44.687 -22.246   3.056  1.00  0.00     0.001 A 
HETATM   25  C   UNL     1      43.969 -21.857   1.933  1.00  0.00     0.002 A 
HETATM   26  C   UNL     1      43.443 -20.565   1.850  1.00  0.00     0.030 A 
ENDBRANCH  17  20
ENDBRANCH  15  16
ENDBRANCH   1  15
TORSDOF 3
ENDMDL
MODEL 6
REMARK VINA RESULT:      -7.9      2.089      2.246
REMARK  3 active torsions:
REMARK  status: ('A' for Active; 'I' for Inactive)
REMARK    1  A    between atoms: C_3  and  N_4 
REMARK       I    between atoms: N_4  and  C_5 
REMARK    2  A    between atoms: C_5  and  C_6 
REMARK    3  A    between atoms: C_6  and  C_7 
ROOT
HETATM    1  C   UNL     1      42.468 -15.136   3.600  1.00  0.00     0.286 C 
HETATM    2  N   UNL     1      40.943 -15.124   3.501  1.00  0.00    -0.056 N 
HETATM    3  H   UNL     1      40.706 -15.168   2.503  1.00  0.00     0.278 HD
HETATM    4  H   UNL     1      40.584 -16.032   3.872  1.00  0.00     0.278 HD
HETATM    5  C   UNL     1      40.206 -13.970   4.107  1.00  0.00     0.209 C 
HETATM    6  C   UNL     1      40.871 -12.650   3.662  1.00  0.00     0.115 C 
HETATM    7  N   UNL     1      42.311 -12.658   3.893  1.00  0.00    -0.353 N 
HETATM    8  C   UNL     1      43.116 -13.743   3.664  1.00  0.00     0.249 C 
HETATM    9  O   UNL     1      44.332 -13.596   3.583  1.00  0.00    -0.271 OA
HETATM   10  C   UNL     1      40.120 -14.119   5.625  1.00  0.00     0.035 C 
HETATM   11  C   UNL     1      39.415 -12.915   6.245  1.00  0.00     0.002 C 
HETATM   12  C   UNL     1      40.103 -11.608   5.858  1.00  0.00     0.002 C 
HETATM   13  C   UNL     1      40.207 -11.447   4.341  1.00  0.00     0.027 C 
HETATM   14  H   UNL     1      42.817 -11.774   3.854  1.00  0.00     0.163 HD
ENDROOT
BRANCH   1  15
HETATM   15  C   UNL     1      43.005 -15.984   4.764  1.00  0.00     0.146 C 
BRANCH  15  16
HETATM   16  C   UNL     1      42.841 -17.466   4.519  1.00  0.00     0.224 C 
HETATM   17  N   UNL     1      44.025 -18.122   4.271  1.00  0.00    -0.327 N 
HETATM   18  H   UNL     1      44.855 -17.557   4.142  1.00  0.00     0.169 HD
HETATM   19  O   UNL     1      41.713 -17.954   4.598  1.00  0.00    -0.273 OA
BRANCH  17  20
HETATM   20  C   UNL     1      44.219 -19.517   4.103  1.00  0.00     0.040 A 
HETATM   21  C   UNL     1      44.023 -20.082   2.823  1.00  0.00    -0.035 A 
HETATM   22  C   UNL     1      43.576 -19.273   1.634  1.00  0.00     0.050 C 
HETATM   23  C   UNL     1      44.237 -21.461   2.639  1.00  0.00     0.009 A 
HETATM   24  C   UNL     1      44.639 -22.271   3.697  1.00  0.00     0.001 A 
HETATM   25  C   UNL     1      44.832 -21.714   4.955  1.00  0.00     0.002 A 
HETATM   26  C   UNL     1      44.623 -20.347   5.156  1.00  0.00     0.030 A 
ENDBRANCH  17  20
ENDBRANCH  15  16
ENDBRANCH   1  15
TORSDOF 3
ENDMDL
MODEL 7
REMARK VINA RESULT:      -7.4      1.852      2.852
REMARK  3 active torsions:
REMARK  status: ('A' for Active; 'I' for Inactive)
REMARK    1  A    between atoms: C_3  and  N_4 
REMARK       I    between atoms: N_4  and  C_5 
REMARK    2  A    between atoms: C_5  and  C_6 
REMARK    3  A    between atoms: C_6  and  C_7 
ROOT
HETATM    1  C   UNL     1      41.474 -16.490   1.161  1.00  0.00     0.286 C 
HETATM    2  N   UNL     1      40.710 -16.799   2.447  1.00  0.00    -0.056 N 
HETATM    3  H   UNL     1      39.725 -16.938   2.187  1.00  0.00     0.278 HD
HETATM    4  H   UNL     1      41.003 -17.743   2.784  1.00  0.00     0.278 HD
HETATM    5  C   UNL     1      40.762 -15.797   3.558  1.00  0.00     0.209 C 
HETATM    6  C   UNL     1      40.481 -14.389   2.988  1.00  0.00     0.115 C 
HETATM    7  N   UNL     1      41.325 -14.087   1.837  1.00  0.00    -0.353 N 
HETATM    8  C   UNL     1      41.627 -14.991   0.853  1.00  0.00     0.249 C 
HETATM    9  O   UNL     1      42.074 -14.598  -0.221  1.00  0.00    -0.271 OA
HETATM   10  C   UNL     1      42.089 -15.888   4.309  1.00  0.00     0.035 C 
HETATM   11  C   UNL     1      42.161 -14.829   5.406  1.00  0.00     0.002 C 
HETATM   12  C   UNL     1      41.945 -13.427   4.841  1.00  0.00     0.002 C 
HETATM   13  C   UNL     1      40.624 -13.320   4.077  1.00  0.00     0.027 C 
HETATM   14  H   UNL     1      41.393 -13.120   1.522  1.00  0.00     0.163 HD
ENDROOT
BRANCH   1  15
HETATM   15  C   UNL     1      42.860 -17.152   1.091  1.00  0.00     0.146 C 
BRANCH  15  16
HETATM   16  C   UNL     1      42.860 -18.545   1.675  1.00  0.00     0.224 C 
HETATM   17  N   UNL     1      44.041 -18.888   2.292  1.00  0.00    -0.327 N 
HETATM   18  H   UNL     1      44.825 -18.256   2.187  1.00  0.00     0.169 HD
HETATM   19  O   UNL     1      41.833 -19.219   1.591  1.00  0.00    -0.273 OA
BRANCH  17  20
HETATM   20  C   UNL     1      44.322 -20.074   3.017  1.00  0.00     0.040 A 
HETATM   21  C   UNL     1      44.553 -19.984   4.408  1.00  0.00    -0.035 A 
HETATM   22  C   UNL     1      44.555 -18.674   5.151  1.00  0.00     0.050 C 
HETATM   23  C   UNL     1      44.809 -21.158   5.141  1.00  0.00     0.009 A 
HETATM   24  C   UNL     1      44.835 -22.402   4.516  1.00  0.00     0.001 A 
HETATM   25  C   UNL     1      44.606 -22.489   3.149  1.00  0.00     0.002 A 
HETATM   26  C   UNL     1      44.352 -21.334   2.405  1.00  0.00     0.030 A 
ENDBRANCH  17  20
ENDBRANCH  15  16
ENDBRANCH   1  15
TORSDOF 3
ENDMDL
MODEL 8
REMARK VINA RESULT:      -7.3      1.709      2.485
REMARK  3 active torsions:
REMARK  status: ('A' for Active; 'I' for Inactive)
REMARK    1  A    between atoms: C_3  and  N_4 
REMARK       I    between atoms: N_4  and  C_5 
REMARK    2  A    between atoms: C_5  and  C_6 
REMARK    3  A    between atoms: C_6  and  C_7 
ROOT
HETATM    1  C   UNL     1      42.038 -14.792   0.992  1.00  0.00     0.286 C 
HETATM    2  N   UNL     1      41.037 -14.867  -0.160  1.00  0.00    -0.056 N 
HETATM    3  H   UNL     1      41.552 -14.648  -1.022  1.00  0.00     0.278 HD
HETATM    4  H   UNL     1      40.763 -15.866  -0.292  1.00  0.00     0.278 HD
HETATM    5  C   UNL     1      39.827 -13.986  -0.102  1.00  0.00     0.209 C 
HETATM    6  C   UNL     1      40.260 -12.548   0.257  1.00  0.00     0.115 C 
HETATM    7  N   UNL     1      41.113 -12.513   1.440  1.00  0.00    -0.353 N 
HETATM    8  C   UNL     1      42.100 -13.428   1.698  1.00  0.00     0.249 C 
HETATM    9  O   UNL     1      42.967 -13.173   2.529  1.00  0.00    -0.271 OA
HETATM   10  C   UNL     1      38.786 -14.558   0.859  1.00  0.00     0.035 C 
HETATM   11  C   UNL     1      37.577 -13.630   0.958  1.00  0.00     0.002 C 
HETATM   12  C   UNL     1      37.991 -12.220   1.371  1.00  0.00     0.002 C 
HETATM   13  C   UNL     1      39.041 -11.635   0.425  1.00  0.00     0.027 C 
HETATM   14  H   UNL     1      41.272 -11.618   1.901  1.00  0.00     0.163 HD
ENDROOT
BRANCH   1  15
HETATM   15  C   UNL     1      41.844 -15.889   2.052  1.00  0.00     0.146 C 
BRANCH  15  16
HETATM   16  C   UNL     1      42.677 -17.117   1.767  1.00  0.00     0.224 C 
HETATM   17  N   UNL     1      42.743 -17.998   2.821  1.00  0.00    -0.327 N 
HETATM   18  H   UNL     1      42.358 -17.698   3.708  1.00  0.00     0.169 HD
HETATM   19  O   UNL     1      43.176 -17.243   0.649  1.00  0.00    -0.273 OA
BRANCH  17  20
HETATM   20  C   UNL     1      43.357 -19.277   2.838  1.00  0.00     0.040 A 
HETATM   21  C   UNL     1      44.197 -19.615   3.922  1.00  0.00    -0.035 A 
HETATM   22  C   UNL     1      44.505 -18.659   5.044  1.00  0.00     0.050 C 
HETATM   23  C   UNL     1      44.791 -20.890   3.962  1.00  0.00     0.009 A 
HETATM   24  C   UNL     1      44.561 -21.819   2.951  1.00  0.00     0.001 A 
HETATM   25  C   UNL     1      43.734 -21.486   1.886  1.00  0.00     0.002 A 
HETATM   26  C   UNL     1      43.136 -20.224   1.830  1.00  0.00     0.030 A 
ENDBRANCH  17  20
ENDBRANCH  15  16
ENDBRANCH   1  15
TORSDOF 3
ENDMDL
MODEL 9
REMARK VINA RESULT:      -7.2      3.097      3.750
REMARK  3 active torsions:
REMARK  status: ('A' for Active; 'I' for Inactive)
REMARK    1  A    between atoms: C_3  and  N_4 
REMARK       I    between atoms: N_4  and  C_5 
REMARK    2  A    between atoms: C_5  and  C_6 
REMARK    3  A    between atoms: C_6  and  C_7 
ROOT
HETATM    1  C   UNL     1      40.333 -14.808   4.929  1.00  0.00     0.286 C 
HETATM    2  N   UNL     1      40.112 -14.121   6.276  1.00  0.00    -0.056 N 
HETATM    3  H   UNL     1      39.225 -14.475   6.653  1.00  0.00     0.278 HD
HETATM    4  H   UNL     1      40.821 -14.485   6.950  1.00  0.00     0.278 HD
HETATM    5  C   UNL     1      40.068 -12.624   6.306  1.00  0.00     0.209 C 
HETATM    6  C   UNL     1      39.132 -12.119   5.187  1.00  0.00     0.115 C 
HETATM    7  N   UNL     1      39.461 -12.705   3.892  1.00  0.00    -0.353 N 
HETATM    8  C   UNL     1      39.815 -14.018   3.716  1.00  0.00     0.249 C 
HETATM    9  O   UNL     1      39.778 -14.515   2.593  1.00  0.00    -0.271 OA
HETATM   10  C   UNL     1      41.477 -12.038   6.223  1.00  0.00     0.035 C 
HETATM   11  C   UNL     1      41.425 -10.513   6.199  1.00  0.00     0.002 C 
HETATM   12  C   UNL     1      40.549 -10.004   5.057  1.00  0.00     0.002 C 
HETATM   13  C   UNL     1      39.137 -10.588   5.119  1.00  0.00     0.027 C 
HETATM   14  H   UNL     1      39.070 -12.284   3.051  1.00  0.00     0.163 HD
ENDROOT
BRANCH   1  15
HETATM   15  C   UNL     1      41.795 -15.206   4.671  1.00  0.00     0.146 C 
BRANCH  15  16
HETATM   16  C   UNL     1      41.953 -16.691   4.439  1.00  0.00     0.224 C 
HETATM   17  N   UNL     1      43.255 -17.086   4.241  1.00  0.00    -0.327 N 
HETATM   18  H   UNL     1      43.954 -16.360   4.133  1.00  0.00     0.169 HD
HETATM   19  O   UNL     1      40.950 -17.404   4.487  1.00  0.00    -0.273 OA
BRANCH  17  20
HETATM   20  C   UNL     1      43.743 -18.410   4.097  1.00  0.00     0.040 A 
HETATM   21  C   UNL     1      43.931 -18.930   2.797  1.00  0.00    -0.035 A 
HETATM   22  C   UNL     1      43.597 -18.151   1.552  1.00  0.00     0.050 C 
HETATM   23  C   UNL     1      44.437 -20.233   2.643  1.00  0.00     0.009 A 
HETATM   24  C   UNL     1      44.755 -21.014   3.751  1.00  0.00     0.001 A 
HETATM   25  C   UNL     1      44.571 -20.502   5.028  1.00  0.00     0.002 A 
HETATM   26  C   UNL     1      44.068 -19.210   5.200  1.00  0.00     0.030 A 
ENDBRANCH  17  20
ENDBRANCH  15  16
ENDBRANCH   1  15
TORSDOF 3
ENDMDL
MODEL 10
REMARK VINA RESULT:      -7.2      2.826      7.018
REMARK  3 active torsions:
REMARK  status: ('A' for Active; 'I' for Inactive)
REMARK    1  A    between atoms: C_3  and  N_4 
REMARK       I    between atoms: N_4  and  C_5 
REMARK    2  A    between atoms: C_5  and  C_6 
REMARK    3  A    between atoms: C_6  and  C_7 
ROOT
HETATM    1  C   UNL     1      40.918 -15.718   4.309  1.00  0.00     0.286 C 
HETATM    2  N   UNL     1      40.931 -17.236   4.476  1.00  0.00    -0.056 N 
HETATM    3  H   UNL     1      40.007 -17.507   4.835  1.00  0.00     0.278 HD
HETATM    4  H   UNL     1      40.955 -17.671   3.527  1.00  0.00     0.278 HD
HETATM    5  C   UNL     1      41.972 -17.840   5.366  1.00  0.00     0.209 C 
HETATM    6  C   UNL     1      42.015 -17.065   6.701  1.00  0.00     0.115 C 
HETATM    7  N   UNL     1      42.132 -15.625   6.494  1.00  0.00    -0.353 N 
HETATM    8  C   UNL     1      41.459 -14.936   5.518  1.00  0.00     0.249 C 
HETATM    9  O   UNL     1      41.361 -13.715   5.590  1.00  0.00    -0.271 OA
HETATM   10  C   UNL     1      43.326 -17.894   4.658  1.00  0.00     0.035 C 
HETATM   11  C   UNL     1      44.397 -18.459   5.587  1.00  0.00     0.002 C 
HETATM   12  C   UNL     1      44.486 -17.660   6.885  1.00  0.00     0.002 C 
HETATM   13  C   UNL     1      43.138 -17.588   7.602  1.00  0.00     0.027 C 
HETATM   14  H   UNL     1      42.395 -15.038   7.283  1.00  0.00     0.163 HD
ENDROOT
BRANCH   1  15
HETATM   15  C   UNL     1      41.641 -15.230   3.042  1.00  0.00     0.146 C 
BRANCH  15  16
HETATM   16  C   UNL     1      40.883 -15.573   1.781  1.00  0.00     0.224 C 
HETATM   17  N   UNL     1      41.097 -14.691   0.748  1.00  0.00    -0.327 N 
HETATM   18  H   UNL     1      41.613 -13.844   0.954  1.00  0.00     0.169 HD
HETATM   19  O   UNL     1      40.197 -16.596   1.767  1.00  0.00    -0.273 OA
BRANCH  17  20
HETATM   20  C   UNL     1      40.616 -14.788  -0.583  1.00  0.00     0.040 A 
HETATM   21  C   UNL     1      39.515 -13.992  -0.970  1.00  0.00    -0.035 A 
HETATM   22  C   UNL     1      38.800 -13.072  -0.016  1.00  0.00     0.050 C 
HETATM   23  C   UNL     1      39.045 -14.063  -2.294  1.00  0.00     0.009 A 
HETATM   24  C   UNL     1      39.651 -14.902  -3.225  1.00  0.00     0.001 A 
HETATM   25  C   UNL     1      40.734 -15.683  -2.844  1.00  0.00     0.002 A 
HETATM   26  C   UNL     1      41.213 -15.627  -1.533  1.00  0.00     0.030 A 
ENDBRANCH  17  20
ENDBRANCH  15  16
ENDBRANCH   1  15
TORSDOF 3
ENDMDL
