MODEL 1
REMARK VINA RESULT:      -9.2      0.000      0.000
REMARK  6 active torsions:
REMARK  status: ('A' for Active; 'I' for Inactive)
REMARK    1  A    between atoms: C_4  and  N_5 
REMARK    2  A    between atoms: C_7  and  C_8 
REMARK       I    between atoms: C_8  and  N_9 
REMARK    3  A    between atoms: N_9  and  N_10 
REMARK       I    between atoms: N_10  and  C_11 
REMARK    4  A    between atoms: C_11  and  C_12 
REMARK    5  A    between atoms: C_12  and  C_13 
REMARK    6  A    between atoms: C_22  and  O_23 
ROOT
HETATM    1  C   UNL     1      43.691 -14.603   6.876  1.00  0.00     0.293 C 
HETATM    2  N   UNL     1      44.308 -14.173   8.031  1.00  0.00    -0.262 N 
HETATM    3  O   UNL     1      43.139 -13.844   6.079  1.00  0.00    -0.264 OA
HETATM    4  H   UNL     1      44.809 -14.833   8.629  1.00  0.00     0.190 HD
ENDROOT
BRANCH   1   5
HETATM    5  C   UNL     1      43.750 -16.049   6.672  1.00  0.00     0.181 A 
HETATM    6  N   UNL     1      43.899 -16.609   5.457  1.00  0.00    -0.159 NA
HETATM    7  N   UNL     1      43.904 -17.958   5.686  1.00  0.00    -0.242 N 
HETATM    8  C   UNL     1      43.759 -18.243   7.027  1.00  0.00     0.158 A 
HETATM    9  C   UNL     1      43.662 -17.041   7.666  1.00  0.00     0.119 A 
BRANCH   7  10
HETATM   10  C   UNL     1      44.047 -18.877   4.608  1.00  0.00     0.058 A 
HETATM   11  C   UNL     1      43.567 -18.530   3.335  1.00  0.00     0.031 A 
HETATM   12  C   UNL     1      43.700 -19.419   2.266  1.00  0.00     0.002 A 
HETATM   13  C   UNL     1      44.308 -20.657   2.457  1.00  0.00     0.000 A 
HETATM   14  C   UNL     1      44.786 -21.010   3.718  1.00  0.00     0.002 A 
HETATM   15  C   UNL     1      44.658 -20.126   4.793  1.00  0.00     0.031 A 
ENDBRANCH   7  10
BRANCH   9  16
HETATM   16  O   UNL     1      43.514 -16.913   8.994  1.00  0.00    -0.357 OA
HETATM   17  H   UNL     1      43.142 -16.032   9.204  1.00  0.00     0.218 HD
ENDBRANCH   9  16
ENDBRANCH   1   5
BRANCH   2  18
HETATM   18  N   UNL     1      44.385 -12.809   8.321  1.00  0.00    -0.267 N 
HETATM   19  C   UNL     1      44.475 -12.432   9.647  1.00  0.00     0.240 C 
HETATM   20  O   UNL     1      44.420 -13.240  10.572  1.00  0.00    -0.272 OA
HETATM   21  H   UNL     1      44.626 -12.187   7.551  1.00  0.00     0.190 HD
BRANCH  19  22
HETATM   22  C   UNL     1      44.647 -10.941   9.861  1.00  0.00     0.143 C 
BRANCH  22  23
HETATM   23  C   UNL     1      43.703 -10.296  10.853  1.00  0.00    -0.049 A 
HETATM   24  C   UNL     1      44.003 -10.131  12.212  1.00  0.00     0.009 A 
HETATM   25  C   UNL     1      43.077  -9.546  13.083  1.00  0.00     0.019 A 
HETATM   26  C   UNL     1      41.840  -9.128  12.601  1.00  0.00     0.011 A 
HETATM   27 BR   UNL     1      40.586  -8.347  13.780  1.00  0.00    -0.051 Br
HETATM   28  C   UNL     1      41.517  -9.289  11.257  1.00  0.00     0.019 A 
HETATM   29  C   UNL     1      42.446  -9.870  10.389  1.00  0.00     0.009 A 
ENDBRANCH  22  23
ENDBRANCH  19  22
ENDBRANCH   2  18
TORSDOF 6
ENDMDL
MODEL 2
REMARK VINA RESULT:      -9.1      1.523      2.496
REMARK  6 active torsions:
REMARK  status: ('A' for Active; 'I' for Inactive)
REMARK    1  A    between atoms: C_4  and  N_5 
REMARK    2  A    between atoms: C_7  and  C_8 
REMARK       I    between atoms: C_8  and  N_9 
REMARK    3  A    between atoms: N_9  and  N_10 
REMARK       I    between atoms: N_10  and  C_11 
REMARK    4  A    between atoms: C_11  and  C_12 
REMARK    5  A    between atoms: C_12  and  C_13 
REMARK    6  A    between atoms: C_22  and  O_23 
ROOT
HETATM    1  C   UNL     1      43.746 -15.783   7.201  1.00  0.00     0.293 C 
HETATM    2  N   UNL     1      44.053 -14.447   7.047  1.00  0.00    -0.262 N 
HETATM    3  O   UNL     1      43.721 -16.351   8.292  1.00  0.00    -0.264 OA
HETATM    4  H   UNL     1      43.999 -14.004   6.127  1.00  0.00     0.190 HD
ENDROOT
BRANCH   1   5
HETATM    5  C   UNL     1      43.446 -16.473   5.947  1.00  0.00     0.181 A 
HETATM    6  N   UNL     1      43.935 -17.691   5.650  1.00  0.00    -0.159 NA
HETATM    7  N   UNL     1      43.434 -17.981   4.410  1.00  0.00    -0.242 N 
HETATM    8  C   UNL     1      42.642 -16.959   3.933  1.00  0.00     0.158 A 
HETATM    9  C   UNL     1      42.638 -15.994   4.899  1.00  0.00     0.119 A 
BRANCH   7  10
HETATM   10  C   UNL     1      43.749 -19.214   3.770  1.00  0.00     0.058 A 
HETATM   11  C   UNL     1      44.499 -20.180   4.460  1.00  0.00     0.031 A 
HETATM   12  C   UNL     1      44.815 -21.395   3.848  1.00  0.00     0.002 A 
HETATM   13  C   UNL     1      44.390 -21.655   2.548  1.00  0.00     0.000 A 
HETATM   14  C   UNL     1      43.645 -20.701   1.856  1.00  0.00     0.002 A 
HETATM   15  C   UNL     1      43.323 -19.482   2.461  1.00  0.00     0.031 A 
ENDBRANCH   7  10
BRANCH   9  16
HETATM   16  O   UNL     1      41.966 -14.837   4.793  1.00  0.00    -0.357 OA
HETATM   17  H   UNL     1      41.310 -14.898   4.068  1.00  0.00     0.218 HD
ENDBRANCH   9  16
ENDBRANCH   1   5
BRANCH   2  18
HETATM   18  N   UNL     1      44.298 -13.649   8.166  1.00  0.00    -0.267 N 
HETATM   19  C   UNL     1      45.445 -12.879   8.175  1.00  0.00     0.240 C 
HETATM   20  O   UNL     1      46.282 -12.924   7.276  1.00  0.00    -0.272 OA
HETATM   21  H   UNL     1      43.511 -13.479   8.791  1.00  0.00     0.190 HD
BRANCH  19  22
HETATM   22  C   UNL     1      45.580 -11.977   9.386  1.00  0.00     0.143 C 
BRANCH  22  23
HETATM   23  C   UNL     1      44.294 -11.627  10.105  1.00  0.00    -0.049 A 
HETATM   24  C   UNL     1      43.280 -10.843   9.540  1.00  0.00     0.009 A 
HETATM   25  C   UNL     1      42.125 -10.537  10.268  1.00  0.00     0.019 A 
HETATM   26  C   UNL     1      41.978 -11.008  11.569  1.00  0.00     0.011 A 
HETATM   27 BR   UNL     1      40.422 -10.585  12.554  1.00  0.00    -0.051 Br
HETATM   28  C   UNL     1      42.976 -11.782  12.153  1.00  0.00     0.019 A 
HETATM   29  C   UNL     1      44.128 -12.089  11.423  1.00  0.00     0.009 A 
ENDBRANCH  22  23
ENDBRANCH  19  22
ENDBRANCH   2  18
TORSDOF 6
ENDMDL
MODEL 3
REMARK VINA RESULT:      -8.6      3.547      9.616
REMARK  6 active torsions:
REMARK  status: ('A' for Active; 'I' for Inactive)
REMARK    1  A    between atoms: C_4  and  N_5 
REMARK    2  A    between atoms: C_7  and  C_8 
REMARK       I    between atoms: C_8  and  N_9 
REMARK    3  A    between atoms: N_9  and  N_10 
REMARK       I    between atoms: N_10  and  C_11 
REMARK    4  A    between atoms: C_11  and  C_12 
REMARK    5  A    between atoms: C_12  and  C_13 
REMARK    6  A    between atoms: C_22  and  O_23 
ROOT
HETATM    1  C   UNL     1      44.980 -13.522   7.857  1.00  0.00     0.293 C 
HETATM    2  N   UNL     1      44.076 -14.543   8.059  1.00  0.00    -0.262 N 
HETATM    3  O   UNL     1      45.770 -13.493   6.913  1.00  0.00    -0.264 OA
HETATM    4  H   UNL     1      43.397 -14.492   8.821  1.00  0.00     0.190 HD
ENDROOT
BRANCH   1   5
HETATM    5  C   UNL     1      44.920 -12.464   8.864  1.00  0.00     0.181 A 
HETATM    6  N   UNL     1      43.963 -12.411   9.809  1.00  0.00    -0.159 NA
HETATM    7  N   UNL     1      44.249 -11.291  10.541  1.00  0.00    -0.242 N 
HETATM    8  C   UNL     1      45.370 -10.648  10.063  1.00  0.00     0.158 A 
HETATM    9  C   UNL     1      45.809 -11.382   8.999  1.00  0.00     0.119 A 
BRANCH   7  10
HETATM   10  C   UNL     1      43.430 -10.916  11.644  1.00  0.00     0.058 A 
HETATM   11  C   UNL     1      43.881  -9.930  12.537  1.00  0.00     0.031 A 
HETATM   12  C   UNL     1      43.090  -9.548  13.623  1.00  0.00     0.002 A 
HETATM   13  C   UNL     1      41.849 -10.146  13.828  1.00  0.00     0.000 A 
HETATM   14  C   UNL     1      41.395 -11.127  12.948  1.00  0.00     0.002 A 
HETATM   15  C   UNL     1      42.180 -11.514  11.857  1.00  0.00     0.031 A 
ENDBRANCH   7  10
BRANCH   9  16
HETATM   16  O   UNL     1      46.892 -11.066   8.272  1.00  0.00    -0.357 OA
HETATM   17  H   UNL     1      47.330 -11.883   7.954  1.00  0.00     0.218 HD
ENDBRANCH   9  16
ENDBRANCH   1   5
BRANCH   2  18
HETATM   18  N   UNL     1      43.979 -15.588   7.138  1.00  0.00    -0.267 N 
HETATM   19  C   UNL     1      43.623 -16.837   7.609  1.00  0.00     0.240 C 
HETATM   20  O   UNL     1      43.460 -17.073   8.804  1.00  0.00    -0.272 OA
HETATM   21  H   UNL     1      43.922 -15.331   6.153  1.00  0.00     0.190 HD
BRANCH  19  22
HETATM   22  C   UNL     1      43.452 -17.885   6.528  1.00  0.00     0.143 C 
BRANCH  22  23
HETATM   23  C   UNL     1      42.854 -17.407   5.222  1.00  0.00    -0.049 A 
HETATM   24  C   UNL     1      41.526 -16.980   5.089  1.00  0.00     0.009 A 
HETATM   25  C   UNL     1      41.028 -16.571   3.847  1.00  0.00     0.019 A 
HETATM   26  C   UNL     1      41.854 -16.592   2.727  1.00  0.00     0.011 A 
HETATM   27 BR   UNL     1      41.176 -16.048   1.048  1.00  0.00    -0.051 Br
HETATM   28  C   UNL     1      43.173 -17.019   2.834  1.00  0.00     0.019 A 
HETATM   29  C   UNL     1      43.669 -17.424   4.076  1.00  0.00     0.009 A 
ENDBRANCH  22  23
ENDBRANCH  19  22
ENDBRANCH   2  18
TORSDOF 6
ENDMDL
MODEL 4
REMARK VINA RESULT:      -8.6      2.409      3.077
REMARK  6 active torsions:
REMARK  status: ('A' for Active; 'I' for Inactive)
REMARK    1  A    between atoms: C_4  and  N_5 
REMARK    2  A    between atoms: C_7  and  C_8 
REMARK       I    between atoms: C_8  and  N_9 
REMARK    3  A    between atoms: N_9  and  N_10 
REMARK       I    between atoms: N_10  and  C_11 
REMARK    4  A    between atoms: C_11  and  C_12 
REMARK    5  A    between atoms: C_12  and  C_13 
REMARK    6  A    between atoms: C_22  and  O_23 
ROOT
HETATM    1  C   UNL     1      42.409 -14.435   5.896  1.00  0.00     0.293 C 
HETATM    2  N   UNL     1      41.252 -13.738   6.172  1.00  0.00    -0.262 N 
HETATM    3  O   UNL     1      43.535 -13.953   6.013  1.00  0.00    -0.264 OA
HETATM    4  H   UNL     1      40.342 -14.201   6.121  1.00  0.00     0.190 HD
ENDROOT
BRANCH   1   5
HETATM    5  C   UNL     1      42.185 -15.810   5.451  1.00  0.00     0.181 A 
HETATM    6  N   UNL     1      43.118 -16.528   4.799  1.00  0.00    -0.159 NA
HETATM    7  N   UNL     1      42.530 -17.739   4.559  1.00  0.00    -0.242 N 
HETATM    8  C   UNL     1      41.244 -17.783   5.050  1.00  0.00     0.158 A 
HETATM    9  C   UNL     1      41.010 -16.566   5.622  1.00  0.00     0.119 A 
BRANCH   7  10
HETATM   10  C   UNL     1      43.240 -18.768   3.875  1.00  0.00     0.058 A 
HETATM   11  C   UNL     1      44.251 -19.474   4.546  1.00  0.00     0.031 A 
HETATM   12  C   UNL     1      44.955 -20.487   3.891  1.00  0.00     0.002 A 
HETATM   13  C   UNL     1      44.660 -20.801   2.567  1.00  0.00     0.000 A 
HETATM   14  C   UNL     1      43.659 -20.103   1.893  1.00  0.00     0.002 A 
HETATM   15  C   UNL     1      42.947 -19.089   2.542  1.00  0.00     0.031 A 
ENDBRANCH   7  10
BRANCH   9  16
HETATM   16  O   UNL     1      39.853 -16.231   6.216  1.00  0.00    -0.357 OA
HETATM   17  H   UNL     1      39.164 -16.075   5.537  1.00  0.00     0.218 HD
ENDBRANCH   9  16
ENDBRANCH   1   5
BRANCH   2  18
HETATM   18  N   UNL     1      41.318 -12.435   6.669  1.00  0.00    -0.267 N 
HETATM   19  C   UNL     1      40.140 -11.831   7.064  1.00  0.00     0.240 C 
HETATM   20  O   UNL     1      39.042 -12.367   6.931  1.00  0.00    -0.272 OA
HETATM   21  H   UNL     1      42.237 -12.096   6.951  1.00  0.00     0.190 HD
BRANCH  19  22
HETATM   22  C   UNL     1      40.320 -10.455   7.675  1.00  0.00     0.143 C 
BRANCH  22  23
HETATM   23  C   UNL     1      40.887 -10.416   9.078  1.00  0.00    -0.049 A 
HETATM   24  C   UNL     1      42.147  -9.888   9.389  1.00  0.00     0.009 A 
HETATM   25  C   UNL     1      42.623  -9.902  10.705  1.00  0.00     0.019 A 
HETATM   26  C   UNL     1      41.843 -10.452  11.719  1.00  0.00     0.011 A 
HETATM   27 BR   UNL     1      42.491 -10.480  13.494  1.00  0.00    -0.051 Br
HETATM   28  C   UNL     1      40.592 -10.989  11.432  1.00  0.00     0.019 A 
HETATM   29  C   UNL     1      40.118 -10.970  10.117  1.00  0.00     0.009 A 
ENDBRANCH  22  23
ENDBRANCH  19  22
ENDBRANCH   2  18
TORSDOF 6
ENDMDL
MODEL 5
REMARK VINA RESULT:      -8.3      2.082      3.011
REMARK  6 active torsions:
REMARK  status: ('A' for Active; 'I' for Inactive)
REMARK    1  A    between atoms: C_4  and  N_5 
REMARK    2  A    between atoms: C_7  and  C_8 
REMARK       I    between atoms: C_8  and  N_9 
REMARK    3  A    between atoms: N_9  and  N_10 
REMARK       I    between atoms: N_10  and  C_11 
REMARK    4  A    between atoms: C_11  and  C_12 
REMARK    5  A    between atoms: C_12  and  C_13 
REMARK    6  A    between atoms: C_22  and  O_23 
ROOT
HETATM    1  C   UNL     1      43.792 -15.155   7.027  1.00  0.00     0.293 C 
HETATM    2  N   UNL     1      42.783 -14.521   6.334  1.00  0.00    -0.262 N 
HETATM    3  O   UNL     1      44.588 -14.565   7.757  1.00  0.00    -0.264 OA
HETATM    4  H   UNL     1      42.107 -15.061   5.790  1.00  0.00     0.190 HD
ENDROOT
BRANCH   1   5
HETATM    5  C   UNL     1      43.836 -16.602   6.823  1.00  0.00     0.181 A 
HETATM    6  N   UNL     1      43.981 -17.164   5.609  1.00  0.00    -0.159 NA
HETATM    7  N   UNL     1      43.970 -18.513   5.839  1.00  0.00    -0.242 N 
HETATM    8  C   UNL     1      43.819 -18.796   7.179  1.00  0.00     0.158 A 
HETATM    9  C   UNL     1      43.734 -17.593   7.818  1.00  0.00     0.119 A 
BRANCH   7  10
HETATM   10  C   UNL     1      44.105 -19.434   4.761  1.00  0.00     0.058 A 
HETATM   11  C   UNL     1      44.678 -20.695   4.995  1.00  0.00     0.031 A 
HETATM   12  C   UNL     1      44.815 -21.611   3.950  1.00  0.00     0.002 A 
HETATM   13  C   UNL     1      44.386 -21.278   2.668  1.00  0.00     0.000 A 
HETATM   14  C   UNL     1      43.818 -20.029   2.426  1.00  0.00     0.002 A 
HETATM   15  C   UNL     1      43.675 -19.106   3.467  1.00  0.00     0.031 A 
ENDBRANCH   7  10
BRANCH   9  16
HETATM   16  O   UNL     1      43.584 -17.463   9.146  1.00  0.00    -0.357 OA
HETATM   17  H   UNL     1      42.674 -17.718   9.404  1.00  0.00     0.218 HD
ENDBRANCH   9  16
ENDBRANCH   1   5
BRANCH   2  18
HETATM   18  N   UNL     1      42.582 -13.147   6.485  1.00  0.00    -0.267 N 
HETATM   19  C   UNL     1      41.573 -12.555   5.751  1.00  0.00     0.240 C 
HETATM   20  O   UNL     1      40.900 -13.172   4.928  1.00  0.00    -0.272 OA
HETATM   21  H   UNL     1      43.007 -12.706   7.300  1.00  0.00     0.190 HD
BRANCH  19  22
HETATM   22  C   UNL     1      41.369 -11.082   6.049  1.00  0.00     0.143 C 
BRANCH  22  23
HETATM   23  C   UNL     1      40.971 -10.736   7.468  1.00  0.00    -0.049 A 
HETATM   24  C   UNL     1      41.850 -10.176   8.404  1.00  0.00     0.009 A 
HETATM   25  C   UNL     1      41.424  -9.901   9.708  1.00  0.00     0.019 A 
HETATM   26  C   UNL     1      40.116 -10.190  10.087  1.00  0.00     0.011 A 
HETATM   27 BR   UNL     1      39.546  -9.827  11.852  1.00  0.00    -0.051 Br
HETATM   28  C   UNL     1      39.228 -10.753   9.176  1.00  0.00     0.019 A 
HETATM   29  C   UNL     1      39.655 -11.024   7.873  1.00  0.00     0.009 A 
ENDBRANCH  22  23
ENDBRANCH  19  22
ENDBRANCH   2  18
TORSDOF 6
ENDMDL
MODEL 6
REMARK VINA RESULT:      -7.9      2.703      3.594
REMARK  6 active torsions:
REMARK  status: ('A' for Active; 'I' for Inactive)
REMARK    1  A    between atoms: C_4  and  N_5 
REMARK    2  A    between atoms: C_7  and  C_8 
REMARK       I    between atoms: C_8  and  N_9 
REMARK    3  A    between atoms: N_9  and  N_10 
REMARK       I    between atoms: N_10  and  C_11 
REMARK    4  A    between atoms: C_11  and  C_12 
REMARK    5  A    between atoms: C_12  and  C_13 
REMARK    6  A    between atoms: C_22  and  O_23 
ROOT
HETATM    1  C   UNL     1      41.511 -14.766   5.254  1.00  0.00     0.293 C 
HETATM    2  N   UNL     1      42.158 -13.664   5.771  1.00  0.00    -0.262 N 
HETATM    3  O   UNL     1      40.354 -15.070   5.542  1.00  0.00    -0.264 OA
HETATM    4  H   UNL     1      43.097 -13.416   5.453  1.00  0.00     0.190 HD
ENDROOT
BRANCH   1   5
HETATM    5  C   UNL     1      42.321 -15.548   4.321  1.00  0.00     0.181 A 
HETATM    6  N   UNL     1      42.457 -16.884   4.416  1.00  0.00    -0.159 NA
HETATM    7  N   UNL     1      43.281 -17.231   3.380  1.00  0.00    -0.242 N 
HETATM    8  C   UNL     1      43.659 -16.129   2.644  1.00  0.00     0.158 A 
HETATM    9  C   UNL     1      43.056 -15.052   3.228  1.00  0.00     0.119 A 
BRANCH   7  10
HETATM   10  C   UNL     1      43.648 -18.591   3.168  1.00  0.00     0.058 A 
HETATM   11  C   UNL     1      44.393 -19.267   4.148  1.00  0.00     0.031 A 
HETATM   12  C   UNL     1      44.759 -20.601   3.957  1.00  0.00     0.002 A 
HETATM   13  C   UNL     1      44.389 -21.269   2.792  1.00  0.00     0.000 A 
HETATM   14  C   UNL     1      43.651 -20.605   1.815  1.00  0.00     0.002 A 
HETATM   15  C   UNL     1      43.278 -19.269   1.998  1.00  0.00     0.031 A 
ENDBRANCH   7  10
BRANCH   9  16
HETATM   16  O   UNL     1      43.188 -13.793   2.784  1.00  0.00    -0.357 OA
HETATM   17  H   UNL     1      43.385 -13.797   1.824  1.00  0.00     0.218 HD
ENDBRANCH   9  16
ENDBRANCH   1   5
BRANCH   2  18
HETATM   18  N   UNL     1      41.483 -12.789   6.625  1.00  0.00    -0.267 N 
HETATM   19  C   UNL     1      41.243 -11.504   6.179  1.00  0.00     0.240 C 
HETATM   20  O   UNL     1      41.660 -11.087   5.100  1.00  0.00    -0.272 OA
HETATM   21  H   UNL     1      40.985 -13.205   7.410  1.00  0.00     0.190 HD
BRANCH  19  22
HETATM   22  C   UNL     1      40.426 -10.656   7.134  1.00  0.00     0.143 C 
BRANCH  22  23
HETATM   23  C   UNL     1      40.880 -10.650   8.578  1.00  0.00    -0.049 A 
HETATM   24  C   UNL     1      40.047 -10.987   9.653  1.00  0.00     0.009 A 
HETATM   25  C   UNL     1      40.523 -10.939  10.968  1.00  0.00     0.019 A 
HETATM   26  C   UNL     1      41.835 -10.546  11.217  1.00  0.00     0.011 A 
HETATM   27 BR   UNL     1      42.472 -10.472  12.995  1.00  0.00    -0.051 Br
HETATM   28  C   UNL     1      42.677 -10.199  10.166  1.00  0.00     0.019 A 
HETATM   29  C   UNL     1      42.201 -10.251   8.853  1.00  0.00     0.009 A 
ENDBRANCH  22  23
ENDBRANCH  19  22
ENDBRANCH   2  18
TORSDOF 6
ENDMDL
MODEL 7
REMARK VINA RESULT:      -7.9      4.054     10.452
REMARK  6 active torsions:
REMARK  status: ('A' for Active; 'I' for Inactive)
REMARK    1  A    between atoms: C_4  and  N_5 
REMARK    2  A    between atoms: C_7  and  C_8 
REMARK       I    between atoms: C_8  and  N_9 
REMARK    3  A    between atoms: N_9  and  N_10 
REMARK       I    between atoms: N_10  and  C_11 
REMARK    4  A    between atoms: C_11  and  C_12 
REMARK    5  A    between atoms: C_12  and  C_13 
REMARK    6  A    between atoms: C_22  and  O_23 
ROOT
HETATM    1  C   UNL     1      42.530 -11.830   7.254  1.00  0.00     0.293 C 
HETATM    2  N   UNL     1      42.967 -13.064   6.822  1.00  0.00    -0.262 N 
HETATM    3  O   UNL     1      41.703 -11.152   6.645  1.00  0.00    -0.264 OA
HETATM    4  H   UNL     1      43.607 -13.619   7.394  1.00  0.00     0.190 HD
ENDROOT
BRANCH   1   5
HETATM    5  C   UNL     1      43.134 -11.392   8.512  1.00  0.00     0.181 A 
HETATM    6  N   UNL     1      42.493 -10.602   9.393  1.00  0.00    -0.159 NA
HETATM    7  N   UNL     1      43.381 -10.419  10.417  1.00  0.00    -0.242 N 
HETATM    8  C   UNL     1      44.565 -11.084  10.184  1.00  0.00     0.158 A 
HETATM    9  C   UNL     1      44.423 -11.709   8.979  1.00  0.00     0.119 A 
BRANCH   7  10
HETATM   10  C   UNL     1      43.034  -9.622  11.546  1.00  0.00     0.058 A 
HETATM   11  C   UNL     1      43.555  -9.946  12.808  1.00  0.00     0.031 A 
HETATM   12  C   UNL     1      43.227  -9.174  13.925  1.00  0.00     0.002 A 
HETATM   13  C   UNL     1      42.378  -8.078  13.792  1.00  0.00     0.000 A 
HETATM   14  C   UNL     1      41.855  -7.750  12.542  1.00  0.00     0.002 A 
HETATM   15  C   UNL     1      42.179  -8.517  11.419  1.00  0.00     0.031 A 
ENDBRANCH   7  10
BRANCH   9  16
HETATM   16  O   UNL     1      45.378 -12.464   8.414  1.00  0.00    -0.357 OA
HETATM   17  H   UNL     1      46.262 -12.143   8.688  1.00  0.00     0.218 HD
ENDBRANCH   9  16
ENDBRANCH   1   5
BRANCH   2  18
HETATM   18  N   UNL     1      42.426 -13.637   5.669  1.00  0.00    -0.267 N 
HETATM   19  C   UNL     1      43.288 -13.951   4.636  1.00  0.00     0.240 C 
HETATM   20  O   UNL     1      44.487 -13.684   4.667  1.00  0.00    -0.272 OA
HETATM   21  H   UNL     1      41.486 -14.023   5.743  1.00  0.00     0.190 HD
BRANCH  19  22
HETATM   22  C   UNL     1      42.627 -14.652   3.465  1.00  0.00     0.143 C 
BRANCH  22  23
HETATM   23  C   UNL     1      42.983 -16.110   3.271  1.00  0.00    -0.049 A 
HETATM   24  C   UNL     1      42.784 -17.093   4.250  1.00  0.00     0.009 A 
HETATM   25  C   UNL     1      43.158 -18.421   4.015  1.00  0.00     0.019 A 
HETATM   26  C   UNL     1      43.739 -18.774   2.801  1.00  0.00     0.011 A 
HETATM   27 BR   UNL     1      44.252 -20.567   2.490  1.00  0.00    -0.051 Br
HETATM   28  C   UNL     1      43.953 -17.814   1.818  1.00  0.00     0.019 A 
HETATM   29  C   UNL     1      43.577 -16.489   2.053  1.00  0.00     0.009 A 
ENDBRANCH  22  23
ENDBRANCH  19  22
ENDBRANCH   2  18
TORSDOF 6
ENDMDL
MODEL 8
REMARK VINA RESULT:      -7.9      7.638     10.421
REMARK  6 active torsions:
REMARK  status: ('A' for Active; 'I' for Inactive)
REMARK    1  A    between atoms: C_4  and  N_5 
REMARK    2  A    between atoms: C_7  and  C_8 
REMARK       I    between atoms: C_8  and  N_9 
REMARK    3  A    between atoms: N_9  and  N_10 
REMARK       I    between atoms: N_10  and  C_11 
REMARK    4  A    between atoms: C_11  and  C_12 
REMARK    5  A    between atoms: C_12  and  C_13 
REMARK    6  A    between atoms: C_22  and  O_23 
ROOT
HETATM    1  C   UNL     1      41.079 -15.195   0.910  1.00  0.00     0.293 C 
HETATM    2  N   UNL     1      40.485 -15.696  -0.229  1.00  0.00    -0.262 N 
HETATM    3  O   UNL     1      41.292 -13.996   1.091  1.00  0.00    -0.264 OA
HETATM    4  H   UNL     1      40.270 -16.692  -0.307  1.00  0.00     0.190 HD
ENDROOT
BRANCH   1   5
HETATM    5  C   UNL     1      41.434 -16.215   1.895  1.00  0.00     0.181 A 
HETATM    6  N   UNL     1      42.258 -17.242   1.617  1.00  0.00    -0.159 NA
HETATM    7  N   UNL     1      42.332 -17.962   2.778  1.00  0.00    -0.242 N 
HETATM    8  C   UNL     1      41.564 -17.396   3.773  1.00  0.00     0.158 A 
HETATM    9  C   UNL     1      40.988 -16.285   3.228  1.00  0.00     0.119 A 
BRANCH   7  10
HETATM   10  C   UNL     1      43.131 -19.139   2.854  1.00  0.00     0.058 A 
HETATM   11  C   UNL     1      43.987 -19.325   3.951  1.00  0.00     0.031 A 
HETATM   12  C   UNL     1      44.776 -20.473   4.042  1.00  0.00     0.002 A 
HETATM   13  C   UNL     1      44.719 -21.441   3.042  1.00  0.00     0.000 A 
HETATM   14  C   UNL     1      43.873 -21.263   1.949  1.00  0.00     0.002 A 
HETATM   15  C   UNL     1      43.079 -20.117   1.851  1.00  0.00     0.031 A 
ENDBRANCH   7  10
BRANCH   9  16
HETATM   16  O   UNL     1      40.166 -15.465   3.902  1.00  0.00    -0.357 OA
HETATM   17  H   UNL     1      39.256 -15.541   3.547  1.00  0.00     0.218 HD
ENDBRANCH   9  16
ENDBRANCH   1   5
BRANCH   2  18
HETATM   18  N   UNL     1      40.034 -14.829  -1.227  1.00  0.00    -0.267 N 
HETATM   19  C   UNL     1      40.427 -15.078  -2.528  1.00  0.00     0.240 C 
HETATM   20  O   UNL     1      41.206 -15.981  -2.825  1.00  0.00    -0.272 OA
HETATM   21  H   UNL     1      39.249 -14.224  -0.991  1.00  0.00     0.190 HD
BRANCH  19  22
HETATM   22  C   UNL     1      39.816 -14.142  -3.552  1.00  0.00     0.143 C 
BRANCH  22  23
HETATM   23  C   UNL     1      40.445 -12.769  -3.661  1.00  0.00    -0.049 A 
HETATM   24  C   UNL     1      41.829 -12.547  -3.631  1.00  0.00     0.009 A 
HETATM   25  C   UNL     1      42.345 -11.249  -3.714  1.00  0.00     0.019 A 
HETATM   26  C   UNL     1      41.481 -10.163  -3.821  1.00  0.00     0.011 A 
HETATM   27 BR   UNL     1      42.181  -8.410  -3.922  1.00  0.00    -0.051 Br
HETATM   28  C   UNL     1      40.104 -10.360  -3.846  1.00  0.00     0.019 A 
HETATM   29  C   UNL     1      39.590 -11.657  -3.766  1.00  0.00     0.009 A 
ENDBRANCH  22  23
ENDBRANCH  19  22
ENDBRANCH   2  18
TORSDOF 6
ENDMDL
MODEL 9
REMARK VINA RESULT:      -7.8      7.373     10.557
REMARK  6 active torsions:
REMARK  status: ('A' for Active; 'I' for Inactive)
REMARK    1  A    between atoms: C_4  and  N_5 
REMARK    2  A    between atoms: C_7  and  C_8 
REMARK       I    between atoms: C_8  and  N_9 
REMARK    3  A    between atoms: N_9  and  N_10 
REMARK       I    between atoms: N_10  and  C_11 
REMARK    4  A    between atoms: C_11  and  C_12 
REMARK    5  A    between atoms: C_12  and  C_13 
REMARK    6  A    between atoms: C_22  and  O_23 
ROOT
HETATM    1  C   UNL     1      41.736 -14.703   0.873  1.00  0.00     0.293 C 
HETATM    2  N   UNL     1      42.387 -15.675   0.143  1.00  0.00    -0.262 N 
HETATM    3  O   UNL     1      41.083 -14.941   1.889  1.00  0.00    -0.264 OA
HETATM    4  H   UNL     1      42.970 -15.420  -0.657  1.00  0.00     0.190 HD
ENDROOT
BRANCH   1   5
HETATM    5  C   UNL     1      41.891 -13.351   0.337  1.00  0.00     0.181 A 
HETATM    6  N   UNL     1      41.978 -13.094  -0.981  1.00  0.00    -0.159 NA
HETATM    7  N   UNL     1      42.116 -11.736  -1.069  1.00  0.00    -0.242 N 
HETATM    8  C   UNL     1      42.118 -11.146   0.176  1.00  0.00     0.158 A 
HETATM    9  C   UNL     1      41.974 -12.159   1.081  1.00  0.00     0.119 A 
BRANCH   7  10
HETATM   10  C   UNL     1      42.238 -11.100  -2.338  1.00  0.00     0.058 A 
HETATM   11  C   UNL     1      42.301  -9.699  -2.406  1.00  0.00     0.031 A 
HETATM   12  C   UNL     1      42.422  -9.059  -3.641  1.00  0.00     0.002 A 
HETATM   13  C   UNL     1      42.478  -9.807  -4.814  1.00  0.00     0.000 A 
HETATM   14  C   UNL     1      42.415 -11.198  -4.755  1.00  0.00     0.002 A 
HETATM   15  C   UNL     1      42.295 -11.847  -3.523  1.00  0.00     0.031 A 
ENDBRANCH   7  10
BRANCH   9  16
HETATM   16  O   UNL     1      41.928 -11.971   2.409  1.00  0.00    -0.357 OA
HETATM   17  H   UNL     1      42.670 -12.445   2.838  1.00  0.00     0.218 HD
ENDBRANCH   9  16
ENDBRANCH   1   5
BRANCH   2  18
HETATM   18  N   UNL     1      42.379 -17.002   0.575  1.00  0.00    -0.267 N 
HETATM   19  C   UNL     1      43.528 -17.502   1.157  1.00  0.00     0.240 C 
HETATM   20  O   UNL     1      44.566 -16.850   1.242  1.00  0.00    -0.272 OA
HETATM   21  H   UNL     1      41.468 -17.448   0.675  1.00  0.00     0.190 HD
BRANCH  19  22
HETATM   22  C   UNL     1      43.396 -18.920   1.678  1.00  0.00     0.143 C 
BRANCH  22  23
HETATM   23  C   UNL     1      43.467 -19.089   3.180  1.00  0.00    -0.049 A 
HETATM   24  C   UNL     1      42.675 -18.362   4.079  1.00  0.00     0.009 A 
HETATM   25  C   UNL     1      42.807 -18.550   5.460  1.00  0.00     0.019 A 
HETATM   26  C   UNL     1      43.737 -19.461   5.951  1.00  0.00     0.011 A 
HETATM   27 BR   UNL     1      43.921 -19.705   7.817  1.00  0.00    -0.051 Br
HETATM   28  C   UNL     1      44.540 -20.187   5.077  1.00  0.00     0.019 A 
HETATM   29  C   UNL     1      44.405 -20.000   3.699  1.00  0.00     0.009 A 
ENDBRANCH  22  23
ENDBRANCH  19  22
ENDBRANCH   2  18
TORSDOF 6
ENDMDL
MODEL 10
REMARK VINA RESULT:      -7.8      1.614      2.313
REMARK  6 active torsions:
REMARK  status: ('A' for Active; 'I' for Inactive)
REMARK    1  A    between atoms: C_4  and  N_5 
REMARK    2  A    between atoms: C_7  and  C_8 
REMARK       I    between atoms: C_8  and  N_9 
REMARK    3  A    between atoms: N_9  and  N_10 
REMARK       I    between atoms: N_10  and  C_11 
REMARK    4  A    between atoms: C_11  and  C_12 
REMARK    5  A    between atoms: C_12  and  C_13 
REMARK    6  A    between atoms: C_22  and  O_23 
ROOT
HETATM    1  C   UNL     1      44.084 -13.877   7.292  1.00  0.00     0.293 C 
HETATM    2  N   UNL     1      43.026 -13.005   7.141  1.00  0.00    -0.262 N 
HETATM    3  O   UNL     1      45.122 -13.587   7.886  1.00  0.00    -0.264 OA
HETATM    4  H   UNL     1      42.159 -13.313   6.696  1.00  0.00     0.190 HD
ENDROOT
BRANCH   1   5
HETATM    5  C   UNL     1      43.865 -15.189   6.685  1.00  0.00     0.181 A 
HETATM    6  N   UNL     1      43.904 -15.394   5.356  1.00  0.00    -0.159 NA
HETATM    7  N   UNL     1      43.651 -16.728   5.195  1.00  0.00    -0.242 N 
HETATM    8  C   UNL     1      43.454 -17.355   6.406  1.00  0.00     0.158 A 
HETATM    9  C   UNL     1      43.590 -16.391   7.363  1.00  0.00     0.119 A 
BRANCH   7  10
HETATM   10  C   UNL     1      43.614 -17.309   3.894  1.00  0.00     0.058 A 
HETATM   11  C   UNL     1      43.586 -18.706   3.761  1.00  0.00     0.031 A 
HETATM   12  C   UNL     1      43.548 -19.292   2.494  1.00  0.00     0.002 A 
HETATM   13  C   UNL     1      43.540 -18.492   1.354  1.00  0.00     0.000 A 
HETATM   14  C   UNL     1      43.569 -17.105   1.477  1.00  0.00     0.002 A 
HETATM   15  C   UNL     1      43.606 -16.510   2.742  1.00  0.00     0.031 A 
ENDBRANCH   7  10
BRANCH   9  16
HETATM   16  O   UNL     1      43.469 -16.626   8.679  1.00  0.00    -0.357 OA
HETATM   17  H   UNL     1      44.044 -17.375   8.938  1.00  0.00     0.218 HD
ENDBRANCH   9  16
ENDBRANCH   1   5
BRANCH   2  18
HETATM   18  N   UNL     1      43.071 -11.738   7.727  1.00  0.00    -0.267 N 
HETATM   19  C   UNL     1      41.896 -11.016   7.799  1.00  0.00     0.240 C 
HETATM   20  O   UNL     1      40.841 -11.414   7.309  1.00  0.00    -0.272 OA
HETATM   21  H   UNL     1      43.891 -11.520   8.291  1.00  0.00     0.190 HD
BRANCH  19  22
HETATM   22  C   UNL     1      42.021  -9.694   8.531  1.00  0.00     0.143 C 
BRANCH  22  23
HETATM   23  C   UNL     1      42.133  -9.774  10.039  1.00  0.00    -0.049 A 
HETATM   24  C   UNL     1      43.349  -9.920  10.719  1.00  0.00     0.009 A 
HETATM   25  C   UNL     1      43.382 -10.011  12.115  1.00  0.00     0.019 A 
HETATM   26  C   UNL     1      42.195  -9.963  12.841  1.00  0.00     0.011 A 
HETATM   27 BR   UNL     1      42.239 -10.096  14.726  1.00  0.00    -0.051 Br
HETATM   28  C   UNL     1      40.975  -9.826  12.187  1.00  0.00     0.019 A 
HETATM   29  C   UNL     1      40.946  -9.733  10.793  1.00  0.00     0.009 A 
ENDBRANCH  22  23
ENDBRANCH  19  22
ENDBRANCH   2  18
TORSDOF 6
ENDMDL
