MODEL 1
REMARK VINA RESULT:      -7.3      0.000      0.000
REMARK  1 active torsions:
REMARK  status: ('A' for Active; 'I' for Inactive)
REMARK    1  A    between atoms: C_6  and  N_7 
ROOT
HETATM    1  N   UNL     1      41.922 -17.237   4.087  1.00  0.00    -0.320 N 
HETATM    2  C   UNL     1      40.973 -17.291   5.160  1.00  0.00     0.141 C 
HETATM    3  N   UNL     1      40.359 -18.391   5.494  1.00  0.00    -0.380 N 
HETATM    4  H   UNL     1      40.558 -19.237   4.979  1.00  0.00     0.158 HD
HETATM    5  H   UNL     1      39.689 -18.381   6.249  1.00  0.00     0.158 HD
HETATM    6  S   UNL     1      40.720 -15.766   5.930  1.00  0.00    -0.086 SA
HETATM    7  C   UNL     1      41.598 -14.926   4.574  1.00  0.00     0.093 C 
HETATM    8  C   UNL     1      42.657 -15.959   4.132  1.00  0.00     0.121 C 
HETATM    9  C   UNL     1      42.365 -13.644   4.783  1.00  0.00     0.158 C 
HETATM   10  S   UNL     1      43.453 -13.642   3.342  1.00  0.00     0.147 S 
HETATM   11  O   UNL     1      42.862 -12.806   2.321  1.00  0.00    -0.228 OA
HETATM   12  O   UNL     1      44.814 -13.470   3.803  1.00  0.00    -0.228 OA
HETATM   13  C   UNL     1      43.226 -15.367   2.864  1.00  0.00     0.167 C 
ENDROOT
BRANCH   1  14
HETATM   14  C   UNL     1      42.641 -18.343   3.588  1.00  0.00     0.048 A 
HETATM   15  C   UNL     1      42.355 -18.813   2.284  1.00  0.00    -0.034 A 
HETATM   16  C   UNL     1      43.051 -19.920   1.770  1.00  0.00     0.015 A 
HETATM   17  C   UNL     1      41.331 -18.164   1.388  1.00  0.00     0.050 C 
HETATM   18  C   UNL     1      44.004 -20.592   2.534  1.00  0.00    -0.061 A 
HETATM   19  C   UNL     1      44.696 -21.810   1.994  1.00  0.00     0.048 C 
HETATM   20  C   UNL     1      44.252 -20.156   3.836  1.00  0.00     0.015 A 
HETATM   21  C   UNL     1      43.596 -19.032   4.372  1.00  0.00    -0.034 A 
HETATM   22  C   UNL     1      43.911 -18.675   5.802  1.00  0.00     0.050 C 
ENDBRANCH   1  14
TORSDOF 1
ENDMDL
MODEL 2
REMARK VINA RESULT:      -7.1      2.194      2.775
REMARK  1 active torsions:
REMARK  status: ('A' for Active; 'I' for Inactive)
REMARK    1  A    between atoms: C_6  and  N_7 
ROOT
HETATM    1  N   UNL     1      41.547 -16.379   2.754  1.00  0.00    -0.320 N 
HETATM    2  C   UNL     1      40.470 -16.637   1.843  1.00  0.00     0.141 C 
HETATM    3  N   UNL     1      40.421 -17.711   1.106  1.00  0.00    -0.380 N 
HETATM    4  H   UNL     1      41.168 -18.387   1.179  1.00  0.00     0.158 HD
HETATM    5  H   UNL     1      39.649 -17.847   0.470  1.00  0.00     0.158 HD
HETATM    6  S   UNL     1      39.282 -15.383   1.813  1.00  0.00    -0.086 SA
HETATM    7  C   UNL     1      40.401 -14.288   2.742  1.00  0.00     0.093 C 
HETATM    8  C   UNL     1      41.191 -15.259   3.645  1.00  0.00     0.121 C 
HETATM    9  C   UNL     1      39.889 -13.217   3.673  1.00  0.00     0.158 C 
HETATM   10  S   UNL     1      41.342 -12.916   4.702  1.00  0.00     0.147 S 
HETATM   11  O   UNL     1      42.039 -11.759   4.186  1.00  0.00    -0.228 OA
HETATM   12  O   UNL     1      40.948 -13.039   6.088  1.00  0.00    -0.228 OA
HETATM   13  C   UNL     1      42.274 -14.391   4.241  1.00  0.00     0.167 C 
ENDROOT
BRANCH   1  14
HETATM   14  C   UNL     1      42.389 -17.364   3.309  1.00  0.00     0.048 A 
HETATM   15  C   UNL     1      43.525 -17.784   2.578  1.00  0.00    -0.034 A 
HETATM   16  C   UNL     1      44.373 -18.772   3.107  1.00  0.00     0.015 A 
HETATM   17  C   UNL     1      43.895 -17.203   1.237  1.00  0.00     0.050 C 
HETATM   18  C   UNL     1      44.100 -19.378   4.332  1.00  0.00    -0.061 A 
HETATM   19  C   UNL     1      44.981 -20.475   4.856  1.00  0.00     0.048 C 
HETATM   20  C   UNL     1      42.953 -18.996   5.031  1.00  0.00     0.015 A 
HETATM   21  C   UNL     1      42.100 -17.987   4.546  1.00  0.00    -0.034 A 
HETATM   22  C   UNL     1      40.869 -17.684   5.362  1.00  0.00     0.050 C 
ENDBRANCH   1  14
TORSDOF 1
ENDMDL
MODEL 3
REMARK VINA RESULT:      -6.9      2.247      3.149
REMARK  1 active torsions:
REMARK  status: ('A' for Active; 'I' for Inactive)
REMARK    1  A    between atoms: C_6  and  N_7 
ROOT
HETATM    1  N   UNL     1      41.438 -16.221   2.851  1.00  0.00    -0.320 N 
HETATM    2  C   UNL     1      40.379 -16.464   1.916  1.00  0.00     0.141 C 
HETATM    3  N   UNL     1      40.340 -17.529   1.166  1.00  0.00    -0.380 N 
HETATM    4  H   UNL     1      41.083 -18.210   1.246  1.00  0.00     0.158 HD
HETATM    5  H   UNL     1      39.580 -17.655   0.513  1.00  0.00     0.158 HD
HETATM    6  S   UNL     1      39.196 -15.205   1.877  1.00  0.00    -0.086 SA
HETATM    7  C   UNL     1      40.300 -14.126   2.841  1.00  0.00     0.093 C 
HETATM    8  C   UNL     1      41.069 -15.110   3.748  1.00  0.00     0.121 C 
HETATM    9  C   UNL     1      39.775 -13.063   3.774  1.00  0.00     0.158 C 
HETATM   10  S   UNL     1      41.208 -12.780   4.834  1.00  0.00     0.147 S 
HETATM   11  O   UNL     1      41.920 -11.620   4.346  1.00  0.00    -0.228 OA
HETATM   12  O   UNL     1      40.786 -12.917   6.211  1.00  0.00    -0.228 OA
HETATM   13  C   UNL     1      42.144 -14.253   4.375  1.00  0.00     0.167 C 
ENDROOT
BRANCH   1  14
HETATM   14  C   UNL     1      42.265 -17.216   3.411  1.00  0.00     0.048 A 
HETATM   15  C   UNL     1      41.910 -17.779   4.659  1.00  0.00    -0.034 A 
HETATM   16  C   UNL     1      42.725 -18.765   5.242  1.00  0.00     0.015 A 
HETATM   17  C   UNL     1      40.664 -17.382   5.410  1.00  0.00     0.050 C 
HETATM   18  C   UNL     1      43.904 -19.182   4.627  1.00  0.00    -0.061 A 
HETATM   19  C   UNL     1      44.797 -20.191   5.290  1.00  0.00     0.048 C 
HETATM   20  C   UNL     1      44.278 -18.593   3.418  1.00  0.00     0.015 A 
HETATM   21  C   UNL     1      43.470 -17.626   2.792  1.00  0.00    -0.034 A 
HETATM   22  C   UNL     1      43.990 -17.027   1.510  1.00  0.00     0.050 C 
ENDBRANCH   1  14
TORSDOF 1
ENDMDL
MODEL 4
REMARK VINA RESULT:      -6.7      2.439      3.134
REMARK  1 active torsions:
REMARK  status: ('A' for Active; 'I' for Inactive)
REMARK    1  A    between atoms: C_6  and  N_7 
ROOT
HETATM    1  N   UNL     1      40.907 -14.853   3.418  1.00  0.00    -0.320 N 
HETATM    2  C   UNL     1      40.155 -14.379   4.543  1.00  0.00     0.141 C 
HETATM    3  N   UNL     1      39.851 -15.145   5.552  1.00  0.00    -0.380 N 
HETATM    4  H   UNL     1      40.156 -16.108   5.543  1.00  0.00     0.158 HD
HETATM    5  H   UNL     1      39.309 -14.773   6.318  1.00  0.00     0.158 HD
HETATM    6  S   UNL     1      39.685 -12.722   4.405  1.00  0.00    -0.086 SA
HETATM    7  C   UNL     1      40.155 -12.726   2.646  1.00  0.00     0.093 C 
HETATM    8  C   UNL     1      41.342 -13.712   2.590  1.00  0.00     0.121 C 
HETATM    9  C   UNL     1      40.644 -11.485   1.941  1.00  0.00     0.158 C 
HETATM   10  S   UNL     1      41.490 -12.198   0.514  1.00  0.00     0.147 S 
HETATM   11  O   UNL     1      40.591 -12.162  -0.619  1.00  0.00    -0.228 OA
HETATM   12  O   UNL     1      42.831 -11.657   0.465  1.00  0.00    -0.228 OA
HETATM   13  C   UNL     1      41.582 -13.898   1.110  1.00  0.00     0.167 C 
ENDROOT
BRANCH   1  14
HETATM   14  C   UNL     1      41.773 -15.965   3.437  1.00  0.00     0.048 A 
HETATM   15  C   UNL     1      41.418 -17.122   2.702  1.00  0.00    -0.034 A 
HETATM   16  C   UNL     1      42.260 -18.246   2.715  1.00  0.00     0.015 A 
HETATM   17  C   UNL     1      40.161 -17.209   1.874  1.00  0.00     0.050 C 
HETATM   18  C   UNL     1      43.434 -18.261   3.466  1.00  0.00    -0.061 A 
HETATM   19  C   UNL     1      44.293 -19.492   3.519  1.00  0.00     0.048 C 
HETATM   20  C   UNL     1      43.760 -17.137   4.227  1.00  0.00     0.015 A 
HETATM   21  C   UNL     1      42.956 -15.983   4.213  1.00  0.00    -0.034 A 
HETATM   22  C   UNL     1      43.382 -14.843   5.104  1.00  0.00     0.050 C 
ENDBRANCH   1  14
TORSDOF 1
ENDMDL
MODEL 5
REMARK VINA RESULT:      -6.7      2.805      4.022
REMARK  1 active torsions:
REMARK  status: ('A' for Active; 'I' for Inactive)
REMARK    1  A    between atoms: C_6  and  N_7 
ROOT
HETATM    1  N   UNL     1      41.241 -14.877   4.303  1.00  0.00    -0.320 N 
HETATM    2  C   UNL     1      41.553 -13.700   5.059  1.00  0.00     0.141 C 
HETATM    3  N   UNL     1      42.255 -13.740   6.157  1.00  0.00    -0.380 N 
HETATM    4  H   UNL     1      42.592 -14.634   6.487  1.00  0.00     0.158 HD
HETATM    5  H   UNL     1      42.442 -12.888   6.664  1.00  0.00     0.158 HD
HETATM    6  S   UNL     1      40.891 -12.254   4.383  1.00  0.00    -0.086 SA
HETATM    7  C   UNL     1      39.843 -13.244   3.270  1.00  0.00     0.093 C 
HETATM    8  C   UNL     1      40.700 -14.497   2.985  1.00  0.00     0.121 C 
HETATM    9  C   UNL     1      39.415 -12.745   1.913  1.00  0.00     0.158 C 
HETATM   10  S   UNL     1      38.968 -14.289   1.091  1.00  0.00     0.147 S 
HETATM   11  O   UNL     1      37.535 -14.461   1.184  1.00  0.00    -0.228 OA
HETATM   12  O   UNL     1      39.685 -14.359  -0.163  1.00  0.00    -0.228 OA
HETATM   13  C   UNL     1      39.750 -15.421   2.260  1.00  0.00     0.167 C 
ENDROOT
BRANCH   1  14
HETATM   14  C   UNL     1      41.973 -16.081   4.344  1.00  0.00     0.048 A 
HETATM   15  C   UNL     1      41.592 -17.083   5.267  1.00  0.00    -0.034 A 
HETATM   16  C   UNL     1      42.314 -18.287   5.332  1.00  0.00     0.015 A 
HETATM   17  C   UNL     1      40.414 -16.933   6.195  1.00  0.00     0.050 C 
HETATM   18  C   UNL     1      43.428 -18.506   4.523  1.00  0.00    -0.061 A 
HETATM   19  C   UNL     1      44.226 -19.772   4.647  1.00  0.00     0.048 C 
HETATM   20  C   UNL     1      43.831 -17.499   3.646  1.00  0.00     0.015 A 
HETATM   21  C   UNL     1      43.113 -16.294   3.532  1.00  0.00    -0.034 A 
HETATM   22  C   UNL     1      43.661 -15.259   2.582  1.00  0.00     0.050 C 
ENDBRANCH   1  14
TORSDOF 1
ENDMDL
MODEL 6
REMARK VINA RESULT:      -6.5      2.800      3.892
REMARK  1 active torsions:
REMARK  status: ('A' for Active; 'I' for Inactive)
REMARK    1  A    between atoms: C_6  and  N_7 
ROOT
HETATM    1  N   UNL     1      41.221 -14.799   4.385  1.00  0.00    -0.320 N 
HETATM    2  C   UNL     1      41.515 -13.603   5.119  1.00  0.00     0.141 C 
HETATM    3  N   UNL     1      42.197 -13.615   6.229  1.00  0.00    -0.380 N 
HETATM    4  H   UNL     1      42.531 -14.500   6.587  1.00  0.00     0.158 HD
HETATM    5  H   UNL     1      42.372 -12.751   6.720  1.00  0.00     0.158 HD
HETATM    6  S   UNL     1      40.862 -12.176   4.397  1.00  0.00    -0.086 SA
HETATM    7  C   UNL     1      39.838 -13.195   3.288  1.00  0.00     0.093 C 
HETATM    8  C   UNL     1      40.703 -14.451   3.048  1.00  0.00     0.121 C 
HETATM    9  C   UNL     1      39.433 -12.730   1.912  1.00  0.00     0.158 C 
HETATM   10  S   UNL     1      39.006 -14.295   1.119  1.00  0.00     0.147 S 
HETATM   11  O   UNL     1      37.572 -14.470   1.189  1.00  0.00    -0.228 OA
HETATM   12  O   UNL     1      39.747 -14.392  -0.120  1.00  0.00    -0.228 OA
HETATM   13  C   UNL     1      39.770 -15.396   2.327  1.00  0.00     0.167 C 
ENDROOT
BRANCH   1  14
HETATM   14  C   UNL     1      41.957 -15.999   4.467  1.00  0.00     0.048 A 
HETATM   15  C   UNL     1      43.069 -16.180   3.612  1.00  0.00    -0.034 A 
HETATM   16  C   UNL     1      43.810 -17.372   3.669  1.00  0.00     0.015 A 
HETATM   17  C   UNL     1      43.524 -15.131   2.630  1.00  0.00     0.050 C 
HETATM   18  C   UNL     1      43.453 -18.405   4.535  1.00  0.00    -0.061 A 
HETATM   19  C   UNL     1      44.217 -19.697   4.542  1.00  0.00     0.048 C 
HETATM   20  C   UNL     1      42.328 -18.243   5.345  1.00  0.00     0.015 A 
HETATM   21  C   UNL     1      41.581 -17.050   5.336  1.00  0.00    -0.034 A 
HETATM   22  C   UNL     1      40.362 -17.001   6.222  1.00  0.00     0.050 C 
ENDBRANCH   1  14
TORSDOF 1
ENDMDL
MODEL 7
REMARK VINA RESULT:      -6.5      2.361      3.532
REMARK  1 active torsions:
REMARK  status: ('A' for Active; 'I' for Inactive)
REMARK    1  A    between atoms: C_6  and  N_7 
ROOT
HETATM    1  N   UNL     1      40.846 -14.903   3.584  1.00  0.00    -0.320 N 
HETATM    2  C   UNL     1      40.140 -14.427   4.737  1.00  0.00     0.141 C 
HETATM    3  N   UNL     1      39.838 -15.201   5.740  1.00  0.00    -0.380 N 
HETATM    4  H   UNL     1      40.111 -16.174   5.705  1.00  0.00     0.158 HD
HETATM    5  H   UNL     1      39.331 -14.826   6.528  1.00  0.00     0.158 HD
HETATM    6  S   UNL     1      39.723 -12.753   4.643  1.00  0.00    -0.086 SA
HETATM    7  C   UNL     1      40.145 -12.738   2.872  1.00  0.00     0.093 C 
HETATM    8  C   UNL     1      41.296 -13.762   2.764  1.00  0.00     0.121 C 
HETATM    9  C   UNL     1      40.657 -11.501   2.177  1.00  0.00     0.158 C 
HETATM   10  S   UNL     1      41.439 -12.213   0.713  1.00  0.00     0.147 S 
HETATM   11  O   UNL     1      40.512 -12.126  -0.393  1.00  0.00    -0.228 OA
HETATM   12  O   UNL     1      42.796 -11.716   0.638  1.00  0.00    -0.228 OA
HETATM   13  C   UNL     1      41.490 -13.927   1.276  1.00  0.00     0.167 C 
ENDROOT
BRANCH   1  14
HETATM   14  C   UNL     1      41.674 -16.044   3.557  1.00  0.00     0.048 A 
HETATM   15  C   UNL     1      42.876 -16.035   4.304  1.00  0.00    -0.034 A 
HETATM   16  C   UNL     1      43.722 -17.156   4.284  1.00  0.00     0.015 A 
HETATM   17  C   UNL     1      43.301 -14.864   5.154  1.00  0.00     0.050 C 
HETATM   18  C   UNL     1      43.418 -18.277   3.513  1.00  0.00    -0.061 A 
HETATM   19  C   UNL     1      44.362 -19.444   3.454  1.00  0.00     0.048 C 
HETATM   20  C   UNL     1      42.256 -18.267   2.741  1.00  0.00     0.015 A 
HETATM   21  C   UNL     1      41.370 -17.173   2.761  1.00  0.00    -0.034 A 
HETATM   22  C   UNL     1      40.166 -17.252   1.857  1.00  0.00     0.050 C 
ENDBRANCH   1  14
TORSDOF 1
ENDMDL
MODEL 8
REMARK VINA RESULT:      -6.2      4.148      5.736
REMARK  1 active torsions:
REMARK  status: ('A' for Active; 'I' for Inactive)
REMARK    1  A    between atoms: C_6  and  N_7 
ROOT
HETATM    1  N   UNL     1      39.730 -14.305   0.824  1.00  0.00    -0.320 N 
HETATM    2  C   UNL     1      38.370 -14.116   0.411  1.00  0.00     0.141 C 
HETATM    3  N   UNL     1      37.379 -14.762   0.957  1.00  0.00    -0.380 N 
HETATM    4  H   UNL     1      37.574 -15.420   1.699  1.00  0.00     0.158 HD
HETATM    5  H   UNL     1      36.437 -14.606   0.628  1.00  0.00     0.158 HD
HETATM    6  S   UNL     1      38.196 -12.980  -0.878  1.00  0.00    -0.086 SA
HETATM    7  C   UNL     1      39.994 -13.015  -1.164  1.00  0.00     0.093 C 
HETATM    8  C   UNL     1      40.580 -13.248   0.245  1.00  0.00     0.121 C 
HETATM    9  C   UNL     1      40.745 -11.826  -1.709  1.00  0.00     0.158 C 
HETATM   10  S   UNL     1      42.436 -12.215  -1.210  1.00  0.00     0.147 S 
HETATM   11  O   UNL     1      43.119 -12.822  -2.331  1.00  0.00    -0.228 OA
HETATM   12  O   UNL     1      42.969 -11.078  -0.491  1.00  0.00    -0.228 OA
HETATM   13  C   UNL     1      42.045 -13.511  -0.017  1.00  0.00     0.167 C 
ENDROOT
BRANCH   1  14
HETATM   14  C   UNL     1      40.131 -14.797   2.083  1.00  0.00     0.048 A 
HETATM   15  C   UNL     1      40.666 -16.104   2.168  1.00  0.00    -0.034 A 
HETATM   16  C   UNL     1      41.063 -16.619   3.413  1.00  0.00     0.015 A 
HETATM   17  C   UNL     1      40.854 -16.990   0.963  1.00  0.00     0.050 C 
HETATM   18  C   UNL     1      40.911 -15.878   4.584  1.00  0.00    -0.061 A 
HETATM   19  C   UNL     1      41.282 -16.464   5.915  1.00  0.00     0.048 C 
HETATM   20  C   UNL     1      40.340 -14.606   4.505  1.00  0.00     0.015 A 
HETATM   21  C   UNL     1      39.961 -14.047   3.271  1.00  0.00    -0.034 A 
HETATM   22  C   UNL     1      39.317 -12.684   3.307  1.00  0.00     0.050 C 
ENDBRANCH   1  14
TORSDOF 1
ENDMDL
MODEL 9
REMARK VINA RESULT:      -6.2      3.257      5.243
REMARK  1 active torsions:
REMARK  status: ('A' for Active; 'I' for Inactive)
REMARK    1  A    between atoms: C_6  and  N_7 
ROOT
HETATM    1  N   UNL     1      41.646 -15.754   4.380  1.00  0.00    -0.320 N 
HETATM    2  C   UNL     1      40.575 -15.709   5.332  1.00  0.00     0.141 C 
HETATM    3  N   UNL     1      39.671 -14.770   5.322  1.00  0.00    -0.380 N 
HETATM    4  H   UNL     1      39.727 -14.046   4.619  1.00  0.00     0.158 HD
HETATM    5  H   UNL     1      38.940 -14.772   6.018  1.00  0.00     0.158 HD
HETATM    6  S   UNL     1      40.624 -16.997   6.482  1.00  0.00    -0.086 SA
HETATM    7  C   UNL     1      42.316 -17.415   5.955  1.00  0.00     0.093 C 
HETATM    8  C   UNL     1      42.325 -17.062   4.452  1.00  0.00     0.121 C 
HETATM    9  C   UNL     1      42.858 -18.821   6.029  1.00  0.00     0.158 C 
HETATM   10  S   UNL     1      44.240 -18.731   4.870  1.00  0.00     0.147 S 
HETATM   11  O   UNL     1      45.456 -18.509   5.620  1.00  0.00    -0.228 OA
HETATM   12  O   UNL     1      44.097 -19.804   3.911  1.00  0.00    -0.228 OA
HETATM   13  C   UNL     1      43.780 -17.182   4.065  1.00  0.00     0.167 C 
ENDROOT
BRANCH   1  14
HETATM   14  C   UNL     1      41.627 -15.139   3.112  1.00  0.00     0.048 A 
HETATM   15  C   UNL     1      42.248 -13.877   2.954  1.00  0.00    -0.034 A 
HETATM   16  C   UNL     1      42.232 -13.240   1.702  1.00  0.00     0.015 A 
HETATM   17  C   UNL     1      42.959 -13.170   4.079  1.00  0.00     0.050 C 
HETATM   18  C   UNL     1      41.584 -13.813   0.608  1.00  0.00    -0.061 A 
HETATM   19  C   UNL     1      41.523 -13.092  -0.708  1.00  0.00     0.048 C 
HETATM   20  C   UNL     1      40.932 -15.035   0.777  1.00  0.00     0.015 A 
HETATM   21  C   UNL     1      40.955 -15.716   2.009  1.00  0.00    -0.034 A 
HETATM   22  C   UNL     1      40.183 -17.008   2.090  1.00  0.00     0.050 C 
ENDBRANCH   1  14
TORSDOF 1
ENDMDL
MODEL 10
REMARK VINA RESULT:      -6.1      3.322      4.253
REMARK  1 active torsions:
REMARK  status: ('A' for Active; 'I' for Inactive)
REMARK    1  A    between atoms: C_6  and  N_7 
ROOT
HETATM    1  N   UNL     1      40.282 -13.961   3.998  1.00  0.00    -0.320 N 
HETATM    2  C   UNL     1      39.874 -14.167   5.357  1.00  0.00     0.141 C 
HETATM    3  N   UNL     1      39.960 -15.327   5.944  1.00  0.00    -0.380 N 
HETATM    4  H   UNL     1      40.328 -16.111   5.423  1.00  0.00     0.158 HD
HETATM    5  H   UNL     1      39.651 -15.430   6.899  1.00  0.00     0.158 HD
HETATM    6  S   UNL     1      39.247 -12.743   6.108  1.00  0.00    -0.086 SA
HETATM    7  C   UNL     1      39.153 -11.918   4.488  1.00  0.00     0.093 C 
HETATM    8  C   UNL     1      40.344 -12.516   3.707  1.00  0.00     0.121 C 
HETATM    9  C   UNL     1      39.297 -10.424   4.336  1.00  0.00     0.158 C 
HETATM   10  S   UNL     1      39.720 -10.284   2.586  1.00  0.00     0.147 S 
HETATM   11  O   UNL     1      38.517  -9.975   1.845  1.00  0.00    -0.228 OA
HETATM   12  O   UNL     1      40.931  -9.501   2.474  1.00  0.00    -0.228 OA
HETATM   13  C   UNL     1      40.132 -12.017   2.297  1.00  0.00     0.167 C 
ENDROOT
BRANCH   1  14
HETATM   14  C   UNL     1      41.201 -14.769   3.299  1.00  0.00     0.048 A 
HETATM   15  C   UNL     1      40.719 -15.654   2.307  1.00  0.00    -0.034 A 
HETATM   16  C   UNL     1      41.615 -16.477   1.605  1.00  0.00     0.015 A 
HETATM   17  C   UNL     1      39.259 -15.753   1.940  1.00  0.00     0.050 C 
HETATM   18  C   UNL     1      42.980 -16.466   1.889  1.00  0.00    -0.061 A 
HETATM   19  C   UNL     1      43.918 -17.394   1.173  1.00  0.00     0.048 C 
HETATM   20  C   UNL     1      43.449 -15.626   2.900  1.00  0.00     0.015 A 
HETATM   21  C   UNL     1      42.584 -14.766   3.601  1.00  0.00    -0.034 A 
HETATM   22  C   UNL     1      43.192 -13.932   4.700  1.00  0.00     0.050 C 
ENDBRANCH   1  14
TORSDOF 1
ENDMDL
