MODEL 1
REMARK VINA RESULT:      -8.4      0.000      0.000
REMARK  3 active torsions:
REMARK  status: ('A' for Active; 'I' for Inactive)
REMARK    1  A    between atoms: C_4  and  N_5 
REMARK       I    between atoms: N_5  and  C_6 
REMARK    2  A    between atoms: C_6  and  C_7 
REMARK    3  A    between atoms: C_7  and  C_8 
ROOT
HETATM    1  C   UNL     1      42.149 -16.660   4.467  1.00  0.00     0.286 C 
HETATM    2  N   UNL     1      41.984 -17.056   2.992  1.00  0.00    -0.056 N 
HETATM    3  H   UNL     1      42.865 -17.472   2.645  1.00  0.00     0.278 HD
HETATM    4  H   UNL     1      41.294 -17.818   2.922  1.00  0.00     0.278 HD
HETATM    5  C   UNL     1      41.561 -15.872   2.175  1.00  0.00     0.209 C 
HETATM    6  C   UNL     1      40.170 -15.431   2.683  1.00  0.00     0.115 C 
HETATM    7  N   UNL     1      40.184 -15.164   4.120  1.00  0.00    -0.353 N 
HETATM    8  C   UNL     1      40.902 -15.928   5.016  1.00  0.00     0.249 C 
HETATM    9  O   UNL     1      40.592 -15.938   6.203  1.00  0.00    -0.271 OA
HETATM   10  C   UNL     1      41.535 -16.221   0.694  1.00  0.00     0.035 C 
HETATM   11  C   UNL     1      41.057 -15.009  -0.106  1.00  0.00     0.002 C 
HETATM   12  C   UNL     1      39.691 -14.514   0.374  1.00  0.00     0.002 C 
HETATM   13  C   UNL     1      39.661 -14.234   1.879  1.00  0.00     0.027 C 
HETATM   14  H   UNL     1      39.356 -14.741   4.539  1.00  0.00     0.163 HD
ENDROOT
BRANCH   1  15
HETATM   15  C   UNL     1      42.484 -17.893   5.300  1.00  0.00     0.146 C 
BRANCH  15  16
HETATM   16  C   UNL     1      43.959 -17.868   5.574  1.00  0.00     0.224 C 
HETATM   17  N   UNL     1      44.807 -18.891   5.315  1.00  0.00    -0.327 N 
HETATM   18  H   UNL     1      45.713 -18.729   5.750  1.00  0.00     0.169 HD
HETATM   19  O   UNL     1      44.374 -16.952   6.301  1.00  0.00    -0.273 OA
BRANCH  17  20
HETATM   20  C   UNL     1      44.691 -20.127   4.658  1.00  0.00     0.035 A 
HETATM   21  C   UNL     1      44.452 -20.308   3.296  1.00  0.00     0.036 A 
HETATM   22  C   UNL     1      44.346 -21.600   2.750  1.00  0.00    -0.060 A 
HETATM   23  C   UNL     1      44.161 -21.796   1.271  1.00  0.00     0.048 C 
HETATM   24  C   UNL     1      44.507 -22.715   3.578  1.00  0.00     0.007 A 
HETATM   25  C   UNL     1      44.777 -22.546   4.931  1.00  0.00     0.003 A 
HETATM   26  C   UNL     1      44.881 -21.261   5.462  1.00  0.00     0.029 A 
ENDBRANCH  17  20
ENDBRANCH  15  16
ENDBRANCH   1  15
TORSDOF 3
ENDMDL
MODEL 2
REMARK VINA RESULT:      -8.3      2.110      3.156
REMARK  3 active torsions:
REMARK  status: ('A' for Active; 'I' for Inactive)
REMARK    1  A    between atoms: C_4  and  N_5 
REMARK       I    between atoms: N_5  and  C_6 
REMARK    2  A    between atoms: C_6  and  C_7 
REMARK    3  A    between atoms: C_7  and  C_8 
ROOT
HETATM    1  C   UNL     1      41.895 -15.973   4.557  1.00  0.00     0.286 C 
HETATM    2  N   UNL     1      41.085 -15.100   3.586  1.00  0.00    -0.056 N 
HETATM    3  H   UNL     1      41.619 -14.969   2.710  1.00  0.00     0.278 HD
HETATM    4  H   UNL     1      40.238 -15.611   3.298  1.00  0.00     0.278 HD
HETATM    5  C   UNL     1      40.729 -13.792   4.228  1.00  0.00     0.209 C 
HETATM    6  C   UNL     1      39.812 -14.101   5.432  1.00  0.00     0.115 C 
HETATM    7  N   UNL     1      40.438 -15.044   6.356  1.00  0.00    -0.353 N 
HETATM    8  C   UNL     1      41.200 -16.113   5.932  1.00  0.00     0.249 C 
HETATM    9  O   UNL     1      41.370 -17.078   6.668  1.00  0.00    -0.271 OA
HETATM   10  C   UNL     1      40.054 -12.867   3.226  1.00  0.00     0.035 C 
HETATM   11  C   UNL     1      39.664 -11.562   3.922  1.00  0.00     0.002 C 
HETATM   12  C   UNL     1      38.772 -11.812   5.140  1.00  0.00     0.002 C 
HETATM   13  C   UNL     1      39.389 -12.805   6.128  1.00  0.00     0.027 C 
HETATM   14  H   UNL     1      39.981 -15.218   7.250  1.00  0.00     0.163 HD
ENDROOT
BRANCH   1  15
HETATM   15  C   UNL     1      42.165 -17.335   3.927  1.00  0.00     0.146 C 
BRANCH  15  16
HETATM   16  C   UNL     1      43.277 -17.164   2.934  1.00  0.00     0.224 C 
HETATM   17  N   UNL     1      44.124 -18.147   2.551  1.00  0.00    -0.327 N 
HETATM   18  H   UNL     1      44.906 -17.766   2.022  1.00  0.00     0.169 HD
HETATM   19  O   UNL     1      43.582 -15.998   2.638  1.00  0.00    -0.273 OA
BRANCH  17  20
HETATM   20  C   UNL     1      44.199 -19.531   2.780  1.00  0.00     0.035 A 
HETATM   21  C   UNL     1      44.647 -20.142   3.950  1.00  0.00     0.036 A 
HETATM   22  C   UNL     1      44.687 -21.544   4.060  1.00  0.00    -0.060 A 
HETATM   23  C   UNL     1      45.099 -22.202   5.347  1.00  0.00     0.048 C 
HETATM   24  C   UNL     1      44.249 -22.333   2.992  1.00  0.00     0.007 A 
HETATM   25  C   UNL     1      43.772 -21.734   1.832  1.00  0.00     0.003 A 
HETATM   26  C   UNL     1      43.736 -20.344   1.734  1.00  0.00     0.029 A 
ENDBRANCH  17  20
ENDBRANCH  15  16
ENDBRANCH   1  15
TORSDOF 3
ENDMDL
MODEL 3
REMARK VINA RESULT:      -8.1      1.771      2.666
REMARK  3 active torsions:
REMARK  status: ('A' for Active; 'I' for Inactive)
REMARK    1  A    between atoms: C_4  and  N_5 
REMARK       I    between atoms: N_5  and  C_6 
REMARK    2  A    between atoms: C_6  and  C_7 
REMARK    3  A    between atoms: C_7  and  C_8 
ROOT
HETATM    1  C   UNL     1      41.140 -17.027   5.468  1.00  0.00     0.286 C 
HETATM    2  N   UNL     1      41.216 -15.631   6.103  1.00  0.00    -0.056 N 
HETATM    3  H   UNL     1      41.097 -15.710   7.128  1.00  0.00     0.278 HD
HETATM    4  H   UNL     1      42.168 -15.255   5.983  1.00  0.00     0.278 HD
HETATM    5  C   UNL     1      40.197 -14.718   5.489  1.00  0.00     0.209 C 
HETATM    6  C   UNL     1      40.562 -14.555   3.996  1.00  0.00     0.115 C 
HETATM    7  N   UNL     1      40.656 -15.849   3.323  1.00  0.00    -0.353 N 
HETATM    8  C   UNL     1      41.198 -16.967   3.923  1.00  0.00     0.249 C 
HETATM    9  O   UNL     1      41.619 -17.890   3.235  1.00  0.00    -0.271 OA
HETATM   10  C   UNL     1      40.168 -13.379   6.212  1.00  0.00     0.035 C 
HETATM   11  C   UNL     1      39.154 -12.457   5.534  1.00  0.00     0.002 C 
HETATM   12  C   UNL     1      39.455 -12.280   4.044  1.00  0.00     0.002 C 
HETATM   13  C   UNL     1      39.573 -13.615   3.304  1.00  0.00     0.027 C 
HETATM   14  H   UNL     1      40.761 -15.857   2.309  1.00  0.00     0.163 HD
ENDROOT
BRANCH   1  15
HETATM   15  C   UNL     1      42.243 -17.914   6.033  1.00  0.00     0.146 C 
BRANCH  15  16
HETATM   16  C   UNL     1      43.545 -17.445   5.453  1.00  0.00     0.224 C 
HETATM   17  N   UNL     1      44.448 -18.246   4.841  1.00  0.00    -0.327 N 
HETATM   18  H   UNL     1      45.328 -17.756   4.696  1.00  0.00     0.169 HD
HETATM   19  O   UNL     1      43.916 -16.305   5.772  1.00  0.00    -0.273 OA
BRANCH  17  20
HETATM   20  C   UNL     1      44.461 -19.591   4.436  1.00  0.00     0.035 A 
HETATM   21  C   UNL     1      44.276 -20.055   3.134  1.00  0.00     0.036 A 
HETATM   22  C   UNL     1      44.300 -21.432   2.850  1.00  0.00    -0.060 A 
HETATM   23  C   UNL     1      44.174 -21.927   1.437  1.00  0.00     0.048 C 
HETATM   24  C   UNL     1      44.537 -22.346   3.882  1.00  0.00     0.007 A 
HETATM   25  C   UNL     1      44.754 -21.893   5.178  1.00  0.00     0.003 A 
HETATM   26  C   UNL     1      44.729 -20.525   5.448  1.00  0.00     0.029 A 
ENDBRANCH  17  20
ENDBRANCH  15  16
ENDBRANCH   1  15
TORSDOF 3
ENDMDL
MODEL 4
REMARK VINA RESULT:      -8.1      3.954      7.378
REMARK  3 active torsions:
REMARK  status: ('A' for Active; 'I' for Inactive)
REMARK    1  A    between atoms: C_4  and  N_5 
REMARK       I    between atoms: N_5  and  C_6 
REMARK    2  A    between atoms: C_6  and  C_7 
REMARK    3  A    between atoms: C_7  and  C_8 
ROOT
HETATM    1  C   UNL     1      43.504 -17.785   6.322  1.00  0.00     0.286 C 
HETATM    2  N   UNL     1      43.978 -17.642   4.868  1.00  0.00    -0.056 N 
HETATM    3  H   UNL     1      43.533 -16.811   4.440  1.00  0.00     0.278 HD
HETATM    4  H   UNL     1      44.985 -17.427   4.859  1.00  0.00     0.278 HD
HETATM    5  C   UNL     1      43.688 -18.894   4.096  1.00  0.00     0.209 C 
HETATM    6  C   UNL     1      44.518 -20.032   4.730  1.00  0.00     0.115 C 
HETATM    7  N   UNL     1      44.245 -20.161   6.160  1.00  0.00    -0.353 N 
HETATM    8  C   UNL     1      44.045 -19.074   6.985  1.00  0.00     0.249 C 
HETATM    9  O   UNL     1      44.214 -19.180   8.195  1.00  0.00    -0.271 OA
HETATM   10  C   UNL     1      44.022 -18.707   2.622  1.00  0.00     0.035 C 
HETATM   11  C   UNL     1      43.759 -20.013   1.872  1.00  0.00     0.002 C 
HETATM   12  C   UNL     1      44.540 -21.182   2.476  1.00  0.00     0.002 C 
HETATM   13  C   UNL     1      44.290 -21.344   3.978  1.00  0.00     0.027 C 
HETATM   14  H   UNL     1      44.637 -20.962   6.654  1.00  0.00     0.163 HD
ENDROOT
BRANCH   1  15
HETATM   15  C   UNL     1      43.892 -16.544   7.118  1.00  0.00     0.146 C 
BRANCH  15  16
HETATM   16  C   UNL     1      43.045 -15.407   6.627  1.00  0.00     0.224 C 
HETATM   17  N   UNL     1      43.319 -14.098   6.834  1.00  0.00    -0.327 N 
HETATM   18  H   UNL     1      42.524 -13.516   6.581  1.00  0.00     0.169 HD
HETATM   19  O   UNL     1      41.909 -15.696   6.221  1.00  0.00    -0.273 OA
BRANCH  17  20
HETATM   20  C   UNL     1      44.406 -13.390   7.375  1.00  0.00     0.035 A 
HETATM   21  C   UNL     1      44.378 -12.612   8.532  1.00  0.00     0.036 A 
HETATM   22  C   UNL     1      45.531 -11.938   8.974  1.00  0.00    -0.060 A 
HETATM   23  C   UNL     1      45.521 -11.160  10.260  1.00  0.00     0.048 C 
HETATM   24  C   UNL     1      46.725 -12.069   8.257  1.00  0.00     0.007 A 
HETATM   25  C   UNL     1      46.771 -12.867   7.119  1.00  0.00     0.003 A 
HETATM   26  C   UNL     1      45.623 -13.532   6.691  1.00  0.00     0.029 A 
ENDBRANCH  17  20
ENDBRANCH  15  16
ENDBRANCH   1  15
TORSDOF 3
ENDMDL
MODEL 5
REMARK VINA RESULT:      -8.0      1.991      3.022
REMARK  3 active torsions:
REMARK  status: ('A' for Active; 'I' for Inactive)
REMARK    1  A    between atoms: C_4  and  N_5 
REMARK       I    between atoms: N_5  and  C_6 
REMARK    2  A    between atoms: C_6  and  C_7 
REMARK    3  A    between atoms: C_7  and  C_8 
ROOT
HETATM    1  C   UNL     1      40.641 -16.725   3.101  1.00  0.00     0.286 C 
HETATM    2  N   UNL     1      40.649 -15.234   3.472  1.00  0.00    -0.056 N 
HETATM    3  H   UNL     1      40.475 -15.129   4.486  1.00  0.00     0.278 HD
HETATM    4  H   UNL     1      41.597 -14.856   3.333  1.00  0.00     0.278 HD
HETATM    5  C   UNL     1      39.646 -14.483   2.649  1.00  0.00     0.209 C 
HETATM    6  C   UNL     1      40.089 -14.583   1.173  1.00  0.00     0.115 C 
HETATM    7  N   UNL     1      40.250 -15.974   0.754  1.00  0.00    -0.353 N 
HETATM    8  C   UNL     1      40.783 -16.945   1.576  1.00  0.00     0.249 C 
HETATM    9  O   UNL     1      41.263 -17.964   1.092  1.00  0.00    -0.271 OA
HETATM   10  C   UNL     1      39.546 -13.036   3.112  1.00  0.00     0.035 C 
HETATM   11  C   UNL     1      38.551 -12.286   2.226  1.00  0.00     0.002 C 
HETATM   12  C   UNL     1      38.929 -12.374   0.746  1.00  0.00     0.002 C 
HETATM   13  C   UNL     1      39.119 -13.817   0.271  1.00  0.00     0.027 C 
HETATM   14  H   UNL     1      40.411 -16.163  -0.234  1.00  0.00     0.163 HD
ENDROOT
BRANCH   1  15
HETATM   15  C   UNL     1      41.731 -17.458   3.874  1.00  0.00     0.146 C 
BRANCH  15  16
HETATM   16  C   UNL     1      43.049 -17.087   3.262  1.00  0.00     0.224 C 
HETATM   17  N   UNL     1      44.042 -17.963   2.981  1.00  0.00    -0.327 N 
HETATM   18  H   UNL     1      44.904 -17.474   2.750  1.00  0.00     0.169 HD
HETATM   19  O   UNL     1      43.331 -15.879   3.240  1.00  0.00    -0.273 OA
BRANCH  17  20
HETATM   20  C   UNL     1      44.160 -19.363   3.009  1.00  0.00     0.035 A 
HETATM   21  C   UNL     1      44.634 -20.121   4.079  1.00  0.00     0.036 A 
HETATM   22  C   UNL     1      44.717 -21.522   3.987  1.00  0.00    -0.060 A 
HETATM   23  C   UNL     1      45.157 -22.345   5.165  1.00  0.00     0.048 C 
HETATM   24  C   UNL     1      44.297 -22.164   2.818  1.00  0.00     0.007 A 
HETATM   25  C   UNL     1      43.794 -21.420   1.756  1.00  0.00     0.003 A 
HETATM   26  C   UNL     1      43.715 -20.032   1.858  1.00  0.00     0.029 A 
ENDBRANCH  17  20
ENDBRANCH  15  16
ENDBRANCH   1  15
TORSDOF 3
ENDMDL
MODEL 6
REMARK VINA RESULT:      -7.9      2.325      7.635
REMARK  3 active torsions:
REMARK  status: ('A' for Active; 'I' for Inactive)
REMARK    1  A    between atoms: C_4  and  N_5 
REMARK       I    between atoms: N_5  and  C_6 
REMARK    2  A    between atoms: C_6  and  C_7 
REMARK    3  A    between atoms: C_7  and  C_8 
ROOT
HETATM    1  C   UNL     1      42.517 -17.789   2.357  1.00  0.00     0.286 C 
HETATM    2  N   UNL     1      43.325 -18.966   1.790  1.00  0.00    -0.056 N 
HETATM    3  H   UNL     1      42.851 -19.338   0.949  1.00  0.00     0.278 HD
HETATM    4  H   UNL     1      44.231 -18.618   1.443  1.00  0.00     0.278 HD
HETATM    5  C   UNL     1      43.521 -20.020   2.838  1.00  0.00     0.209 C 
HETATM    6  C   UNL     1      44.366 -19.397   3.971  1.00  0.00     0.115 C 
HETATM    7  N   UNL     1      43.749 -18.178   4.490  1.00  0.00    -0.353 N 
HETATM    8  C   UNL     1      43.113 -17.258   3.682  1.00  0.00     0.249 C 
HETATM    9  O   UNL     1      42.967 -16.102   4.063  1.00  0.00    -0.271 OA
HETATM   10  C   UNL     1      44.194 -21.250   2.244  1.00  0.00     0.035 C 
HETATM   11  C   UNL     1      44.420 -22.287   3.345  1.00  0.00     0.002 C 
HETATM   12  C   UNL     1      45.233 -21.713   4.507  1.00  0.00     0.002 C 
HETATM   13  C   UNL     1      44.625 -20.427   5.072  1.00  0.00     0.027 C 
HETATM   14  H   UNL     1      44.150 -17.755   5.327  1.00  0.00     0.163 HD
ENDROOT
BRANCH   1  15
HETATM   15  C   UNL     1      42.409 -16.683   1.312  1.00  0.00     0.146 C 
BRANCH  15  16
HETATM   16  C   UNL     1      40.952 -16.450   1.046  1.00  0.00     0.224 C 
HETATM   17  N   UNL     1      40.465 -15.568   0.142  1.00  0.00    -0.327 N 
HETATM   18  H   UNL     1      39.462 -15.441   0.262  1.00  0.00     0.169 HD
HETATM   19  O   UNL     1      40.154 -16.918   1.874  1.00  0.00    -0.273 OA
BRANCH  17  20
HETATM   20  C   UNL     1      41.037 -14.757  -0.852  1.00  0.00     0.035 A 
HETATM   21  C   UNL     1      41.706 -13.552  -0.637  1.00  0.00     0.036 A 
HETATM   22  C   UNL     1      42.231 -12.817  -1.716  1.00  0.00    -0.060 A 
HETATM   23  C   UNL     1      43.015 -11.558  -1.478  1.00  0.00     0.048 C 
HETATM   24  C   UNL     1      42.101 -13.314  -3.017  1.00  0.00     0.007 A 
HETATM   25  C   UNL     1      41.463 -14.529  -3.240  1.00  0.00     0.003 A 
HETATM   26  C   UNL     1      40.948 -15.249  -2.162  1.00  0.00     0.029 A 
ENDBRANCH  17  20
ENDBRANCH  15  16
ENDBRANCH   1  15
TORSDOF 3
ENDMDL
MODEL 7
REMARK VINA RESULT:      -7.9      1.923      2.733
REMARK  3 active torsions:
REMARK  status: ('A' for Active; 'I' for Inactive)
REMARK    1  A    between atoms: C_4  and  N_5 
REMARK       I    between atoms: N_5  and  C_6 
REMARK    2  A    between atoms: C_6  and  C_7 
REMARK    3  A    between atoms: C_7  and  C_8 
ROOT
HETATM    1  C   UNL     1      41.781 -16.863   2.015  1.00  0.00     0.286 C 
HETATM    2  N   UNL     1      41.095 -16.469   0.698  1.00  0.00    -0.056 N 
HETATM    3  H   UNL     1      41.764 -16.574  -0.085  1.00  0.00     0.278 HD
HETATM    4  H   UNL     1      40.348 -17.147   0.490  1.00  0.00     0.278 HD
HETATM    5  C   UNL     1      40.548 -15.076   0.786  1.00  0.00     0.209 C 
HETATM    6  C   UNL     1      39.457 -15.075   1.881  1.00  0.00     0.115 C 
HETATM    7  N   UNL     1      39.975 -15.572   3.154  1.00  0.00    -0.353 N 
HETATM    8  C   UNL     1      40.868 -16.620   3.240  1.00  0.00     0.249 C 
HETATM    9  O   UNL     1      40.970 -17.256   4.283  1.00  0.00    -0.271 OA
HETATM   10  C   UNL     1      39.997 -14.628  -0.560  1.00  0.00     0.035 C 
HETATM   11  C   UNL     1      39.407 -13.223  -0.425  1.00  0.00     0.002 C 
HETATM   12  C   UNL     1      38.335 -13.160   0.666  1.00  0.00     0.002 C 
HETATM   13  C   UNL     1      38.836 -13.684   2.014  1.00  0.00     0.027 C 
HETATM   14  H   UNL     1      39.381 -15.493   3.978  1.00  0.00     0.163 HD
ENDROOT
BRANCH   1  15
HETATM   15  C   UNL     1      42.246 -18.313   1.944  1.00  0.00     0.146 C 
BRANCH  15  16
HETATM   16  C   UNL     1      43.715 -18.305   1.645  1.00  0.00     0.224 C 
HETATM   17  N   UNL     1      44.629 -19.096   2.252  1.00  0.00    -0.327 N 
HETATM   18  H   UNL     1      45.576 -18.793   2.032  1.00  0.00     0.169 HD
HETATM   19  O   UNL     1      44.141 -17.348   0.978  1.00  0.00    -0.273 OA
BRANCH  17  20
HETATM   20  C   UNL     1      44.561 -20.171   3.154  1.00  0.00     0.035 A 
HETATM   21  C   UNL     1      44.368 -20.071   4.531  1.00  0.00     0.036 A 
HETATM   22  C   UNL     1      44.327 -21.222   5.339  1.00  0.00    -0.060 A 
HETATM   23  C   UNL     1      44.047 -21.118   6.811  1.00  0.00     0.048 C 
HETATM   24  C   UNL     1      44.456 -22.483   4.749  1.00  0.00     0.007 A 
HETATM   25  C   UNL     1      44.617 -22.597   3.373  1.00  0.00     0.003 A 
HETATM   26  C   UNL     1      44.656 -21.449   2.582  1.00  0.00     0.029 A 
ENDBRANCH  17  20
ENDBRANCH  15  16
ENDBRANCH   1  15
TORSDOF 3
ENDMDL
MODEL 8
REMARK VINA RESULT:      -7.8      4.319      8.774
REMARK  3 active torsions:
REMARK  status: ('A' for Active; 'I' for Inactive)
REMARK    1  A    between atoms: C_4  and  N_5 
REMARK       I    between atoms: N_5  and  C_6 
REMARK    2  A    between atoms: C_6  and  C_7 
REMARK    3  A    between atoms: C_7  and  C_8 
ROOT
HETATM    1  C   UNL     1      40.748 -15.513  -0.168  1.00  0.00     0.286 C 
HETATM    2  N   UNL     1      42.215 -15.951  -0.047  1.00  0.00    -0.056 N 
HETATM    3  H   UNL     1      42.562 -16.257  -0.973  1.00  0.00     0.278 HD
HETATM    4  H   UNL     1      42.795 -15.133   0.187  1.00  0.00     0.278 HD
HETATM    5  C   UNL     1      42.358 -17.025   0.990  1.00  0.00     0.209 C 
HETATM    6  C   UNL     1      41.956 -16.412   2.350  1.00  0.00     0.115 C 
HETATM    7  N   UNL     1      40.615 -15.833   2.302  1.00  0.00    -0.353 N 
HETATM    8  C   UNL     1      40.134 -15.149   1.205  1.00  0.00     0.249 C 
HETATM    9  O   UNL     1      39.205 -14.360   1.331  1.00  0.00    -0.271 OA
HETATM   10  C   UNL     1      43.781 -17.565   1.012  1.00  0.00     0.035 C 
HETATM   11  C   UNL     1      43.905 -18.624   2.109  1.00  0.00     0.002 C 
HETATM   12  C   UNL     1      43.495 -18.075   3.477  1.00  0.00     0.002 C 
HETATM   13  C   UNL     1      42.098 -17.449   3.465  1.00  0.00     0.027 C 
HETATM   14  H   UNL     1      40.195 -15.519   3.175  1.00  0.00     0.163 HD
ENDROOT
BRANCH   1  15
HETATM   15  C   UNL     1      40.632 -14.355  -1.154  1.00  0.00     0.146 C 
BRANCH  15  16
HETATM   16  C   UNL     1      41.436 -14.712  -2.369  1.00  0.00     0.224 C 
HETATM   17  N   UNL     1      42.090 -13.820  -3.149  1.00  0.00    -0.327 N 
HETATM   18  H   UNL     1      42.406 -14.257  -4.013  1.00  0.00     0.169 HD
HETATM   19  O   UNL     1      41.287 -15.861  -2.816  1.00  0.00    -0.273 OA
BRANCH  17  20
HETATM   20  C   UNL     1      42.357 -12.444  -3.064  1.00  0.00     0.035 A 
HETATM   21  C   UNL     1      42.867 -11.778  -1.950  1.00  0.00     0.036 A 
HETATM   22  C   UNL     1      43.086 -10.389  -1.978  1.00  0.00    -0.060 A 
HETATM   23  C   UNL     1      43.703  -9.685  -0.804  1.00  0.00     0.048 C 
HETATM   24  C   UNL     1      42.811  -9.671  -3.146  1.00  0.00     0.007 A 
HETATM   25  C   UNL     1      42.331 -10.329  -4.273  1.00  0.00     0.003 A 
HETATM   26  C   UNL     1      42.120 -11.707  -4.234  1.00  0.00     0.029 A 
ENDBRANCH  17  20
ENDBRANCH  15  16
ENDBRANCH   1  15
TORSDOF 3
ENDMDL
MODEL 9
REMARK VINA RESULT:      -7.6      1.371      2.231
REMARK  3 active torsions:
REMARK  status: ('A' for Active; 'I' for Inactive)
REMARK    1  A    between atoms: C_4  and  N_5 
REMARK       I    between atoms: N_5  and  C_6 
REMARK    2  A    between atoms: C_6  and  C_7 
REMARK    3  A    between atoms: C_7  and  C_8 
ROOT
HETATM    1  C   UNL     1      41.366 -15.657   3.235  1.00  0.00     0.286 C 
HETATM    2  N   UNL     1      41.324 -16.329   1.855  1.00  0.00    -0.056 N 
HETATM    3  H   UNL     1      42.193 -16.871   1.707  1.00  0.00     0.278 HD
HETATM    4  H   UNL     1      40.575 -17.037   1.845  1.00  0.00     0.278 HD
HETATM    5  C   UNL     1      41.110 -15.306   0.780  1.00  0.00     0.209 C 
HETATM    6  C   UNL     1      39.722 -14.670   1.015  1.00  0.00     0.115 C 
HETATM    7  N   UNL     1      39.606 -14.120   2.364  1.00  0.00    -0.353 N 
HETATM    8  C   UNL     1      40.144 -14.739   3.473  1.00  0.00     0.249 C 
HETATM    9  O   UNL     1      39.708 -14.486   4.591  1.00  0.00    -0.271 OA
HETATM   10  C   UNL     1      41.211 -15.945  -0.598  1.00  0.00     0.035 C 
HETATM   11  C   UNL     1      40.943 -14.887  -1.670  1.00  0.00     0.002 C 
HETATM   12  C   UNL     1      39.588 -14.206  -1.469  1.00  0.00     0.002 C 
HETATM   13  C   UNL     1      39.423 -13.626  -0.062  1.00  0.00     0.027 C 
HETATM   14  H   UNL     1      38.783 -13.562   2.587  1.00  0.00     0.163 HD
ENDROOT
BRANCH   1  15
HETATM   15  C   UNL     1      41.487 -16.718   4.324  1.00  0.00     0.146 C 
BRANCH  15  16
HETATM   16  C   UNL     1      42.785 -16.488   5.040  1.00  0.00     0.224 C 
HETATM   17  N   UNL     1      43.806 -17.374   5.086  1.00  0.00    -0.327 N 
HETATM   18  H   UNL     1      44.502 -17.092   5.774  1.00  0.00     0.169 HD
HETATM   19  O   UNL     1      42.821 -15.534   5.833  1.00  0.00    -0.273 OA
BRANCH  17  20
HETATM   20  C   UNL     1      44.076 -18.603   4.461  1.00  0.00     0.035 A 
HETATM   21  C   UNL     1      44.447 -19.783   5.105  1.00  0.00     0.036 A 
HETATM   22  C   UNL     1      44.702 -20.955   4.370  1.00  0.00    -0.060 A 
HETATM   23  C   UNL     1      45.029 -22.244   5.070  1.00  0.00     0.048 C 
HETATM   24  C   UNL     1      44.558 -20.943   2.979  1.00  0.00     0.007 A 
HETATM   25  C   UNL     1      44.160 -19.780   2.329  1.00  0.00     0.003 A 
HETATM   26  C   UNL     1      43.908 -18.625   3.068  1.00  0.00     0.029 A 
ENDBRANCH  17  20
ENDBRANCH  15  16
ENDBRANCH   1  15
TORSDOF 3
ENDMDL
MODEL 10
REMARK VINA RESULT:      -7.6      2.364      4.007
REMARK  3 active torsions:
REMARK  status: ('A' for Active; 'I' for Inactive)
REMARK    1  A    between atoms: C_4  and  N_5 
REMARK       I    between atoms: N_5  and  C_6 
REMARK    2  A    between atoms: C_6  and  C_7 
REMARK    3  A    between atoms: C_7  and  C_8 
ROOT
HETATM    1  C   UNL     1      41.657 -16.976   3.651  1.00  0.00     0.286 C 
HETATM    2  N   UNL     1      43.040 -16.868   4.310  1.00  0.00    -0.056 N 
HETATM    3  H   UNL     1      43.355 -17.807   4.610  1.00  0.00     0.278 HD
HETATM    4  H   UNL     1      43.731 -16.580   3.603  1.00  0.00     0.278 HD
HETATM    5  C   UNL     1      43.004 -15.897   5.452  1.00  0.00     0.209 C 
HETATM    6  C   UNL     1      42.673 -14.506   4.867  1.00  0.00     0.115 C 
HETATM    7  N   UNL     1      41.434 -14.531   4.092  1.00  0.00    -0.353 N 
HETATM    8  C   UNL     1      41.080 -15.589   3.281  1.00  0.00     0.249 C 
HETATM    9  O   UNL     1      40.276 -15.423   2.370  1.00  0.00    -0.271 OA
HETATM   10  C   UNL     1      44.330 -15.894   6.199  1.00  0.00     0.035 C 
HETATM   11  C   UNL     1      44.276 -14.863   7.327  1.00  0.00     0.002 C 
HETATM   12  C   UNL     1      43.927 -13.468   6.804  1.00  0.00     0.002 C 
HETATM   13  C   UNL     1      42.639 -13.454   5.977  1.00  0.00     0.027 C 
HETATM   14  H   UNL     1      41.050 -13.644   3.771  1.00  0.00     0.163 HD
ENDROOT
BRANCH   1  15
HETATM   15  C   UNL     1      41.733 -17.891   2.434  1.00  0.00     0.146 C 
BRANCH  15  16
HETATM   16  C   UNL     1      43.085 -17.707   1.811  1.00  0.00     0.224 C 
HETATM   17  N   UNL     1      44.115 -18.575   1.936  1.00  0.00    -0.327 N 
HETATM   18  H   UNL     1      44.981 -18.163   1.594  1.00  0.00     0.169 HD
HETATM   19  O   UNL     1      43.340 -16.578   1.361  1.00  0.00    -0.273 OA
BRANCH  17  20
HETATM   20  C   UNL     1      44.263 -19.859   2.487  1.00  0.00     0.035 A 
HETATM   21  C   UNL     1      44.445 -20.152   3.838  1.00  0.00     0.036 A 
HETATM   22  C   UNL     1      44.592 -21.482   4.273  1.00  0.00    -0.060 A 
HETATM   23  C   UNL     1      44.714 -21.802   5.736  1.00  0.00     0.048 C 
HETATM   24  C   UNL     1      44.530 -22.523   3.342  1.00  0.00     0.007 A 
HETATM   25  C   UNL     1      44.318 -22.245   1.996  1.00  0.00     0.003 A 
HETATM   26  C   UNL     1      44.172 -20.923   1.576  1.00  0.00     0.029 A 
ENDBRANCH  17  20
ENDBRANCH  15  16
ENDBRANCH   1  15
TORSDOF 3
ENDMDL
