MODEL 1
REMARK VINA RESULT:      -8.2      0.000      0.000
REMARK  5 active torsions:
REMARK  status: ('A' for Active; 'I' for Inactive)
REMARK    1  A    between atoms: C_2  and  O_3 
REMARK    2  A    between atoms: C_4  and  C_5 
REMARK    3  A    between atoms: C_5  and  O_6 
REMARK    4  A    between atoms: C_9  and  C_10 
REMARK    5  A    between atoms: C_22  and  O_23 
ROOT
HETATM    1  C   UNL     1      40.544 -14.994   4.129  1.00  0.00     0.047 C 
HETATM    2  C   UNL     1      41.102 -16.432   4.084  1.00  0.00     0.073 C 
HETATM    3  C   UNL     1      42.510 -16.547   3.370  1.00  0.00     0.133 C 
HETATM    4  C   UNL     1      43.678 -17.272   4.099  1.00  0.00     0.074 C 
HETATM    5  C   UNL     1      43.471 -17.374   5.560  1.00  0.00     0.030 A 
HETATM    6  C   UNL     1      42.248 -17.248   6.172  1.00  0.00     0.042 A 
HETATM    7  N   UNL     1      42.462 -17.374   7.516  1.00  0.00    -0.279 N 
HETATM    8  H   UNL     1      41.787 -17.339   8.273  1.00  0.00     0.189 HD
HETATM    9  N   UNL     1      43.763 -17.568   7.821  1.00  0.00    -0.149 NA
HETATM   10  C   UNL     1      44.346 -17.555   6.630  1.00  0.00     0.190 A 
HETATM   11  C   UNL     1      40.948 -17.050   5.511  1.00  0.00     0.097 C 
ENDROOT
BRANCH   4  12
HETATM   12  C   UNL     1      43.888 -18.695   3.585  1.00  0.00    -0.047 A 
HETATM   13  C   UNL     1      44.360 -19.745   4.391  1.00  0.00     0.027 A 
HETATM   14  C   UNL     1      44.492 -21.034   3.870  1.00  0.00     0.011 A 
HETATM   15 BR   UNL     1      45.139 -22.426   4.974  1.00  0.00    -0.051 Br
HETATM   16  C   UNL     1      44.150 -21.306   2.547  1.00  0.00     0.019 A 
HETATM   17  C   UNL     1      43.677 -20.278   1.737  1.00  0.00     0.002 A 
HETATM   18  C   UNL     1      43.547 -18.985   2.251  1.00  0.00     0.008 A 
ENDBRANCH   4  12
BRANCH   3  19
HETATM   19  C   UNL     1      43.059 -15.186   2.979  1.00  0.00     0.266 C 
HETATM   20  O   UNL     1      43.845 -14.530   3.649  1.00  0.00    -0.265 OA
BRANCH  19  21
HETATM   21  O   UNL     1      42.561 -14.803   1.770  1.00  0.00    -0.326 OA
HETATM   22  C   UNL     1      42.363 -15.875   0.848  1.00  0.00     0.213 C 
ENDBRANCH  19  21
ENDBRANCH   3  19
BRANCH   2  23
HETATM   23  O   UNL     1      40.152 -17.130   3.236  1.00  0.00    -0.389 OA
HETATM   24  H   UNL     1      40.581 -17.319   2.382  1.00  0.00     0.210 HD
ENDBRANCH   2  23
BRANCH  10  25
HETATM   25  O   UNL     1      45.664 -17.715   6.637  1.00  0.00    -0.343 OA
HETATM   26  H   UNL     1      45.852 -18.207   5.820  1.00  0.00     0.219 HD
ENDBRANCH  10  25
TORSDOF 5
ENDMDL
MODEL 2
REMARK VINA RESULT:      -7.6      2.544      3.469
REMARK  5 active torsions:
REMARK  status: ('A' for Active; 'I' for Inactive)
REMARK    1  A    between atoms: C_2  and  O_3 
REMARK    2  A    between atoms: C_4  and  C_5 
REMARK    3  A    between atoms: C_5  and  O_6 
REMARK    4  A    between atoms: C_9  and  C_10 
REMARK    5  A    between atoms: C_22  and  O_23 
ROOT
HETATM    1  C   UNL     1      38.966 -14.454   1.209  1.00  0.00     0.047 C 
HETATM    2  C   UNL     1      39.898 -15.392   2.004  1.00  0.00     0.073 C 
HETATM    3  C   UNL     1      41.258 -15.718   1.262  1.00  0.00     0.133 C 
HETATM    4  C   UNL     1      42.605 -15.515   2.014  1.00  0.00     0.074 C 
HETATM    5  C   UNL     1      42.485 -14.611   3.178  1.00  0.00     0.030 A 
HETATM    6  C   UNL     1      41.296 -14.315   3.800  1.00  0.00     0.042 A 
HETATM    7  N   UNL     1      41.582 -13.434   4.805  1.00  0.00    -0.279 N 
HETATM    8  H   UNL     1      40.950 -13.005   5.473  1.00  0.00     0.189 HD
HETATM    9  N   UNL     1      42.895 -13.129   4.873  1.00  0.00    -0.149 NA
HETATM   10  C   UNL     1      43.411 -13.842   3.881  1.00  0.00     0.190 A 
HETATM   11  C   UNL     1      39.970 -14.863   3.472  1.00  0.00     0.097 C 
ENDROOT
BRANCH   4  12
HETATM   12  C   UNL     1      43.183 -16.829   2.537  1.00  0.00    -0.047 A 
HETATM   13  C   UNL     1      43.522 -17.042   3.883  1.00  0.00     0.027 A 
HETATM   14  C   UNL     1      44.009 -18.282   4.304  1.00  0.00     0.011 A 
HETATM   15 BR   UNL     1      44.466 -18.537   6.121  1.00  0.00    -0.051 Br
HETATM   16  C   UNL     1      44.157 -19.331   3.402  1.00  0.00     0.019 A 
HETATM   17  C   UNL     1      43.822 -19.139   2.065  1.00  0.00     0.002 A 
HETATM   18  C   UNL     1      43.339 -17.900   1.636  1.00  0.00     0.008 A 
ENDBRANCH   4  12
BRANCH   3  19
HETATM   19  C   UNL     1      41.396 -14.941  -0.034  1.00  0.00     0.266 C 
HETATM   20  O   UNL     1      41.775 -13.780  -0.118  1.00  0.00    -0.265 OA
BRANCH  19  21
HETATM   21  O   UNL     1      41.048 -15.722  -1.096  1.00  0.00    -0.326 OA
HETATM   22  C   UNL     1      40.982 -15.029  -2.342  1.00  0.00     0.213 C 
ENDBRANCH  19  21
ENDBRANCH   3  19
BRANCH   2  23
HETATM   23  O   UNL     1      39.150 -16.635   2.057  1.00  0.00    -0.389 OA
HETATM   24  H   UNL     1      39.520 -17.189   2.768  1.00  0.00     0.210 HD
ENDBRANCH   2  23
BRANCH  10  25
HETATM   25  O   UNL     1      44.722 -13.716   3.708  1.00  0.00    -0.343 OA
HETATM   26  H   UNL     1      45.097 -13.869   4.591  1.00  0.00     0.219 HD
ENDBRANCH  10  25
TORSDOF 5
ENDMDL
MODEL 3
REMARK VINA RESULT:      -7.6      1.576      2.249
REMARK  5 active torsions:
REMARK  status: ('A' for Active; 'I' for Inactive)
REMARK    1  A    between atoms: C_2  and  O_3 
REMARK    2  A    between atoms: C_4  and  C_5 
REMARK    3  A    between atoms: C_5  and  O_6 
REMARK    4  A    between atoms: C_9  and  C_10 
REMARK    5  A    between atoms: C_22  and  O_23 
ROOT
HETATM    1  C   UNL     1      40.601 -14.100   5.918  1.00  0.00     0.047 C 
HETATM    2  C   UNL     1      41.062 -15.378   5.186  1.00  0.00     0.073 C 
HETATM    3  C   UNL     1      42.425 -15.205   4.400  1.00  0.00     0.133 C 
HETATM    4  C   UNL     1      43.576 -16.226   4.636  1.00  0.00     0.074 C 
HETATM    5  C   UNL     1      43.431 -16.976   5.902  1.00  0.00     0.030 A 
HETATM    6  C   UNL     1      42.248 -17.099   6.589  1.00  0.00     0.042 A 
HETATM    7  N   UNL     1      42.515 -17.832   7.711  1.00  0.00    -0.279 N 
HETATM    8  H   UNL     1      41.880 -18.123   8.447  1.00  0.00     0.189 HD
HETATM    9  N   UNL     1      43.813 -18.192   7.802  1.00  0.00    -0.149 NA
HETATM   10  C   UNL     1      44.340 -17.658   6.708  1.00  0.00     0.190 A 
HETATM   11  C   UNL     1      40.935 -16.573   6.184  1.00  0.00     0.097 C 
ENDROOT
BRANCH   4  12
HETATM   12  C   UNL     1      43.670 -17.263   3.519  1.00  0.00    -0.047 A 
HETATM   13  C   UNL     1      43.966 -18.617   3.746  1.00  0.00     0.027 A 
HETATM   14  C   UNL     1      43.997 -19.524   2.684  1.00  0.00     0.011 A 
HETATM   15 BR   UNL     1      44.408 -21.340   3.018  1.00  0.00    -0.051 Br
HETATM   16  C   UNL     1      43.726 -19.107   1.384  1.00  0.00     0.019 A 
HETATM   17  C   UNL     1      43.426 -17.770   1.141  1.00  0.00     0.002 A 
HETATM   18  C   UNL     1      43.398 -16.857   2.199  1.00  0.00     0.008 A 
ENDBRANCH   4  12
BRANCH   3  19
HETATM   19  C   UNL     1      43.042 -13.837   4.631  1.00  0.00     0.266 C 
HETATM   20  O   UNL     1      42.615 -12.789   4.166  1.00  0.00    -0.265 OA
BRANCH  19  21
HETATM   21  O   UNL     1      44.133 -13.940   5.442  1.00  0.00    -0.326 OA
HETATM   22  C   UNL     1      43.939 -13.428   6.760  1.00  0.00     0.213 C 
ENDBRANCH  19  21
ENDBRANCH   3  19
BRANCH   2  23
HETATM   23  O   UNL     1      40.031 -15.576   4.183  1.00  0.00    -0.389 OA
HETATM   24  H   UNL     1      39.783 -16.517   4.176  1.00  0.00     0.210 HD
ENDBRANCH   2  23
BRANCH  10  25
HETATM   25  O   UNL     1      45.644 -17.852   6.549  1.00  0.00    -0.343 OA
HETATM   26  H   UNL     1      45.812 -18.715   6.964  1.00  0.00     0.219 HD
ENDBRANCH  10  25
TORSDOF 5
ENDMDL
MODEL 4
REMARK VINA RESULT:      -7.3      2.938      4.593
REMARK  5 active torsions:
REMARK  status: ('A' for Active; 'I' for Inactive)
REMARK    1  A    between atoms: C_2  and  O_3 
REMARK    2  A    between atoms: C_4  and  C_5 
REMARK    3  A    between atoms: C_5  and  O_6 
REMARK    4  A    between atoms: C_9  and  C_10 
REMARK    5  A    between atoms: C_22  and  O_23 
ROOT
HETATM    1  C   UNL     1      41.977 -12.928   4.215  1.00  0.00     0.047 C 
HETATM    2  C   UNL     1      42.715 -14.248   3.908  1.00  0.00     0.073 C 
HETATM    3  C   UNL     1      41.974 -15.535   4.456  1.00  0.00     0.133 C 
HETATM    4  C   UNL     1      41.697 -16.725   3.492  1.00  0.00     0.074 C 
HETATM    5  C   UNL     1      41.752 -16.337   2.067  1.00  0.00     0.030 A 
HETATM    6  C   UNL     1      42.377 -15.205   1.604  1.00  0.00     0.042 A 
HETATM    7  N   UNL     1      42.192 -15.175   0.250  1.00  0.00    -0.279 N 
HETATM    8  H   UNL     1      42.519 -14.487  -0.422  1.00  0.00     0.189 HD
HETATM    9  N   UNL     1      41.472 -16.223  -0.202  1.00  0.00    -0.149 NA
HETATM   10  C   UNL     1      41.214 -16.899   0.910  1.00  0.00     0.190 A 
HETATM   11  C   UNL     1      43.131 -14.225   2.402  1.00  0.00     0.097 C 
ENDROOT
BRANCH   4  12
HETATM   12  C   UNL     1      42.697 -17.865   3.676  1.00  0.00    -0.047 A 
HETATM   13  C   UNL     1      42.814 -18.941   2.780  1.00  0.00     0.027 A 
HETATM   14  C   UNL     1      43.777 -19.932   2.984  1.00  0.00     0.011 A 
HETATM   15 BR   UNL     1      43.906 -21.373   1.767  1.00  0.00    -0.051 Br
HETATM   16  C   UNL     1      44.645 -19.868   4.071  1.00  0.00     0.019 A 
HETATM   17  C   UNL     1      44.545 -18.807   4.966  1.00  0.00     0.002 A 
HETATM   18  C   UNL     1      43.581 -17.815   4.770  1.00  0.00     0.008 A 
ENDBRANCH   4  12
BRANCH   3  19
HETATM   19  C   UNL     1      40.630 -15.193   5.075  1.00  0.00     0.266 C 
HETATM   20  O   UNL     1      39.672 -14.739   4.462  1.00  0.00    -0.265 OA
BRANCH  19  21
HETATM   21  O   UNL     1      40.636 -15.476   6.408  1.00  0.00    -0.326 OA
HETATM   22  C   UNL     1      40.524 -16.865   6.717  1.00  0.00     0.213 C 
ENDBRANCH  19  21
ENDBRANCH   3  19
BRANCH   2  23
HETATM   23  O   UNL     1      43.944 -14.126   4.670  1.00  0.00    -0.389 OA
HETATM   24  H   UNL     1      43.930 -13.276   5.146  1.00  0.00     0.210 HD
ENDBRANCH   2  23
BRANCH  10  25
HETATM   25  O   UNL     1      40.488 -18.000   0.755  1.00  0.00    -0.343 OA
HETATM   26  H   UNL     1      39.581 -17.723   0.969  1.00  0.00     0.219 HD
ENDBRANCH  10  25
TORSDOF 5
ENDMDL
MODEL 5
REMARK VINA RESULT:      -7.1      5.239      7.428
REMARK  5 active torsions:
REMARK  status: ('A' for Active; 'I' for Inactive)
REMARK    1  A    between atoms: C_2  and  O_3 
REMARK    2  A    between atoms: C_4  and  C_5 
REMARK    3  A    between atoms: C_5  and  O_6 
REMARK    4  A    between atoms: C_9  and  C_10 
REMARK    5  A    between atoms: C_22  and  O_23 
ROOT
HETATM    1  C   UNL     1      41.260 -10.427  -0.690  1.00  0.00     0.047 C 
HETATM    2  C   UNL     1      41.649 -11.844  -0.224  1.00  0.00     0.073 C 
HETATM    3  C   UNL     1      40.424 -12.706   0.290  1.00  0.00     0.133 C 
HETATM    4  C   UNL     1      40.197 -14.132  -0.291  1.00  0.00     0.074 C 
HETATM    5  C   UNL     1      40.883 -14.343  -1.583  1.00  0.00     0.030 A 
HETATM    6  C   UNL     1      41.930 -13.575  -2.031  1.00  0.00     0.042 A 
HETATM    7  N   UNL     1      42.275 -14.054  -3.263  1.00  0.00    -0.279 N 
HETATM    8  H   UNL     1      43.009 -13.733  -3.888  1.00  0.00     0.189 HD
HETATM    9  N   UNL     1      41.507 -15.093  -3.653  1.00  0.00    -0.149 NA
HETATM   10  C   UNL     1      40.675 -15.239  -2.631  1.00  0.00     0.190 A 
HETATM   11  C   UNL     1      42.581 -12.468  -1.312  1.00  0.00     0.097 C 
ENDROOT
BRANCH   4  12
HETATM   12  C   UNL     1      40.688 -15.228   0.653  1.00  0.00    -0.047 A 
HETATM   13  C   UNL     1      41.982 -15.772   0.595  1.00  0.00     0.027 A 
HETATM   14  C   UNL     1      42.383 -16.745   1.514  1.00  0.00     0.011 A 
HETATM   15 BR   UNL     1      44.128 -17.466   1.408  1.00  0.00    -0.051 Br
HETATM   16  C   UNL     1      41.514 -17.186   2.508  1.00  0.00     0.019 A 
HETATM   17  C   UNL     1      40.230 -16.654   2.582  1.00  0.00     0.002 A 
HETATM   18  C   UNL     1      39.821 -15.684   1.663  1.00  0.00     0.008 A 
ENDBRANCH   4  12
BRANCH   3  19
HETATM   19  C   UNL     1      39.104 -11.978   0.106  1.00  0.00     0.266 C 
HETATM   20  O   UNL     1      38.423 -12.009  -0.910  1.00  0.00    -0.265 OA
BRANCH  19  21
HETATM   21  O   UNL     1      38.778 -11.294   1.239  1.00  0.00    -0.326 OA
HETATM   22  C   UNL     1      38.827 -12.073   2.434  1.00  0.00     0.213 C 
ENDBRANCH  19  21
ENDBRANCH   3  19
BRANCH   2  23
HETATM   23  O   UNL     1      42.489 -11.594   0.933  1.00  0.00    -0.389 OA
HETATM   24  H   UNL     1      43.311 -12.107   0.836  1.00  0.00     0.210 HD
ENDBRANCH   2  23
BRANCH  10  25
HETATM   25  O   UNL     1      39.777 -16.209  -2.759  1.00  0.00    -0.343 OA
HETATM   26  H   UNL     1      38.931 -15.784  -2.540  1.00  0.00     0.219 HD
ENDBRANCH  10  25
TORSDOF 5
ENDMDL
MODEL 6
REMARK VINA RESULT:      -7.0      3.511      5.293
REMARK  5 active torsions:
REMARK  status: ('A' for Active; 'I' for Inactive)
REMARK    1  A    between atoms: C_2  and  O_3 
REMARK    2  A    between atoms: C_4  and  C_5 
REMARK    3  A    between atoms: C_5  and  O_6 
REMARK    4  A    between atoms: C_9  and  C_10 
REMARK    5  A    between atoms: C_22  and  O_23 
ROOT
HETATM    1  C   UNL     1      42.208 -16.890   7.093  1.00  0.00     0.047 C 
HETATM    2  C   UNL     1      41.550 -16.689   5.713  1.00  0.00     0.073 C 
HETATM    3  C   UNL     1      42.063 -15.404   4.943  1.00  0.00     0.133 C 
HETATM    4  C   UNL     1      42.569 -15.544   3.477  1.00  0.00     0.074 C 
HETATM    5  C   UNL     1      42.937 -16.932   3.125  1.00  0.00     0.030 A 
HETATM    6  C   UNL     1      42.506 -18.039   3.815  1.00  0.00     0.042 A 
HETATM    7  N   UNL     1      43.073 -19.127   3.213  1.00  0.00    -0.279 N 
HETATM    8  H   UNL     1      42.973 -20.109   3.451  1.00  0.00     0.189 HD
HETATM    9  N   UNL     1      43.859 -18.795   2.168  1.00  0.00    -0.149 NA
HETATM   10  C   UNL     1      43.767 -17.472   2.144  1.00  0.00     0.190 A 
HETATM   11  C   UNL     1      41.584 -18.058   4.962  1.00  0.00     0.097 C 
ENDROOT
BRANCH   4  12
HETATM   12  C   UNL     1      41.524 -15.095   2.458  1.00  0.00    -0.047 A 
HETATM   13  C   UNL     1      41.850 -14.455   1.251  1.00  0.00     0.027 A 
HETATM   14  C   UNL     1      40.849 -14.104   0.341  1.00  0.00     0.011 A 
HETATM   15 BR   UNL     1      41.316 -13.235  -1.272  1.00  0.00    -0.051 Br
HETATM   16  C   UNL     1      39.513 -14.390   0.609  1.00  0.00     0.019 A 
HETATM   17  C   UNL     1      39.173 -15.027   1.799  1.00  0.00     0.002 A 
HETATM   18  C   UNL     1      40.169 -15.377   2.714  1.00  0.00     0.008 A 
ENDBRANCH   4  12
BRANCH   3  19
HETATM   19  C   UNL     1      43.183 -14.705   5.693  1.00  0.00     0.266 C 
HETATM   20  O   UNL     1      44.323 -15.136   5.811  1.00  0.00    -0.265 OA
BRANCH  19  21
HETATM   21  O   UNL     1      42.743 -13.522   6.207  1.00  0.00    -0.326 OA
HETATM   22  C   UNL     1      41.505 -13.066   5.661  1.00  0.00     0.213 C 
ENDBRANCH  19  21
ENDBRANCH   3  19
BRANCH   2  23
HETATM   23  O   UNL     1      40.158 -16.442   6.042  1.00  0.00    -0.389 OA
HETATM   24  H   UNL     1      40.101 -15.606   6.539  1.00  0.00     0.210 HD
ENDBRANCH   2  23
BRANCH  10  25
HETATM   25  O   UNL     1      44.473 -16.867   1.196  1.00  0.00    -0.343 OA
HETATM   26  H   UNL     1      44.768 -16.037   1.608  1.00  0.00     0.219 HD
ENDBRANCH  10  25
TORSDOF 5
ENDMDL
MODEL 7
REMARK VINA RESULT:      -6.7      3.128      4.774
REMARK  5 active torsions:
REMARK  status: ('A' for Active; 'I' for Inactive)
REMARK    1  A    between atoms: C_2  and  O_3 
REMARK    2  A    between atoms: C_4  and  C_5 
REMARK    3  A    between atoms: C_5  and  O_6 
REMARK    4  A    between atoms: C_9  and  C_10 
REMARK    5  A    between atoms: C_22  and  O_23 
ROOT
HETATM    1  C   UNL     1      41.610 -12.307   3.556  1.00  0.00     0.047 C 
HETATM    2  C   UNL     1      42.378 -13.644   3.526  1.00  0.00     0.073 C 
HETATM    3  C   UNL     1      41.623 -14.830   4.253  1.00  0.00     0.133 C 
HETATM    4  C   UNL     1      41.414 -16.176   3.500  1.00  0.00     0.074 C 
HETATM    5  C   UNL     1      41.543 -16.043   2.033  1.00  0.00     0.030 A 
HETATM    6  C   UNL     1      42.179 -14.997   1.411  1.00  0.00     0.042 A 
HETATM    7  N   UNL     1      42.069 -15.208   0.066  1.00  0.00    -0.279 N 
HETATM    8  H   UNL     1      42.425 -14.643  -0.698  1.00  0.00     0.189 HD
HETATM    9  N   UNL     1      41.388 -16.335  -0.231  1.00  0.00    -0.149 NA
HETATM   10  C   UNL     1      41.077 -16.810   0.968  1.00  0.00     0.190 A 
HETATM   11  C   UNL     1      42.877 -13.877   2.063  1.00  0.00     0.097 C 
ENDROOT
BRANCH   4  12
HETATM   12  C   UNL     1      42.415 -17.245   3.934  1.00  0.00    -0.047 A 
HETATM   13  C   UNL     1      42.625 -17.606   5.275  1.00  0.00     0.027 A 
HETATM   14  C   UNL     1      43.527 -18.621   5.603  1.00  0.00     0.011 A 
HETATM   15 BR   UNL     1      43.797 -19.081   7.417  1.00  0.00    -0.051 Br
HETATM   16  C   UNL     1      44.228 -19.299   4.609  1.00  0.00     0.019 A 
HETATM   17  C   UNL     1      44.029 -18.956   3.275  1.00  0.00     0.002 A 
HETATM   18  C   UNL     1      43.131 -17.939   2.940  1.00  0.00     0.008 A 
ENDBRANCH   4  12
BRANCH   3  19
HETATM   19  C   UNL     1      40.243 -14.413   4.730  1.00  0.00     0.266 C 
HETATM   20  O   UNL     1      39.253 -14.325   4.016  1.00  0.00    -0.265 OA
BRANCH  19  21
HETATM   21  O   UNL     1      40.260 -14.164   6.070  1.00  0.00    -0.326 OA
HETATM   22  C   UNL     1      39.548 -12.989   6.460  1.00  0.00     0.213 C 
ENDBRANCH  19  21
ENDBRANCH   3  19
BRANCH   2  23
HETATM   23  O   UNL     1      43.562 -13.364   4.318  1.00  0.00    -0.389 OA
HETATM   24  H   UNL     1      44.052 -14.195   4.447  1.00  0.00     0.210 HD
ENDBRANCH   2  23
BRANCH  10  25
HETATM   25  O   UNL     1      40.373 -17.937   0.971  1.00  0.00    -0.343 OA
HETATM   26  H   UNL     1      39.562 -17.713   1.458  1.00  0.00     0.219 HD
ENDBRANCH  10  25
TORSDOF 5
ENDMDL
MODEL 8
REMARK VINA RESULT:      -6.6      6.696      8.975
REMARK  5 active torsions:
REMARK  status: ('A' for Active; 'I' for Inactive)
REMARK    1  A    between atoms: C_2  and  O_3 
REMARK    2  A    between atoms: C_4  and  C_5 
REMARK    3  A    between atoms: C_5  and  O_6 
REMARK    4  A    between atoms: C_9  and  C_10 
REMARK    5  A    between atoms: C_22  and  O_23 
ROOT
HETATM    1  C   UNL     1      38.018 -14.382   1.126  1.00  0.00     0.047 C 
HETATM    2  C   UNL     1      38.782 -13.444   0.169  1.00  0.00     0.073 C 
HETATM    3  C   UNL     1      40.352 -13.468   0.371  1.00  0.00     0.133 C 
HETATM    4  C   UNL     1      41.276 -13.703  -0.860  1.00  0.00     0.074 C 
HETATM    5  C   UNL     1      40.571 -14.328  -1.999  1.00  0.00     0.030 A 
HETATM    6  C   UNL     1      39.206 -14.323  -2.152  1.00  0.00     0.042 A 
HETATM    7  N   UNL     1      38.932 -15.015  -3.298  1.00  0.00    -0.279 N 
HETATM    8  H   UNL     1      38.032 -15.208  -3.725  1.00  0.00     0.189 HD
HETATM    9  N   UNL     1      40.045 -15.481  -3.904  1.00  0.00    -0.149 NA
HETATM   10  C   UNL     1      41.011 -15.062  -3.098  1.00  0.00     0.190 A 
HETATM   11  C   UNL     1      38.223 -13.671  -1.272  1.00  0.00     0.097 C 
ENDROOT
BRANCH   4  12
HETATM   12  C   UNL     1      41.890 -12.405  -1.381  1.00  0.00    -0.047 A 
HETATM   13  C   UNL     1      41.859 -12.026  -2.733  1.00  0.00     0.027 A 
HETATM   14  C   UNL     1      42.403 -10.806  -3.140  1.00  0.00     0.011 A 
HETATM   15 BR   UNL     1      42.356 -10.325  -4.968  1.00  0.00    -0.051 Br
HETATM   16  C   UNL     1      42.977  -9.939  -2.214  1.00  0.00     0.019 A 
HETATM   17  C   UNL     1      43.012 -10.297  -0.870  1.00  0.00     0.002 A 
HETATM   18  C   UNL     1      42.473 -11.518  -0.457  1.00  0.00     0.008 A 
ENDBRANCH   4  12
BRANCH   3  19
HETATM   19  C   UNL     1      40.775 -14.502   1.399  1.00  0.00     0.266 C 
HETATM   20  O   UNL     1      40.812 -15.710   1.202  1.00  0.00    -0.265 OA
BRANCH  19  21
HETATM   21  O   UNL     1      41.118 -13.895   2.570  1.00  0.00    -0.326 OA
HETATM   22  C   UNL     1      42.513 -13.619   2.704  1.00  0.00     0.213 C 
ENDBRANCH  19  21
ENDBRANCH   3  19
BRANCH   2  23
HETATM   23  O   UNL     1      38.336 -12.122   0.574  1.00  0.00    -0.389 OA
HETATM   24  H   UNL     1      37.539 -12.220   1.125  1.00  0.00     0.210 HD
ENDBRANCH   2  23
BRANCH  10  25
HETATM   25  O   UNL     1      42.244 -15.403  -3.458  1.00  0.00    -0.343 OA
HETATM   26  H   UNL     1      42.407 -16.242  -2.994  1.00  0.00     0.219 HD
ENDBRANCH  10  25
TORSDOF 5
ENDMDL
MODEL 9
REMARK VINA RESULT:      -6.6      2.323      3.012
REMARK  5 active torsions:
REMARK  status: ('A' for Active; 'I' for Inactive)
REMARK    1  A    between atoms: C_2  and  O_3 
REMARK    2  A    between atoms: C_4  and  C_5 
REMARK    3  A    between atoms: C_5  and  O_6 
REMARK    4  A    between atoms: C_9  and  C_10 
REMARK    5  A    between atoms: C_22  and  O_23 
ROOT
HETATM    1  C   UNL     1      39.627 -13.179   2.466  1.00  0.00     0.047 C 
HETATM    2  C   UNL     1      40.321 -14.383   3.136  1.00  0.00     0.073 C 
HETATM    3  C   UNL     1      41.706 -14.769   2.474  1.00  0.00     0.133 C 
HETATM    4  C   UNL     1      42.966 -14.922   3.375  1.00  0.00     0.074 C 
HETATM    5  C   UNL     1      42.824 -14.247   4.682  1.00  0.00     0.030 A 
HETATM    6  C   UNL     1      41.619 -13.894   5.237  1.00  0.00     0.042 A 
HETATM    7  N   UNL     1      41.894 -13.274   6.423  1.00  0.00    -0.279 N 
HETATM    8  H   UNL     1      41.247 -12.886   7.103  1.00  0.00     0.189 HD
HETATM    9  N   UNL     1      43.217 -13.194   6.676  1.00  0.00    -0.149 NA
HETATM   10  C   UNL     1      43.752 -13.778   5.611  1.00  0.00     0.190 A 
HETATM   11  C   UNL     1      40.282 -14.159   4.681  1.00  0.00     0.097 C 
ENDROOT
BRANCH   4  12
HETATM   12  C   UNL     1      43.295 -16.385   3.668  1.00  0.00    -0.047 A 
HETATM   13  C   UNL     1      43.276 -16.935   4.961  1.00  0.00     0.027 A 
HETATM   14  C   UNL     1      43.548 -18.291   5.158  1.00  0.00     0.011 A 
HETATM   15 BR   UNL     1      43.524 -19.003   6.909  1.00  0.00    -0.051 Br
HETATM   16  C   UNL     1      43.833 -19.124   4.079  1.00  0.00     0.019 A 
HETATM   17  C   UNL     1      43.851 -18.596   2.791  1.00  0.00     0.002 A 
HETATM   18  C   UNL     1      43.584 -17.239   2.588  1.00  0.00     0.008 A 
ENDBRANCH   4  12
BRANCH   3  19
HETATM   19  C   UNL     1      42.104 -13.791   1.383  1.00  0.00     0.266 C 
HETATM   20  O   UNL     1      42.342 -12.604   1.560  1.00  0.00    -0.265 OA
BRANCH  19  21
HETATM   21  O   UNL     1      42.171 -14.426   0.178  1.00  0.00    -0.326 OA
HETATM   22  C   UNL     1      41.599 -15.733   0.168  1.00  0.00     0.213 C 
ENDBRANCH  19  21
ENDBRANCH   3  19
BRANCH   2  23
HETATM   23  O   UNL     1      39.413 -15.483   2.862  1.00  0.00    -0.389 OA
HETATM   24  H   UNL     1      38.868 -15.638   3.654  1.00  0.00     0.210 HD
ENDBRANCH   2  23
BRANCH  10  25
HETATM   25  O   UNL     1      45.079 -13.826   5.591  1.00  0.00    -0.343 OA
HETATM   26  H   UNL     1      45.285 -14.773   5.518  1.00  0.00     0.219 HD
ENDBRANCH  10  25
TORSDOF 5
ENDMDL
MODEL 10
REMARK VINA RESULT:      -6.3      3.825      6.013
REMARK  5 active torsions:
REMARK  status: ('A' for Active; 'I' for Inactive)
REMARK    1  A    between atoms: C_2  and  O_3 
REMARK    2  A    between atoms: C_4  and  C_5 
REMARK    3  A    between atoms: C_5  and  O_6 
REMARK    4  A    between atoms: C_9  and  C_10 
REMARK    5  A    between atoms: C_22  and  O_23 
ROOT
HETATM    1  C   UNL     1      41.080 -10.689   4.481  1.00  0.00     0.047 C 
HETATM    2  C   UNL     1      41.525 -12.158   4.330  1.00  0.00     0.073 C 
HETATM    3  C   UNL     1      40.597 -13.187   5.096  1.00  0.00     0.133 C 
HETATM    4  C   UNL     1      40.023 -14.414   4.329  1.00  0.00     0.074 C 
HETATM    5  C   UNL     1      40.039 -14.235   2.862  1.00  0.00     0.030 A 
HETATM    6  C   UNL     1      40.830 -13.322   2.209  1.00  0.00     0.042 A 
HETATM    7  N   UNL     1      40.548 -13.434   0.876  1.00  0.00    -0.279 N 
HETATM    8  H   UNL     1      40.947 -12.920   0.096  1.00  0.00     0.189 HD
HETATM    9  N   UNL     1      39.608 -14.368   0.618  1.00  0.00    -0.149 NA
HETATM   10  C   UNL     1      39.314 -14.826   1.828  1.00  0.00     0.190 A 
HETATM   11  C   UNL     1      41.818 -12.418   2.818  1.00  0.00     0.097 C 
ENDROOT
BRANCH   4  12
HETATM   12  C   UNL     1      40.798 -15.697   4.624  1.00  0.00    -0.047 A 
HETATM   13  C   UNL     1      41.419 -16.469   3.629  1.00  0.00     0.027 A 
HETATM   14  C   UNL     1      42.148 -17.611   3.969  1.00  0.00     0.011 A 
HETATM   15 BR   UNL     1      42.966 -18.637   2.607  1.00  0.00    -0.051 Br
HETATM   16  C   UNL     1      42.280 -18.001   5.299  1.00  0.00     0.019 A 
HETATM   17  C   UNL     1      41.675 -17.245   6.298  1.00  0.00     0.002 A 
HETATM   18  C   UNL     1      40.941 -16.104   5.964  1.00  0.00     0.008 A 
ENDBRANCH   4  12
BRANCH   3  19
HETATM   19  C   UNL     1      39.396 -12.505   5.727  1.00  0.00     0.266 C 
HETATM   20  O   UNL     1      38.490 -11.967   5.105  1.00  0.00    -0.265 OA
BRANCH  19  21
HETATM   21  O   UNL     1      39.463 -12.588   7.086  1.00  0.00    -0.326 OA
HETATM   22  C   UNL     1      39.594 -11.330   7.747  1.00  0.00     0.213 C 
ENDBRANCH  19  21
ENDBRANCH   3  19
BRANCH   2  23
HETATM   23  O   UNL     1      42.811 -12.186   5.003  1.00  0.00    -0.389 OA
HETATM   24  H   UNL     1      43.285 -11.360   4.798  1.00  0.00     0.210 HD
ENDBRANCH   2  23
BRANCH  10  25
HETATM   25  O   UNL     1      38.381 -15.770   1.870  1.00  0.00    -0.343 OA
HETATM   26  H   UNL     1      38.821 -16.559   1.511  1.00  0.00     0.219 HD
ENDBRANCH  10  25
TORSDOF 5
ENDMDL
