MODEL 1
REMARK VINA RESULT:      -9.0      0.000      0.000
REMARK  3 active torsions:
REMARK  status: ('A' for Active; 'I' for Inactive)
REMARK       I    between atoms: C_2  and  N_3 
REMARK    1  A    between atoms: N_3  and  N_4 
REMARK       I    between atoms: N_4  and  C_5 
REMARK    2  A    between atoms: C_5  and  C_6 
REMARK    3  A    between atoms: C_11  and  C_12 
ROOT
HETATM    1  C   UNL     1      43.395 -17.227   5.288  1.00  0.00     0.115 A 
HETATM    2  N   UNL     1      44.145 -18.290   5.753  1.00  0.00    -0.350 N 
HETATM    3  H   UNL     1      44.595 -18.320   6.658  1.00  0.00     0.166 HD
HETATM    4  C   UNL     1      44.251 -19.283   4.812  1.00  0.00     0.044 A 
HETATM    5  C   UNL     1      43.558 -18.850   3.684  1.00  0.00     0.006 A 
HETATM    6  C   UNL     1      43.031 -17.549   3.983  1.00  0.00     0.019 A 
HETATM    7  C   UNL     1      44.910 -20.517   4.876  1.00  0.00     0.032 A 
HETATM    8  C   UNL     1      44.851 -21.339   3.747  1.00  0.00     0.026 A 
HETATM    9  C   UNL     1      44.158 -20.936   2.609  1.00  0.00     0.035 A 
HETATM   10 CL   UNL     1      44.104 -21.975   1.237  1.00  0.00    -0.084 Cl
HETATM   11  C   UNL     1      43.506 -19.701   2.560  1.00  0.00     0.038 A 
ENDROOT
BRANCH   1  12
HETATM   12  C   UNL     1      43.149 -16.027   6.065  1.00  0.00     0.287 C 
HETATM   13  N   UNL     1      44.260 -15.559   6.751  1.00  0.00    -0.262 N 
HETATM   14  H   UNL     1      45.041 -16.173   6.976  1.00  0.00     0.190 HD
HETATM   15  O   UNL     1      42.070 -15.445   6.146  1.00  0.00    -0.264 OA
BRANCH  13  16
HETATM   16  N   UNL     1      44.080 -14.486   7.640  1.00  0.00    -0.268 N 
HETATM   17  C   UNL     1      45.039 -13.497   7.638  1.00  0.00     0.232 C 
HETATM   18  C   UNL     1      44.869 -12.457   8.709  1.00  0.00     0.119 C 
HETATM   19  O   UNL     1      45.946 -13.458   6.809  1.00  0.00    -0.272 OA
HETATM   20  H   UNL     1      43.480 -14.673   8.445  1.00  0.00     0.190 HD
ENDBRANCH  13  16
ENDBRANCH   1  12
BRANCH   6  21
HETATM   21  C   UNL     1      42.245 -16.693   3.106  1.00  0.00    -0.023 A 
HETATM   22  C   UNL     1      40.886 -16.946   2.883  1.00  0.00     0.012 A 
HETATM   23  C   UNL     1      40.153 -16.137   2.012  1.00  0.00     0.001 A 
HETATM   24  C   UNL     1      40.775 -15.077   1.352  1.00  0.00     0.000 A 
HETATM   25  C   UNL     1      42.129 -14.822   1.564  1.00  0.00     0.001 A 
HETATM   26  C   UNL     1      42.862 -15.628   2.438  1.00  0.00     0.012 A 
ENDBRANCH   6  21
TORSDOF 3
ENDMDL
MODEL 2
REMARK VINA RESULT:      -8.6      1.943      2.719
REMARK  3 active torsions:
REMARK  status: ('A' for Active; 'I' for Inactive)
REMARK       I    between atoms: C_2  and  N_3 
REMARK    1  A    between atoms: N_3  and  N_4 
REMARK       I    between atoms: N_4  and  C_5 
REMARK    2  A    between atoms: C_5  and  C_6 
REMARK    3  A    between atoms: C_11  and  C_12 
ROOT
HETATM    1  C   UNL     1      42.795 -17.081   5.223  1.00  0.00     0.115 A 
HETATM    2  N   UNL     1      43.526 -18.045   5.889  1.00  0.00    -0.350 N 
HETATM    3  H   UNL     1      43.794 -17.989   6.863  1.00  0.00     0.166 HD
HETATM    4  C   UNL     1      43.896 -19.068   5.052  1.00  0.00     0.044 A 
HETATM    5  C   UNL     1      43.401 -18.756   3.788  1.00  0.00     0.006 A 
HETATM    6  C   UNL     1      42.719 -17.499   3.897  1.00  0.00     0.019 A 
HETATM    7  C   UNL     1      44.632 -20.229   5.320  1.00  0.00     0.032 A 
HETATM    8  C   UNL     1      44.861 -21.106   4.256  1.00  0.00     0.026 A 
HETATM    9  C   UNL     1      44.370 -20.826   2.984  1.00  0.00     0.035 A 
HETATM   10 CL   UNL     1      44.670 -21.930   1.697  1.00  0.00    -0.084 Cl
HETATM   11  C   UNL     1      43.639 -19.662   2.733  1.00  0.00     0.038 A 
ENDROOT
BRANCH   1  12
HETATM   12  C   UNL     1      42.304 -15.874   5.859  1.00  0.00     0.287 C 
HETATM   13  N   UNL     1      40.926 -15.834   6.012  1.00  0.00    -0.262 N 
HETATM   14  H   UNL     1      40.313 -16.400   5.429  1.00  0.00     0.190 HD
HETATM   15  O   UNL     1      43.005 -14.939   6.240  1.00  0.00    -0.264 OA
BRANCH  13  16
HETATM   16  N   UNL     1      40.351 -14.643   6.488  1.00  0.00    -0.268 N 
HETATM   17  C   UNL     1      39.824 -13.780   5.553  1.00  0.00     0.232 C 
HETATM   18  C   UNL     1      39.358 -12.464   6.107  1.00  0.00     0.119 C 
HETATM   19  O   UNL     1      39.721 -14.077   4.364  1.00  0.00    -0.272 OA
HETATM   20  H   UNL     1      40.666 -14.335   7.409  1.00  0.00     0.190 HD
ENDBRANCH  13  16
ENDBRANCH   1  12
BRANCH   6  21
HETATM   21  C   UNL     1      42.049 -16.765   2.833  1.00  0.00    -0.023 A 
HETATM   22  C   UNL     1      42.733 -15.804   2.079  1.00  0.00     0.012 A 
HETATM   23  C   UNL     1      42.067 -15.084   1.085  1.00  0.00     0.001 A 
HETATM   24  C   UNL     1      40.712 -15.312   0.846  1.00  0.00     0.000 A 
HETATM   25  C   UNL     1      40.022 -16.262   1.596  1.00  0.00     0.001 A 
HETATM   26  C   UNL     1      40.687 -16.986   2.587  1.00  0.00     0.012 A 
ENDBRANCH   6  21
TORSDOF 3
ENDMDL
MODEL 3
REMARK VINA RESULT:      -8.5      3.371      4.907
REMARK  3 active torsions:
REMARK  status: ('A' for Active; 'I' for Inactive)
REMARK       I    between atoms: C_2  and  N_3 
REMARK    1  A    between atoms: N_3  and  N_4 
REMARK       I    between atoms: N_4  and  C_5 
REMARK    2  A    between atoms: C_5  and  C_6 
REMARK    3  A    between atoms: C_11  and  C_12 
ROOT
HETATM    1  C   UNL     1      42.545 -18.025   2.026  1.00  0.00     0.115 A 
HETATM    2  N   UNL     1      42.899 -19.139   1.289  1.00  0.00    -0.350 N 
HETATM    3  H   UNL     1      42.694 -19.264   0.307  1.00  0.00     0.166 HD
HETATM    4  C   UNL     1      43.517 -20.085   2.068  1.00  0.00     0.044 A 
HETATM    5  C   UNL     1      43.556 -19.580   3.365  1.00  0.00     0.006 A 
HETATM    6  C   UNL     1      42.932 -18.288   3.338  1.00  0.00     0.019 A 
HETATM    7  C   UNL     1      44.030 -21.341   1.722  1.00  0.00     0.032 A 
HETATM    8  C   UNL     1      44.613 -22.102   2.739  1.00  0.00     0.026 A 
HETATM    9  C   UNL     1      44.675 -21.619   4.043  1.00  0.00     0.035 A 
HETATM   10 CL   UNL     1      45.401 -22.584   5.271  1.00  0.00    -0.084 Cl
HETATM   11  C   UNL     1      44.156 -20.364   4.373  1.00  0.00     0.038 A 
ENDROOT
BRANCH   1  12
HETATM   12  C   UNL     1      41.849 -16.886   1.461  1.00  0.00     0.287 C 
HETATM   13  N   UNL     1      40.488 -16.862   1.729  1.00  0.00    -0.262 N 
HETATM   14  H   UNL     1      39.982 -17.712   1.972  1.00  0.00     0.190 HD
HETATM   15  O   UNL     1      42.372 -15.998   0.791  1.00  0.00    -0.264 OA
BRANCH  13  16
HETATM   16  N   UNL     1      39.711 -15.874   1.102  1.00  0.00    -0.268 N 
HETATM   17  C   UNL     1      39.203 -14.872   1.899  1.00  0.00     0.232 C 
HETATM   18  C   UNL     1      38.263 -13.931   1.200  1.00  0.00     0.119 C 
HETATM   19  O   UNL     1      39.516 -14.745   3.082  1.00  0.00    -0.272 OA
HETATM   20  H   UNL     1      39.289 -16.139   0.211  1.00  0.00     0.190 HD
ENDBRANCH  13  16
ENDBRANCH   1  12
BRANCH   6  21
HETATM   21  C   UNL     1      42.730 -17.382   4.460  1.00  0.00    -0.023 A 
HETATM   22  C   UNL     1      41.551 -17.420   5.212  1.00  0.00     0.012 A 
HETATM   23  C   UNL     1      41.357 -16.522   6.264  1.00  0.00     0.001 A 
HETATM   24  C   UNL     1      42.336 -15.574   6.563  1.00  0.00     0.000 A 
HETATM   25  C   UNL     1      43.510 -15.525   5.814  1.00  0.00     0.001 A 
HETATM   26  C   UNL     1      43.707 -16.426   4.765  1.00  0.00     0.012 A 
ENDBRANCH   6  21
TORSDOF 3
ENDMDL
MODEL 4
REMARK VINA RESULT:      -8.2      3.521      5.435
REMARK  3 active torsions:
REMARK  status: ('A' for Active; 'I' for Inactive)
REMARK       I    between atoms: C_2  and  N_3 
REMARK    1  A    between atoms: N_3  and  N_4 
REMARK       I    between atoms: N_4  and  C_5 
REMARK    2  A    between atoms: C_5  and  C_6 
REMARK    3  A    between atoms: C_11  and  C_12 
ROOT
HETATM    1  C   UNL     1      42.444 -18.029   1.998  1.00  0.00     0.115 A 
HETATM    2  N   UNL     1      42.778 -19.152   1.266  1.00  0.00    -0.350 N 
HETATM    3  H   UNL     1      42.537 -19.293   0.294  1.00  0.00     0.166 HD
HETATM    4  C   UNL     1      43.430 -20.081   2.036  1.00  0.00     0.044 A 
HETATM    5  C   UNL     1      43.515 -19.556   3.322  1.00  0.00     0.006 A 
HETATM    6  C   UNL     1      42.881 -18.269   3.298  1.00  0.00     0.019 A 
HETATM    7  C   UNL     1      43.939 -21.339   1.690  1.00  0.00     0.032 A 
HETATM    8  C   UNL     1      44.564 -22.081   2.696  1.00  0.00     0.026 A 
HETATM    9  C   UNL     1      44.671 -21.577   3.989  1.00  0.00     0.035 A 
HETATM   10 CL   UNL     1      45.449 -22.518   5.204  1.00  0.00    -0.084 Cl
HETATM   11  C   UNL     1      44.157 -20.320   4.319  1.00  0.00     0.038 A 
ENDROOT
BRANCH   1  12
HETATM   12  C   UNL     1      41.719 -16.903   1.441  1.00  0.00     0.287 C 
HETATM   13  N   UNL     1      42.412 -16.214   0.457  1.00  0.00    -0.262 N 
HETATM   14  H   UNL     1      43.427 -16.262   0.392  1.00  0.00     0.190 HD
HETATM   15  O   UNL     1      40.594 -16.547   1.783  1.00  0.00    -0.264 OA
BRANCH  13  16
HETATM   16  N   UNL     1      41.847 -15.026  -0.037  1.00  0.00    -0.268 N 
HETATM   17  C   UNL     1      41.228 -15.086  -1.266  1.00  0.00     0.232 C 
HETATM   18  C   UNL     1      40.775 -13.759  -1.805  1.00  0.00     0.119 C 
HETATM   19  O   UNL     1      41.041 -16.146  -1.861  1.00  0.00    -0.272 OA
HETATM   20  H   UNL     1      42.224 -14.160   0.350  1.00  0.00     0.190 HD
ENDBRANCH  13  16
ENDBRANCH   1  12
BRANCH   6  21
HETATM   21  C   UNL     1      42.715 -17.346   4.412  1.00  0.00    -0.023 A 
HETATM   22  C   UNL     1      43.599 -16.278   4.600  1.00  0.00     0.012 A 
HETATM   23  C   UNL     1      43.447 -15.421   5.693  1.00  0.00     0.001 A 
HETATM   24  C   UNL     1      42.418 -15.634   6.610  1.00  0.00     0.000 A 
HETATM   25  C   UNL     1      41.537 -16.700   6.434  1.00  0.00     0.001 A 
HETATM   26  C   UNL     1      41.685 -17.554   5.339  1.00  0.00     0.012 A 
ENDBRANCH   6  21
TORSDOF 3
ENDMDL
MODEL 5
REMARK VINA RESULT:      -8.1      3.473      6.268
REMARK  3 active torsions:
REMARK  status: ('A' for Active; 'I' for Inactive)
REMARK       I    between atoms: C_2  and  N_3 
REMARK    1  A    between atoms: N_3  and  N_4 
REMARK       I    between atoms: N_4  and  C_5 
REMARK    2  A    between atoms: C_5  and  C_6 
REMARK    3  A    between atoms: C_11  and  C_12 
ROOT
HETATM    1  C   UNL     1      43.098 -17.212   2.888  1.00  0.00     0.115 A 
HETATM    2  N   UNL     1      42.949 -16.173   3.786  1.00  0.00    -0.350 N 
HETATM    3  H   UNL     1      42.698 -15.228   3.530  1.00  0.00     0.166 HD
HETATM    4  C   UNL     1      43.237 -16.568   5.068  1.00  0.00     0.044 A 
HETATM    5  C   UNL     1      43.603 -17.910   5.008  1.00  0.00     0.006 A 
HETATM    6  C   UNL     1      43.527 -18.309   3.632  1.00  0.00     0.019 A 
HETATM    7  C   UNL     1      43.208 -15.837   6.263  1.00  0.00     0.032 A 
HETATM    8  C   UNL     1      43.558 -16.509   7.438  1.00  0.00     0.026 A 
HETATM    9  C   UNL     1      43.919 -17.853   7.409  1.00  0.00     0.035 A 
HETATM   10 CL   UNL     1      44.344 -18.649   8.875  1.00  0.00    -0.084 Cl
HETATM   11  C   UNL     1      43.945 -18.568   6.208  1.00  0.00     0.038 A 
ENDROOT
BRANCH   1  12
HETATM   12  C   UNL     1      42.889 -17.066   1.461  1.00  0.00     0.287 C 
HETATM   13  N   UNL     1      41.633 -16.587   1.118  1.00  0.00    -0.262 N 
HETATM   14  H   UNL     1      40.842 -16.675   1.753  1.00  0.00     0.190 HD
HETATM   15  O   UNL     1      43.716 -17.337   0.593  1.00  0.00    -0.264 OA
BRANCH  13  16
HETATM   16  N   UNL     1      41.293 -16.549  -0.244  1.00  0.00    -0.268 N 
HETATM   17  C   UNL     1      41.222 -15.311  -0.843  1.00  0.00     0.232 C 
HETATM   18  C   UNL     1      40.712 -15.325  -2.256  1.00  0.00     0.119 C 
HETATM   19  O   UNL     1      41.573 -14.280  -0.271  1.00  0.00    -0.272 OA
HETATM   20  H   UNL     1      40.790 -17.364  -0.599  1.00  0.00     0.190 HD
ENDBRANCH  13  16
ENDBRANCH   1  12
BRANCH   6  21
HETATM   21  C   UNL     1      43.827 -19.621   3.076  1.00  0.00    -0.023 A 
HETATM   22  C   UNL     1      43.014 -20.188   2.089  1.00  0.00     0.012 A 
HETATM   23  C   UNL     1      43.296 -21.462   1.590  1.00  0.00     0.001 A 
HETATM   24  C   UNL     1      44.385 -22.180   2.082  1.00  0.00     0.000 A 
HETATM   25  C   UNL     1      45.197 -21.625   3.070  1.00  0.00     0.001 A 
HETATM   26  C   UNL     1      44.919 -20.350   3.566  1.00  0.00     0.012 A 
ENDBRANCH   6  21
TORSDOF 3
ENDMDL
MODEL 6
REMARK VINA RESULT:      -7.9      3.035      4.163
REMARK  3 active torsions:
REMARK  status: ('A' for Active; 'I' for Inactive)
REMARK       I    between atoms: C_2  and  N_3 
REMARK    1  A    between atoms: N_3  and  N_4 
REMARK       I    between atoms: N_4  and  C_5 
REMARK    2  A    between atoms: C_5  and  C_6 
REMARK    3  A    between atoms: C_11  and  C_12 
ROOT
HETATM    1  C   UNL     1      42.416 -15.341   5.454  1.00  0.00     0.115 A 
HETATM    2  N   UNL     1      42.792 -15.590   6.760  1.00  0.00    -0.350 N 
HETATM    3  H   UNL     1      42.854 -14.884   7.482  1.00  0.00     0.166 HD
HETATM    4  C   UNL     1      43.127 -16.907   6.947  1.00  0.00     0.044 A 
HETATM    5  C   UNL     1      42.979 -17.542   5.716  1.00  0.00     0.006 A 
HETATM    6  C   UNL     1      42.543 -16.550   4.776  1.00  0.00     0.019 A 
HETATM    7  C   UNL     1      43.553 -17.572   8.103  1.00  0.00     0.032 A 
HETATM    8  C   UNL     1      43.829 -18.938   7.996  1.00  0.00     0.026 A 
HETATM    9  C   UNL     1      43.681 -19.601   6.781  1.00  0.00     0.035 A 
HETATM   10 CL   UNL     1      44.030 -21.285   6.687  1.00  0.00    -0.084 Cl
HETATM   11  C   UNL     1      43.257 -18.923   5.636  1.00  0.00     0.038 A 
ENDROOT
BRANCH   1  12
HETATM   12  C   UNL     1      42.042 -14.025   4.971  1.00  0.00     0.287 C 
HETATM   13  N   UNL     1      40.674 -13.802   4.936  1.00  0.00    -0.262 N 
HETATM   14  H   UNL     1      40.012 -14.576   4.902  1.00  0.00     0.190 HD
HETATM   15  O   UNL     1      42.830 -13.155   4.607  1.00  0.00    -0.264 OA
BRANCH  13  16
HETATM   16  N   UNL     1      40.216 -12.610   4.349  1.00  0.00    -0.268 N 
HETATM   17  C   UNL     1      39.129 -11.997   4.933  1.00  0.00     0.232 C 
HETATM   18  C   UNL     1      38.598 -10.812   4.177  1.00  0.00     0.119 C 
HETATM   19  O   UNL     1      38.650 -12.376   6.000  1.00  0.00    -0.272 OA
HETATM   20  H   UNL     1      40.469 -12.472   3.370  1.00  0.00     0.190 HD
ENDBRANCH  13  16
ENDBRANCH   1  12
BRANCH   6  21
HETATM   21  C   UNL     1      42.266 -16.740   3.359  1.00  0.00    -0.023 A 
HETATM   22  C   UNL     1      43.297 -16.710   2.413  1.00  0.00     0.012 A 
HETATM   23  C   UNL     1      43.011 -16.859   1.054  1.00  0.00     0.001 A 
HETATM   24  C   UNL     1      41.693 -17.029   0.632  1.00  0.00     0.000 A 
HETATM   25  C   UNL     1      40.659 -17.054   1.567  1.00  0.00     0.001 A 
HETATM   26  C   UNL     1      40.944 -16.909   2.926  1.00  0.00     0.012 A 
ENDBRANCH   6  21
TORSDOF 3
ENDMDL
MODEL 7
REMARK VINA RESULT:      -7.9      4.156      6.063
REMARK  3 active torsions:
REMARK  status: ('A' for Active; 'I' for Inactive)
REMARK       I    between atoms: C_2  and  N_3 
REMARK    1  A    between atoms: N_3  and  N_4 
REMARK       I    between atoms: N_4  and  C_5 
REMARK    2  A    between atoms: C_5  and  C_6 
REMARK    3  A    between atoms: C_11  and  C_12 
ROOT
HETATM    1  C   UNL     1      42.308 -16.228   1.287  1.00  0.00     0.115 A 
HETATM    2  N   UNL     1      42.824 -17.401   0.771  1.00  0.00    -0.350 N 
HETATM    3  H   UNL     1      42.802 -17.655  -0.207  1.00  0.00     0.166 HD
HETATM    4  C   UNL     1      43.323 -18.211   1.760  1.00  0.00     0.044 A 
HETATM    5  C   UNL     1      43.114 -17.552   2.969  1.00  0.00     0.006 A 
HETATM    6  C   UNL     1      42.464 -16.309   2.668  1.00  0.00     0.019 A 
HETATM    7  C   UNL     1      43.931 -19.470   1.672  1.00  0.00     0.032 A 
HETATM    8  C   UNL     1      44.347 -20.070   2.864  1.00  0.00     0.026 A 
HETATM    9  C   UNL     1      44.159 -19.430   4.086  1.00  0.00     0.035 A 
HETATM   10 CL   UNL     1      44.685 -20.198   5.535  1.00  0.00    -0.084 Cl
HETATM   11  C   UNL     1      43.550 -18.174   4.158  1.00  0.00     0.038 A 
ENDROOT
BRANCH   1  12
HETATM   12  C   UNL     1      41.688 -15.205   0.467  1.00  0.00     0.287 C 
HETATM   13  N   UNL     1      40.659 -15.669  -0.338  1.00  0.00    -0.262 N 
HETATM   14  H   UNL     1      40.591 -16.653  -0.594  1.00  0.00     0.190 HD
HETATM   15  O   UNL     1      42.014 -14.020   0.447  1.00  0.00    -0.264 OA
BRANCH  13  16
HETATM   16  N   UNL     1      40.097 -14.779  -1.267  1.00  0.00    -0.268 N 
HETATM   17  C   UNL     1      40.448 -14.942  -2.589  1.00  0.00     0.232 C 
HETATM   18  C   UNL     1      39.934 -13.873  -3.511  1.00  0.00     0.119 C 
HETATM   19  O   UNL     1      41.109 -15.901  -2.983  1.00  0.00    -0.272 OA
HETATM   20  H   UNL     1      39.770 -13.889  -0.888  1.00  0.00     0.190 HD
ENDBRANCH  13  16
ENDBRANCH   1  12
BRANCH   6  21
HETATM   21  C   UNL     1      42.035 -15.286   3.612  1.00  0.00    -0.023 A 
HETATM   22  C   UNL     1      42.907 -14.268   4.014  1.00  0.00     0.012 A 
HETATM   23  C   UNL     1      42.493 -13.314   4.947  1.00  0.00     0.001 A 
HETATM   24  C   UNL     1      41.210 -13.378   5.490  1.00  0.00     0.000 A 
HETATM   25  C   UNL     1      40.338 -14.393   5.099  1.00  0.00     0.001 A 
HETATM   26  C   UNL     1      40.749 -15.345   4.164  1.00  0.00     0.012 A 
ENDBRANCH   6  21
TORSDOF 3
ENDMDL
MODEL 8
REMARK VINA RESULT:      -7.7      3.767      5.612
REMARK  3 active torsions:
REMARK  status: ('A' for Active; 'I' for Inactive)
REMARK       I    between atoms: C_2  and  N_3 
REMARK    1  A    between atoms: N_3  and  N_4 
REMARK       I    between atoms: N_4  and  C_5 
REMARK    2  A    between atoms: C_5  and  C_6 
REMARK    3  A    between atoms: C_11  and  C_12 
ROOT
HETATM    1  C   UNL     1      42.168 -16.256   1.549  1.00  0.00     0.115 A 
HETATM    2  N   UNL     1      42.597 -17.434   0.969  1.00  0.00    -0.350 N 
HETATM    3  H   UNL     1      42.500 -17.657  -0.012  1.00  0.00     0.166 HD
HETATM    4  C   UNL     1      43.123 -18.294   1.901  1.00  0.00     0.044 A 
HETATM    5  C   UNL     1      43.023 -17.663   3.138  1.00  0.00     0.006 A 
HETATM    6  C   UNL     1      42.409 -16.385   2.915  1.00  0.00     0.019 A 
HETATM    7  C   UNL     1      43.668 -19.573   1.738  1.00  0.00     0.032 A 
HETATM    8  C   UNL     1      44.134 -20.226   2.883  1.00  0.00     0.026 A 
HETATM    9  C   UNL     1      44.055 -19.616   4.132  1.00  0.00     0.035 A 
HETATM   10 CL   UNL     1      44.639 -20.449   5.521  1.00  0.00    -0.084 Cl
HETATM   11  C   UNL     1      43.507 -18.339   4.278  1.00  0.00     0.038 A 
ENDROOT
BRANCH   1  12
HETATM   12  C   UNL     1      41.541 -15.184   0.801  1.00  0.00     0.287 C 
HETATM   13  N   UNL     1      40.310 -15.516   0.257  1.00  0.00    -0.262 N 
HETATM   14  H   UNL     1      40.049 -16.487   0.091  1.00  0.00     0.190 HD
HETATM   15  O   UNL     1      42.021 -14.065   0.630  1.00  0.00    -0.264 OA
BRANCH  13  16
HETATM   16  N   UNL     1      39.697 -14.588  -0.602  1.00  0.00    -0.268 N 
HETATM   17  C   UNL     1      38.526 -14.006  -0.169  1.00  0.00     0.232 C 
HETATM   18  C   UNL     1      37.844 -13.138  -1.187  1.00  0.00     0.119 C 
HETATM   19  O   UNL     1      38.089 -14.167   0.970  1.00  0.00    -0.272 OA
HETATM   20  H   UNL     1      39.943 -14.667  -1.589  1.00  0.00     0.190 HD
ENDBRANCH  13  16
ENDBRANCH   1  12
BRANCH   6  21
HETATM   21  C   UNL     1      42.088 -15.374   3.913  1.00  0.00    -0.023 A 
HETATM   22  C   UNL     1      40.857 -15.384   4.577  1.00  0.00     0.012 A 
HETATM   23  C   UNL     1      40.550 -14.388   5.508  1.00  0.00     0.001 A 
HETATM   24  C   UNL     1      41.468 -13.371   5.770  1.00  0.00     0.000 A 
HETATM   25  C   UNL     1      42.694 -13.350   5.108  1.00  0.00     0.001 A 
HETATM   26  C   UNL     1      43.003 -14.348   4.181  1.00  0.00     0.012 A 
ENDBRANCH   6  21
TORSDOF 3
ENDMDL
MODEL 9
REMARK VINA RESULT:      -7.6      4.205      6.032
REMARK  3 active torsions:
REMARK  status: ('A' for Active; 'I' for Inactive)
REMARK       I    between atoms: C_2  and  N_3 
REMARK    1  A    between atoms: N_3  and  N_4 
REMARK       I    between atoms: N_4  and  C_5 
REMARK    2  A    between atoms: C_5  and  C_6 
REMARK    3  A    between atoms: C_11  and  C_12 
ROOT
HETATM    1  C   UNL     1      40.946 -16.385   1.882  1.00  0.00     0.115 A 
HETATM    2  N   UNL     1      41.378 -17.585   1.351  1.00  0.00    -0.350 N 
HETATM    3  H   UNL     1      41.020 -17.996   0.499  1.00  0.00     0.166 HD
HETATM    4  C   UNL     1      42.317 -18.183   2.153  1.00  0.00     0.044 A 
HETATM    5  C   UNL     1      42.498 -17.353   3.256  1.00  0.00     0.006 A 
HETATM    6  C   UNL     1      41.623 -16.228   3.089  1.00  0.00     0.019 A 
HETATM    7  C   UNL     1      43.007 -19.391   1.985  1.00  0.00     0.032 A 
HETATM    8  C   UNL     1      43.919 -19.756   2.978  1.00  0.00     0.026 A 
HETATM    9  C   UNL     1      44.127 -18.941   4.088  1.00  0.00     0.035 A 
HETATM   10 CL   UNL     1      45.260 -19.421   5.292  1.00  0.00    -0.084 Cl
HETATM   11  C   UNL     1      43.430 -17.740   4.242  1.00  0.00     0.038 A 
ENDROOT
BRANCH   1  12
HETATM   12  C   UNL     1      39.931 -15.559   1.257  1.00  0.00     0.287 C 
HETATM   13  N   UNL     1      40.222 -15.194  -0.049  1.00  0.00    -0.262 N 
HETATM   14  H   UNL     1      41.179 -15.196  -0.398  1.00  0.00     0.190 HD
HETATM   15  O   UNL     1      38.894 -15.182   1.798  1.00  0.00    -0.264 OA
BRANCH  13  16
HETATM   16  N   UNL     1      39.366 -14.278  -0.683  1.00  0.00    -0.268 N 
HETATM   17  C   UNL     1      39.366 -14.264  -2.060  1.00  0.00     0.232 C 
HETATM   18  C   UNL     1      38.544 -13.168  -2.676  1.00  0.00     0.119 C 
HETATM   19  O   UNL     1      39.972 -15.099  -2.730  1.00  0.00    -0.272 OA
HETATM   20  H   UNL     1      39.083 -13.474  -0.122  1.00  0.00     0.190 HD
ENDBRANCH  13  16
ENDBRANCH   1  12
BRANCH   6  21
HETATM   21  C   UNL     1      41.454 -15.100   3.994  1.00  0.00    -0.023 A 
HETATM   22  C   UNL     1      40.475 -15.121   4.994  1.00  0.00     0.012 A 
HETATM   23  C   UNL     1      40.303 -14.017   5.833  1.00  0.00     0.001 A 
HETATM   24  C   UNL     1      41.098 -12.884   5.670  1.00  0.00     0.000 A 
HETATM   25  C   UNL     1      42.071 -12.853   4.672  1.00  0.00     0.001 A 
HETATM   26  C   UNL     1      42.248 -13.957   3.836  1.00  0.00     0.012 A 
ENDBRANCH   6  21
TORSDOF 3
ENDMDL
MODEL 10
REMARK VINA RESULT:      -7.5      3.691      5.072
REMARK  3 active torsions:
REMARK  status: ('A' for Active; 'I' for Inactive)
REMARK       I    between atoms: C_2  and  N_3 
REMARK    1  A    between atoms: N_3  and  N_4 
REMARK       I    between atoms: N_4  and  C_5 
REMARK    2  A    between atoms: C_5  and  C_6 
REMARK    3  A    between atoms: C_11  and  C_12 
ROOT
HETATM    1  C   UNL     1      41.976 -16.430   1.546  1.00  0.00     0.115 A 
HETATM    2  N   UNL     1      42.370 -17.623   0.971  1.00  0.00    -0.350 N 
HETATM    3  H   UNL     1      42.192 -17.880   0.010  1.00  0.00     0.166 HD
HETATM    4  C   UNL     1      42.986 -18.444   1.882  1.00  0.00     0.044 A 
HETATM    5  C   UNL     1      42.983 -17.772   3.101  1.00  0.00     0.006 A 
HETATM    6  C   UNL     1      42.335 -16.509   2.889  1.00  0.00     0.019 A 
HETATM    7  C   UNL     1      43.531 -19.723   1.716  1.00  0.00     0.032 A 
HETATM    8  C   UNL     1      44.102 -20.331   2.838  1.00  0.00     0.026 A 
HETATM    9  C   UNL     1      44.122 -19.679   4.067  1.00  0.00     0.035 A 
HETATM   10 CL   UNL     1      44.835 -20.458   5.428  1.00  0.00    -0.084 Cl
HETATM   11  C   UNL     1      43.572 -18.403   4.217  1.00  0.00     0.038 A 
ENDROOT
BRANCH   1  12
HETATM   12  C   UNL     1      41.273 -15.391   0.820  1.00  0.00     0.287 C 
HETATM   13  N   UNL     1      42.050 -14.733  -0.123  1.00  0.00    -0.262 N 
HETATM   14  H   UNL     1      43.067 -14.726  -0.058  1.00  0.00     0.190 HD
HETATM   15  O   UNL     1      40.097 -15.078   0.992  1.00  0.00    -0.264 OA
BRANCH  13  16
HETATM   16  N   UNL     1      41.494 -13.618  -0.772  1.00  0.00    -0.268 N 
HETATM   17  C   UNL     1      41.770 -12.377  -0.242  1.00  0.00     0.232 C 
HETATM   18  C   UNL     1      41.030 -11.241  -0.889  1.00  0.00     0.119 C 
HETATM   19  O   UNL     1      42.577 -12.213   0.671  1.00  0.00    -0.272 OA
HETATM   20  H   UNL     1      40.669 -13.804  -1.345  1.00  0.00     0.190 HD
ENDBRANCH  13  16
ENDBRANCH   1  12
BRANCH   6  21
HETATM   21  C   UNL     1      42.088 -15.468   3.877  1.00  0.00    -0.023 A 
HETATM   22  C   UNL     1      40.944 -15.498   4.683  1.00  0.00     0.012 A 
HETATM   23  C   UNL     1      40.704 -14.474   5.602  1.00  0.00     0.001 A 
HETATM   24  C   UNL     1      41.598 -13.410   5.713  1.00  0.00     0.000 A 
HETATM   25  C   UNL     1      42.737 -13.370   4.910  1.00  0.00     0.001 A 
HETATM   26  C   UNL     1      42.981 -14.395   3.994  1.00  0.00     0.012 A 
ENDBRANCH   6  21
TORSDOF 3
ENDMDL
