MODEL 1
REMARK VINA RESULT:      -8.3      0.000      0.000
REMARK  3 active torsions:
REMARK  status: ('A' for Active; 'I' for Inactive)
REMARK    1  A    between atoms: C_2  and  N_3 
REMARK    2  A    between atoms: C_2  and  C_10 
REMARK    3  A    between atoms: C_13  and  C_14 
ROOT
HETATM    1  C   UNL     1      41.106 -15.330   1.275  1.00  0.00    -0.028 A 
HETATM    2  C   UNL     1      42.466 -15.118   1.551  1.00  0.00     0.010 A 
HETATM    3  C   UNL     1      43.208 -16.066   2.267  1.00  0.00     0.014 A 
HETATM    4  C   UNL     1      42.626 -17.254   2.736  1.00  0.00    -0.006 A 
HETATM    5  C   UNL     1      41.257 -17.438   2.491  1.00  0.00     0.014 A 
HETATM    6  C   UNL     1      40.511 -16.499   1.769  1.00  0.00     0.010 A 
ENDROOT
BRANCH   4   7
HETATM    7  C   UNL     1      43.433 -18.239   3.466  1.00  0.00     0.082 A 
HETATM    8  N   UNL     1      43.955 -17.855   4.662  1.00  0.00    -0.240 NA
HETATM    9  C   UNL     1      44.699 -18.745   5.349  1.00  0.00     0.236 A 
HETATM   10  N   UNL     1      45.013 -20.002   4.999  1.00  0.00    -0.224 NA
HETATM   11  C   UNL     1      44.496 -20.328   3.807  1.00  0.00     0.141 A 
HETATM   12  C   UNL     1      43.714 -19.528   2.984  1.00  0.00     0.041 A 
HETATM   13  N   UNL     1      44.668 -21.540   3.195  1.00  0.00    -0.350 N 
HETATM   14  C   UNL     1      43.439 -20.304   1.818  1.00  0.00     0.034 A 
HETATM   15  C   UNL     1      44.031 -21.539   1.982  1.00  0.00     0.091 A 
HETATM   16  H   UNL     1      45.202 -22.300   3.594  1.00  0.00     0.166 HD
ENDBRANCH   4   7
BRANCH   1  17
HETATM   17  C   UNL     1      40.338 -14.287   0.482  1.00  0.00     0.217 C 
HETATM   18  C   UNL     1      41.032 -12.925   0.378  1.00  0.00     0.045 C 
BRANCH  17  19
HETATM   19  N   UNL     1      39.911 -14.811  -0.891  1.00  0.00    -0.063 N 
HETATM   20  H   UNL     1      39.412 -15.686  -0.675  1.00  0.00     0.280 HD
HETATM   21  C   UNL     1      38.910 -13.909  -1.578  1.00  0.00     0.235 C 
HETATM   22  C   UNL     1      38.345 -14.608  -2.807  1.00  0.00     0.028 C 
HETATM   23  C   UNL     1      39.451 -15.046  -3.760  1.00  0.00     0.003 C 
HETATM   24  C   UNL     1      40.480 -15.909  -3.041  1.00  0.00     0.028 C 
HETATM   25  C   UNL     1      41.044 -15.208  -1.811  1.00  0.00     0.235 C 
ENDBRANCH  17  19
ENDBRANCH   1  17
TORSDOF 3
ENDMDL
MODEL 2
REMARK VINA RESULT:      -8.2      1.176      1.488
REMARK  3 active torsions:
REMARK  status: ('A' for Active; 'I' for Inactive)
REMARK    1  A    between atoms: C_2  and  N_3 
REMARK    2  A    between atoms: C_2  and  C_10 
REMARK    3  A    between atoms: C_13  and  C_14 
ROOT
HETATM    1  C   UNL     1      41.098 -15.763   1.158  1.00  0.00    -0.028 A 
HETATM    2  C   UNL     1      42.310 -16.251   0.643  1.00  0.00     0.010 A 
HETATM    3  C   UNL     1      43.079 -17.168   1.368  1.00  0.00     0.014 A 
HETATM    4  C   UNL     1      42.677 -17.631   2.631  1.00  0.00    -0.006 A 
HETATM    5  C   UNL     1      41.485 -17.108   3.155  1.00  0.00     0.014 A 
HETATM    6  C   UNL     1      40.706 -16.196   2.432  1.00  0.00     0.010 A 
ENDROOT
BRANCH   4   7
HETATM    7  C   UNL     1      43.493 -18.608   3.359  1.00  0.00     0.082 A 
HETATM    8  N   UNL     1      44.031 -18.212   4.544  1.00  0.00    -0.240 NA
HETATM    9  C   UNL     1      44.785 -19.095   5.229  1.00  0.00     0.236 A 
HETATM   10  N   UNL     1      45.094 -20.356   4.888  1.00  0.00    -0.224 NA
HETATM   11  C   UNL     1      44.561 -20.694   3.706  1.00  0.00     0.141 A 
HETATM   12  C   UNL     1      43.769 -19.903   2.886  1.00  0.00     0.041 A 
HETATM   13  N   UNL     1      44.726 -21.911   3.104  1.00  0.00    -0.350 N 
HETATM   14  C   UNL     1      43.479 -20.689   1.732  1.00  0.00     0.034 A 
HETATM   15  C   UNL     1      44.073 -21.923   1.900  1.00  0.00     0.091 A 
HETATM   16  H   UNL     1      45.266 -22.667   3.504  1.00  0.00     0.166 HD
ENDBRANCH   4   7
BRANCH   1  17
HETATM   17  C   UNL     1      40.283 -14.781   0.336  1.00  0.00     0.217 C 
HETATM   18  C   UNL     1      39.777 -13.561   1.114  1.00  0.00     0.045 C 
BRANCH  17  19
HETATM   19  N   UNL     1      41.006 -14.371  -0.950  1.00  0.00    -0.063 N 
HETATM   20  H   UNL     1      41.797 -15.028  -1.005  1.00  0.00     0.280 HD
HETATM   21  C   UNL     1      40.172 -14.603  -2.191  1.00  0.00     0.235 C 
HETATM   22  C   UNL     1      41.034 -14.415  -3.432  1.00  0.00     0.028 C 
HETATM   23  C   UNL     1      41.697 -13.044  -3.452  1.00  0.00     0.003 C 
HETATM   24  C   UNL     1      42.488 -12.802  -2.172  1.00  0.00     0.028 C 
HETATM   25  C   UNL     1      41.625 -12.992  -0.931  1.00  0.00     0.235 C 
ENDBRANCH  17  19
ENDBRANCH   1  17
TORSDOF 3
ENDMDL
MODEL 3
REMARK VINA RESULT:      -8.1      1.000      2.238
REMARK  3 active torsions:
REMARK  status: ('A' for Active; 'I' for Inactive)
REMARK    1  A    between atoms: C_2  and  N_3 
REMARK    2  A    between atoms: C_2  and  C_10 
REMARK    3  A    between atoms: C_13  and  C_14 
ROOT
HETATM    1  C   UNL     1      41.551 -15.840   0.815  1.00  0.00    -0.028 A 
HETATM    2  C   UNL     1      40.829 -17.023   1.042  1.00  0.00     0.010 A 
HETATM    3  C   UNL     1      41.458 -18.156   1.571  1.00  0.00     0.014 A 
HETATM    4  C   UNL     1      42.826 -18.158   1.889  1.00  0.00    -0.006 A 
HETATM    5  C   UNL     1      43.548 -16.985   1.620  1.00  0.00     0.014 A 
HETATM    6  C   UNL     1      42.923 -15.845   1.099  1.00  0.00     0.010 A 
ENDROOT
BRANCH   4   7
HETATM    7  C   UNL     1      43.455 -19.353   2.461  1.00  0.00     0.082 A 
HETATM    8  N   UNL     1      43.563 -20.446   1.659  1.00  0.00    -0.240 NA
HETATM    9  C   UNL     1      44.137 -21.556   2.165  1.00  0.00     0.236 A 
HETATM   10  N   UNL     1      44.631 -21.739   3.400  1.00  0.00    -0.224 NA
HETATM   11  C   UNL     1      44.483 -20.645   4.159  1.00  0.00     0.141 A 
HETATM   12  C   UNL     1      43.916 -19.435   3.786  1.00  0.00     0.041 A 
HETATM   13  N   UNL     1      44.879 -20.553   5.465  1.00  0.00    -0.350 N 
HETATM   14  C   UNL     1      43.957 -18.601   4.943  1.00  0.00     0.034 A 
HETATM   15  C   UNL     1      44.564 -19.313   5.957  1.00  0.00     0.091 A 
HETATM   16  H   UNL     1      45.323 -21.306   5.973  1.00  0.00     0.166 HD
ENDBRANCH   4   7
BRANCH   1  17
HETATM   17  C   UNL     1      40.831 -14.626   0.255  1.00  0.00     0.217 C 
HETATM   18  C   UNL     1      41.715 -13.387   0.073  1.00  0.00     0.045 C 
BRANCH  17  19
HETATM   19  N   UNL     1      40.054 -14.959  -1.021  1.00  0.00    -0.063 N 
HETATM   20  H   UNL     1      39.528 -15.808  -0.773  1.00  0.00     0.280 HD
HETATM   21  C   UNL     1      39.025 -13.907  -1.372  1.00  0.00     0.235 C 
HETATM   22  C   UNL     1      38.128 -14.418  -2.492  1.00  0.00     0.028 C 
HETATM   23  C   UNL     1      38.939 -14.836  -3.712  1.00  0.00     0.003 C 
HETATM   24  C   UNL     1      40.008 -15.855  -3.334  1.00  0.00     0.028 C 
HETATM   25  C   UNL     1      40.903 -15.342  -2.212  1.00  0.00     0.235 C 
ENDBRANCH  17  19
ENDBRANCH   1  17
TORSDOF 3
ENDMDL
MODEL 4
REMARK VINA RESULT:      -7.8      1.325      7.621
REMARK  3 active torsions:
REMARK  status: ('A' for Active; 'I' for Inactive)
REMARK    1  A    between atoms: C_2  and  N_3 
REMARK    2  A    between atoms: C_2  and  C_10 
REMARK    3  A    between atoms: C_13  and  C_14 
ROOT
HETATM    1  C   UNL     1      43.042 -17.305   3.310  1.00  0.00    -0.028 A 
HETATM    2  C   UNL     1      41.675 -17.611   3.397  1.00  0.00     0.010 A 
HETATM    3  C   UNL     1      40.725 -16.856   2.699  1.00  0.00     0.014 A 
HETATM    4  C   UNL     1      41.098 -15.768   1.893  1.00  0.00    -0.006 A 
HETATM    5  C   UNL     1      42.462 -15.444   1.844  1.00  0.00     0.014 A 
HETATM    6  C   UNL     1      43.419 -16.200   2.534  1.00  0.00     0.010 A 
ENDROOT
BRANCH   4   7
HETATM    7  C   UNL     1      40.083 -15.007   1.156  1.00  0.00     0.082 A 
HETATM    8  N   UNL     1      38.973 -14.620   1.841  1.00  0.00    -0.240 NA
HETATM    9  C   UNL     1      38.029 -13.919   1.182  1.00  0.00     0.236 A 
HETATM   10  N   UNL     1      38.030 -13.542  -0.106  1.00  0.00    -0.224 NA
HETATM   11  C   UNL     1      39.129 -13.963  -0.744  1.00  0.00     0.141 A 
HETATM   12  C   UNL     1      40.184 -14.689  -0.209  1.00  0.00     0.041 A 
HETATM   13  N   UNL     1      39.388 -13.737  -2.068  1.00  0.00    -0.350 N 
HETATM   14  C   UNL     1      41.093 -14.923  -1.283  1.00  0.00     0.034 A 
HETATM   15  C   UNL     1      40.581 -14.317  -2.411  1.00  0.00     0.091 A 
HETATM   16  H   UNL     1      38.768 -13.226  -2.683  1.00  0.00     0.166 HD
ENDBRANCH   4   7
BRANCH   1  17
HETATM   17  C   UNL     1      44.044 -18.156   4.069  1.00  0.00     0.217 C 
HETATM   18  C   UNL     1      44.005 -17.984   5.592  1.00  0.00     0.045 C 
BRANCH  17  19
HETATM   19  N   UNL     1      43.966 -19.630   3.665  1.00  0.00    -0.063 N 
HETATM   20  H   UNL     1      43.047 -19.932   4.017  1.00  0.00     0.280 HD
HETATM   21  C   UNL     1      43.934 -19.826   2.165  1.00  0.00     0.235 C 
HETATM   22  C   UNL     1      43.605 -21.277   1.842  1.00  0.00     0.028 C 
HETATM   23  C   UNL     1      44.582 -22.235   2.510  1.00  0.00     0.003 C 
HETATM   24  C   UNL     1      44.645 -21.991   4.013  1.00  0.00     0.028 C 
HETATM   25  C   UNL     1      44.974 -20.538   4.334  1.00  0.00     0.235 C 
ENDBRANCH  17  19
ENDBRANCH   1  17
TORSDOF 3
ENDMDL
MODEL 5
REMARK VINA RESULT:      -7.7      1.370      7.893
REMARK  3 active torsions:
REMARK  status: ('A' for Active; 'I' for Inactive)
REMARK    1  A    between atoms: C_2  and  N_3 
REMARK    2  A    between atoms: C_2  and  C_10 
REMARK    3  A    between atoms: C_13  and  C_14 
ROOT
HETATM    1  C   UNL     1      43.314 -17.672   3.191  1.00  0.00    -0.028 A 
HETATM    2  C   UNL     1      41.911 -17.721   3.220  1.00  0.00     0.010 A 
HETATM    3  C   UNL     1      41.149 -17.007   2.287  1.00  0.00     0.014 A 
HETATM    4  C   UNL     1      41.752 -16.216   1.295  1.00  0.00    -0.006 A 
HETATM    5  C   UNL     1      43.153 -16.141   1.299  1.00  0.00     0.014 A 
HETATM    6  C   UNL     1      43.921 -16.859   2.224  1.00  0.00     0.010 A 
ENDROOT
BRANCH   4   7
HETATM    7  C   UNL     1      40.929 -15.495   0.319  1.00  0.00     0.082 A 
HETATM    8  N   UNL     1      41.249 -15.639  -0.996  1.00  0.00    -0.240 NA
HETATM    9  C   UNL     1      40.505 -14.984  -1.909  1.00  0.00     0.236 A 
HETATM   10  N   UNL     1      39.457 -14.173  -1.692  1.00  0.00    -0.224 NA
HETATM   11  C   UNL     1      39.194 -14.044  -0.385  1.00  0.00     0.141 A 
HETATM   12  C   UNL     1      39.863 -14.649   0.670  1.00  0.00     0.041 A 
HETATM   13  N   UNL     1      38.192 -13.266   0.127  1.00  0.00    -0.350 N 
HETATM   14  C   UNL     1      39.237 -14.177   1.862  1.00  0.00     0.034 A 
HETATM   15  C   UNL     1      38.207 -13.337   1.496  1.00  0.00     0.091 A 
HETATM   16  H   UNL     1      37.558 -12.720  -0.440  1.00  0.00     0.166 HD
ENDBRANCH   4   7
BRANCH   1  17
HETATM   17  C   UNL     1      44.106 -18.473   4.209  1.00  0.00     0.217 C 
HETATM   18  C   UNL     1      43.768 -18.160   5.671  1.00  0.00     0.045 C 
BRANCH  17  19
HETATM   19  N   UNL     1      44.051 -19.976   3.924  1.00  0.00    -0.063 N 
HETATM   20  H   UNL     1      43.061 -20.217   4.073  1.00  0.00     0.280 HD
HETATM   21  C   UNL     1      44.359 -20.311   2.482  1.00  0.00     0.235 C 
HETATM   22  C   UNL     1      44.041 -21.776   2.215  1.00  0.00     0.028 C 
HETATM   23  C   UNL     1      44.787 -22.695   3.174  1.00  0.00     0.003 C 
HETATM   24  C   UNL     1      44.512 -22.311   4.622  1.00  0.00     0.028 C 
HETATM   25  C   UNL     1      44.829 -20.844   4.887  1.00  0.00     0.235 C 
ENDBRANCH  17  19
ENDBRANCH   1  17
TORSDOF 3
ENDMDL
MODEL 6
REMARK VINA RESULT:      -7.6      1.119      2.145
REMARK  3 active torsions:
REMARK  status: ('A' for Active; 'I' for Inactive)
REMARK    1  A    between atoms: C_2  and  N_3 
REMARK    2  A    between atoms: C_2  and  C_10 
REMARK    3  A    between atoms: C_13  and  C_14 
ROOT
HETATM    1  C   UNL     1      41.674 -15.965   0.271  1.00  0.00    -0.028 A 
HETATM    2  C   UNL     1      42.763 -15.503   1.029  1.00  0.00     0.010 A 
HETATM    3  C   UNL     1      43.353 -16.314   2.005  1.00  0.00     0.014 A 
HETATM    4  C   UNL     1      42.882 -17.611   2.267  1.00  0.00    -0.006 A 
HETATM    5  C   UNL     1      41.769 -18.049   1.534  1.00  0.00     0.014 A 
HETATM    6  C   UNL     1      41.179 -17.246   0.550  1.00  0.00     0.010 A 
ENDROOT
BRANCH   4   7
HETATM    7  C   UNL     1      43.533 -18.447   3.282  1.00  0.00     0.082 A 
HETATM    8  N   UNL     1      43.827 -17.864   4.476  1.00  0.00    -0.240 NA
HETATM    9  C   UNL     1      44.425 -18.615   5.422  1.00  0.00     0.236 A 
HETATM   10  N   UNL     1      44.789 -19.905   5.344  1.00  0.00    -0.224 NA
HETATM   11  C   UNL     1      44.500 -20.429   4.146  1.00  0.00     0.141 A 
HETATM   12  C   UNL     1      43.890 -19.790   3.075  1.00  0.00     0.041 A 
HETATM   13  N   UNL     1      44.775 -21.718   3.780  1.00  0.00    -0.350 N 
HETATM   14  C   UNL     1      43.831 -20.748   2.019  1.00  0.00     0.034 A 
HETATM   15  C   UNL     1      44.373 -21.927   2.486  1.00  0.00     0.091 A 
HETATM   16  H   UNL     1      45.220 -22.392   4.388  1.00  0.00     0.166 HD
ENDBRANCH   4   7
BRANCH   1  17
HETATM   17  C   UNL     1      41.070 -15.062  -0.790  1.00  0.00     0.217 C 
HETATM   18  C   UNL     1      41.128 -15.625  -2.215  1.00  0.00     0.045 C 
BRANCH  17  19
HETATM   19  N   UNL     1      39.657 -14.606  -0.418  1.00  0.00    -0.063 N 
HETATM   20  H   UNL     1      39.062 -15.394  -0.710  1.00  0.00     0.280 HD
HETATM   21  C   UNL     1      39.464 -14.456   1.074  1.00  0.00     0.235 C 
HETATM   22  C   UNL     1      37.987 -14.250   1.383  1.00  0.00     0.028 C 
HETATM   23  C   UNL     1      37.415 -13.061   0.622  1.00  0.00     0.003 C 
HETATM   24  C   UNL     1      37.666 -13.199  -0.875  1.00  0.00     0.028 C 
HETATM   25  C   UNL     1      39.144 -13.406  -1.182  1.00  0.00     0.235 C 
ENDBRANCH  17  19
ENDBRANCH   1  17
TORSDOF 3
ENDMDL
MODEL 7
REMARK VINA RESULT:      -7.6      2.768      4.816
REMARK  3 active torsions:
REMARK  status: ('A' for Active; 'I' for Inactive)
REMARK    1  A    between atoms: C_2  and  N_3 
REMARK    2  A    between atoms: C_2  and  C_10 
REMARK    3  A    between atoms: C_13  and  C_14 
ROOT
HETATM    1  C   UNL     1      42.619 -16.008   2.526  1.00  0.00    -0.028 A 
HETATM    2  C   UNL     1      43.670 -16.481   1.723  1.00  0.00     0.010 A 
HETATM    3  C   UNL     1      44.075 -17.820   1.788  1.00  0.00     0.014 A 
HETATM    4  C   UNL     1      43.454 -18.736   2.653  1.00  0.00    -0.006 A 
HETATM    5  C   UNL     1      42.432 -18.245   3.480  1.00  0.00     0.014 A 
HETATM    6  C   UNL     1      42.016 -16.909   3.414  1.00  0.00     0.010 A 
ENDROOT
BRANCH   4   7
HETATM    7  C   UNL     1      43.886 -20.137   2.685  1.00  0.00     0.082 A 
HETATM    8  N   UNL     1      43.876 -20.821   1.510  1.00  0.00    -0.240 NA
HETATM    9  C   UNL     1      44.269 -22.111   1.519  1.00  0.00     0.236 A 
HETATM   10  N   UNL     1      44.678 -22.842   2.567  1.00  0.00    -0.224 NA
HETATM   11  C   UNL     1      44.651 -22.134   3.704  1.00  0.00     0.141 A 
HETATM   12  C   UNL     1      44.274 -20.807   3.858  1.00  0.00     0.041 A 
HETATM   13  N   UNL     1      45.000 -22.629   4.931  1.00  0.00    -0.350 N 
HETATM   14  C   UNL     1      44.381 -20.521   5.252  1.00  0.00     0.034 A 
HETATM   15  C   UNL     1      44.839 -21.658   5.884  1.00  0.00     0.091 A 
HETATM   16  H   UNL     1      45.313 -23.578   5.085  1.00  0.00     0.166 HD
ENDBRANCH   4   7
BRANCH   1  17
HETATM   17  C   UNL     1      42.197 -14.554   2.416  1.00  0.00     0.217 C 
HETATM   18  C   UNL     1      41.143 -14.274   1.339  1.00  0.00     0.045 C 
BRANCH  17  19
HETATM   19  N   UNL     1      41.789 -13.972   3.772  1.00  0.00    -0.063 N 
HETATM   20  H   UNL     1      41.434 -14.788   4.291  1.00  0.00     0.280 HD
HETATM   21  C   UNL     1      42.966 -13.444   4.562  1.00  0.00     0.235 C 
HETATM   22  C   UNL     1      42.528 -13.118   5.983  1.00  0.00     0.028 C 
HETATM   23  C   UNL     1      41.359 -12.140   5.998  1.00  0.00     0.003 C 
HETATM   24  C   UNL     1      40.202 -12.660   5.155  1.00  0.00     0.028 C 
HETATM   25  C   UNL     1      40.643 -12.987   3.733  1.00  0.00     0.235 C 
ENDBRANCH  17  19
ENDBRANCH   1  17
TORSDOF 3
ENDMDL
MODEL 8
REMARK VINA RESULT:      -7.4      1.659      8.200
REMARK  3 active torsions:
REMARK  status: ('A' for Active; 'I' for Inactive)
REMARK    1  A    between atoms: C_2  and  N_3 
REMARK    2  A    between atoms: C_2  and  C_10 
REMARK    3  A    between atoms: C_13  and  C_14 
ROOT
HETATM    1  C   UNL     1      43.198 -18.604   2.903  1.00  0.00    -0.028 A 
HETATM    2  C   UNL     1      41.965 -17.974   3.138  1.00  0.00     0.010 A 
HETATM    3  C   UNL     1      41.491 -16.982   2.272  1.00  0.00     0.014 A 
HETATM    4  C   UNL     1      42.224 -16.577   1.145  1.00  0.00    -0.006 A 
HETATM    5  C   UNL     1      43.473 -17.183   0.940  1.00  0.00     0.014 A 
HETATM    6  C   UNL     1      43.950 -18.183   1.798  1.00  0.00     0.010 A 
ENDROOT
BRANCH   4   7
HETATM    7  C   UNL     1      41.693 -15.549   0.243  1.00  0.00     0.082 A 
HETATM    8  N   UNL     1      41.215 -15.960  -0.961  1.00  0.00    -0.240 NA
HETATM    9  C   UNL     1      40.723 -15.030  -1.804  1.00  0.00     0.236 A 
HETATM   10  N   UNL     1      40.643 -13.704  -1.614  1.00  0.00    -0.224 NA
HETATM   11  C   UNL     1      41.145 -13.344  -0.426  1.00  0.00     0.141 A 
HETATM   12  C   UNL     1      41.684 -14.176   0.545  1.00  0.00     0.041 A 
HETATM   13  N   UNL     1      41.208 -12.054   0.026  1.00  0.00    -0.350 N 
HETATM   14  C   UNL     1      42.110 -13.325   1.608  1.00  0.00     0.034 A 
HETATM   15  C   UNL     1      41.795 -12.027   1.264  1.00  0.00     0.091 A 
HETATM   16  H   UNL     1      40.877 -11.257  -0.500  1.00  0.00     0.166 HD
ENDBRANCH   4   7
BRANCH   1  17
HETATM   17  C   UNL     1      43.672 -19.688   3.856  1.00  0.00     0.217 C 
HETATM   18  C   UNL     1      45.021 -20.316   3.488  1.00  0.00     0.045 C 
BRANCH  17  19
HETATM   19  N   UNL     1      43.644 -19.221   5.313  1.00  0.00    -0.063 N 
HETATM   20  H   UNL     1      42.657 -18.973   5.472  1.00  0.00     0.280 HD
HETATM   21  C   UNL     1      43.967 -20.330   6.290  1.00  0.00     0.235 C 
HETATM   22  C   UNL     1      43.676 -19.866   7.711  1.00  0.00     0.028 C 
HETATM   23  C   UNL     1      44.431 -18.586   8.047  1.00  0.00     0.003 C 
HETATM   24  C   UNL     1      44.140 -17.495   7.024  1.00  0.00     0.028 C 
HETATM   25  C   UNL     1      44.430 -17.962   5.603  1.00  0.00     0.235 C 
ENDBRANCH  17  19
ENDBRANCH   1  17
TORSDOF 3
ENDMDL
MODEL 9
REMARK VINA RESULT:      -7.4      1.753      8.184
REMARK  3 active torsions:
REMARK  status: ('A' for Active; 'I' for Inactive)
REMARK    1  A    between atoms: C_2  and  N_3 
REMARK    2  A    between atoms: C_2  and  C_10 
REMARK    3  A    between atoms: C_13  and  C_14 
ROOT
HETATM    1  C   UNL     1      42.646 -17.654   2.525  1.00  0.00    -0.028 A 
HETATM    2  C   UNL     1      41.630 -17.980   1.613  1.00  0.00     0.010 A 
HETATM    3  C   UNL     1      41.049 -16.996   0.805  1.00  0.00     0.014 A 
HETATM    4  C   UNL     1      41.453 -15.653   0.875  1.00  0.00    -0.006 A 
HETATM    5  C   UNL     1      42.441 -15.329   1.817  1.00  0.00     0.014 A 
HETATM    6  C   UNL     1      43.032 -16.310   2.624  1.00  0.00     0.010 A 
ENDROOT
BRANCH   4   7
HETATM    7  C   UNL     1      40.841 -14.646   0.001  1.00  0.00     0.082 A 
HETATM    8  N   UNL     1      41.600 -14.156  -1.015  1.00  0.00    -0.240 NA
HETATM    9  C   UNL     1      41.056 -13.229  -1.829  1.00  0.00     0.236 A 
HETATM   10  N   UNL     1      39.824 -12.700  -1.769  1.00  0.00    -0.224 NA
HETATM   11  C   UNL     1      39.122 -13.195  -0.741  1.00  0.00     0.141 A 
HETATM   12  C   UNL     1      39.539 -14.147   0.179  1.00  0.00     0.041 A 
HETATM   13  N   UNL     1      37.843 -12.824  -0.429  1.00  0.00    -0.350 N 
HETATM   14  C   UNL     1      38.457 -14.320   1.093  1.00  0.00     0.034 A 
HETATM   15  C   UNL     1      37.425 -13.500   0.687  1.00  0.00     0.091 A 
HETATM   16  H   UNL     1      37.313 -12.140  -0.952  1.00  0.00     0.166 HD
ENDBRANCH   4   7
BRANCH   1  17
HETATM   17  C   UNL     1      43.264 -18.751   3.374  1.00  0.00     0.217 C 
HETATM   18  C   UNL     1      44.425 -19.498   2.707  1.00  0.00     0.045 C 
BRANCH  17  19
HETATM   19  N   UNL     1      43.640 -18.252   4.771  1.00  0.00    -0.063 N 
HETATM   20  H   UNL     1      43.881 -17.262   4.620  1.00  0.00     0.280 HD
HETATM   21  C   UNL     1      42.473 -18.265   5.733  1.00  0.00     0.235 C 
HETATM   22  C   UNL     1      42.850 -17.528   7.011  1.00  0.00     0.028 C 
HETATM   23  C   UNL     1      44.104 -18.115   7.646  1.00  0.00     0.003 C 
HETATM   24  C   UNL     1      45.257 -18.146   6.649  1.00  0.00     0.028 C 
HETATM   25  C   UNL     1      44.877 -18.883   5.370  1.00  0.00     0.235 C 
ENDBRANCH  17  19
ENDBRANCH   1  17
TORSDOF 3
ENDMDL
MODEL 10
REMARK VINA RESULT:      -7.3      3.453      7.922
REMARK  3 active torsions:
REMARK  status: ('A' for Active; 'I' for Inactive)
REMARK    1  A    between atoms: C_2  and  N_3 
REMARK    2  A    between atoms: C_2  and  C_10 
REMARK    3  A    between atoms: C_13  and  C_14 
ROOT
HETATM    1  C   UNL     1      43.139 -17.280   5.760  1.00  0.00    -0.028 A 
HETATM    2  C   UNL     1      41.744 -17.445   5.781  1.00  0.00     0.010 A 
HETATM    3  C   UNL     1      40.891 -16.346   5.627  1.00  0.00     0.014 A 
HETATM    4  C   UNL     1      41.389 -15.045   5.452  1.00  0.00    -0.006 A 
HETATM    5  C   UNL     1      42.783 -14.884   5.474  1.00  0.00     0.014 A 
HETATM    6  C   UNL     1      43.643 -15.980   5.618  1.00  0.00     0.010 A 
ENDROOT
BRANCH   4   7
HETATM    7  C   UNL     1      40.471 -13.914   5.274  1.00  0.00     0.082 A 
HETATM    8  N   UNL     1      40.062 -13.260   6.394  1.00  0.00    -0.240 NA
HETATM    9  C   UNL     1      39.218 -12.218   6.251  1.00  0.00     0.236 A 
HETATM   10  N   UNL     1      38.702 -11.724   5.115  1.00  0.00    -0.224 NA
HETATM   11  C   UNL     1      39.115 -12.412   4.043  1.00  0.00     0.141 A 
HETATM   12  C   UNL     1      39.976 -13.500   4.025  1.00  0.00     0.041 A 
HETATM   13  N   UNL     1      38.735 -12.140   2.757  1.00  0.00    -0.350 N 
HETATM   14  C   UNL     1      40.082 -13.903   2.661  1.00  0.00     0.034 A 
HETATM   15  C   UNL     1      39.316 -13.042   1.904  1.00  0.00     0.091 A 
HETATM   16  H   UNL     1      38.107 -11.390   2.504  1.00  0.00     0.166 HD
ENDBRANCH   4   7
BRANCH   1  17
HETATM   17  C   UNL     1      44.033 -18.497   5.913  1.00  0.00     0.217 C 
HETATM   18  C   UNL     1      43.888 -19.232   7.251  1.00  0.00     0.045 C 
BRANCH  17  19
HETATM   19  N   UNL     1      43.906 -19.455   4.726  1.00  0.00    -0.063 N 
HETATM   20  H   UNL     1      42.969 -19.867   4.843  1.00  0.00     0.280 HD
HETATM   21  C   UNL     1      43.893 -18.739   3.394  1.00  0.00     0.235 C 
HETATM   22  C   UNL     1      43.514 -19.714   2.288  1.00  0.00     0.028 C 
HETATM   23  C   UNL     1      44.442 -20.922   2.265  1.00  0.00     0.003 C 
HETATM   24  C   UNL     1      44.487 -21.602   3.628  1.00  0.00     0.028 C 
HETATM   25  C   UNL     1      44.865 -20.623   4.733  1.00  0.00     0.235 C 
ENDBRANCH  17  19
ENDBRANCH   1  17
TORSDOF 3
ENDMDL
