MODEL 1
REMARK VINA RESULT:      -8.1      0.000      0.000
REMARK  5 active torsions:
REMARK  status: ('A' for Active; 'I' for Inactive)
REMARK    1  A    between atoms: C_6  and  C_7 
REMARK    2  A    between atoms: C_7  and  C_8 
REMARK    3  A    between atoms: C_8  and  C_9 
REMARK    4  A    between atoms: C_9  and  N_10 
REMARK    5  A    between atoms: C_9  and  C_14 
ROOT
HETATM    1  C   UNL     1      41.086 -16.340   2.050  1.00  0.00     0.253 C 
ENDROOT
BRANCH   1   2
HETATM    2  C   UNL     1      41.658 -17.532   1.256  1.00  0.00     0.048 C 
BRANCH   2   3
HETATM    3  C   UNL     1      43.187 -17.648   1.183  1.00  0.00     0.081 C 
BRANCH   3   4
HETATM    4  C   UNL     1      43.695 -18.775   2.010  1.00  0.00     0.105 A 
HETATM    5  N   UNL     1      44.100 -18.663   3.261  1.00  0.00    -0.233 NA
HETATM    6  C   UNL     1      44.379 -19.951   3.666  1.00  0.00     0.085 A 
HETATM    7  C   UNL     1      44.151 -20.853   2.633  1.00  0.00     0.062 A 
HETATM    8  C   UNL     1      44.807 -20.428   4.913  1.00  0.00     0.034 A 
HETATM    9  C   UNL     1      44.325 -22.231   2.765  1.00  0.00     0.032 A 
HETATM   10  N   UNL     1      43.755 -20.075   1.574  1.00  0.00    -0.343 N 
HETATM   11  C   UNL     1      44.743 -22.691   4.019  1.00  0.00     0.002 A 
HETATM   12  C   UNL     1      44.983 -21.808   5.075  1.00  0.00     0.002 A 
HETATM   13  H   UNL     1      43.518 -20.416   0.652  1.00  0.00     0.167 HD
ENDBRANCH   3   4
ENDBRANCH   2   3
ENDBRANCH   1   2
BRANCH   1  14
HETATM   14  N   UNL     1      39.612 -16.450   2.181  1.00  0.00    -0.068 N 
HETATM   15  H   UNL     1      39.181 -16.742   1.298  1.00  0.00     0.275 HD
HETATM   16  H   UNL     1      39.376 -17.174   2.870  1.00  0.00     0.275 HD
HETATM   17  H   UNL     1      39.226 -15.548   2.517  1.00  0.00     0.275 HD
ENDBRANCH   1  14
BRANCH   1  18
HETATM   18  C   UNL     1      41.682 -16.272   3.417  1.00  0.00     0.136 A 
HETATM   19  N   UNL     1      42.556 -15.370   3.815  1.00  0.00    -0.231 NA
HETATM   20  C   UNL     1      42.861 -15.704   5.115  1.00  0.00     0.085 A 
HETATM   21  C   UNL     1      42.179 -16.853   5.500  1.00  0.00     0.062 A 
HETATM   22  C   UNL     1      43.719 -15.078   6.029  1.00  0.00     0.034 A 
HETATM   23  N   UNL     1      41.429 -17.194   4.405  1.00  0.00    -0.341 N 
HETATM   24  C   UNL     1      42.313 -17.440   6.759  1.00  0.00     0.032 A 
HETATM   25  H   UNL     1      40.816 -17.998   4.351  1.00  0.00     0.167 HD
HETATM   26  C   UNL     1      43.178 -16.805   7.657  1.00  0.00     0.002 A 
HETATM   27  C   UNL     1      43.867 -15.642   7.302  1.00  0.00     0.002 A 
ENDBRANCH   1  18
TORSDOF 5
ENDMDL
MODEL 2
REMARK VINA RESULT:      -8.1      3.823      8.343
REMARK  5 active torsions:
REMARK  status: ('A' for Active; 'I' for Inactive)
REMARK    1  A    between atoms: C_6  and  C_7 
REMARK    2  A    between atoms: C_7  and  C_8 
REMARK    3  A    between atoms: C_8  and  C_9 
REMARK    4  A    between atoms: C_9  and  N_10 
REMARK    5  A    between atoms: C_9  and  C_14 
ROOT
HETATM    1  C   UNL     1      44.221 -16.458   7.076  1.00  0.00     0.253 C 
ENDROOT
BRANCH   1   2
HETATM    2  C   UNL     1      44.017 -15.021   6.556  1.00  0.00     0.048 C 
BRANCH   2   3
HETATM    3  C   UNL     1      45.114 -13.999   6.889  1.00  0.00     0.081 C 
BRANCH   3   4
HETATM    4  C   UNL     1      44.713 -13.102   8.005  1.00  0.00     0.105 A 
HETATM    5  N   UNL     1      45.441 -12.876   9.082  1.00  0.00    -0.233 NA
HETATM    6  C   UNL     1      44.749 -11.915   9.789  1.00  0.00     0.085 A 
HETATM    7  C   UNL     1      43.574 -11.570   9.131  1.00  0.00     0.062 A 
HETATM    8  C   UNL     1      45.078 -11.273  10.991  1.00  0.00     0.034 A 
HETATM    9  C   UNL     1      42.687 -10.602   9.603  1.00  0.00     0.032 A 
HETATM   10  N   UNL     1      43.552 -12.369   8.016  1.00  0.00    -0.343 N 
HETATM   11  C   UNL     1      43.035  -9.964  10.799  1.00  0.00     0.002 A 
HETATM   12  C   UNL     1      44.207 -10.292  11.484  1.00  0.00     0.002 A 
HETATM   13  H   UNL     1      42.821 -12.381   7.317  1.00  0.00     0.167 HD
ENDBRANCH   3   4
ENDBRANCH   2   3
ENDBRANCH   1   2
BRANCH   1  14
HETATM   14  N   UNL     1      43.174 -16.817   8.064  1.00  0.00    -0.068 N 
HETATM   15  H   UNL     1      43.173 -17.825   8.256  1.00  0.00     0.275 HD
HETATM   16  H   UNL     1      43.367 -16.355   8.960  1.00  0.00     0.275 HD
HETATM   17  H   UNL     1      42.252 -16.489   7.725  1.00  0.00     0.275 HD
ENDBRANCH   1  14
BRANCH   1  18
HETATM   18  C   UNL     1      44.177 -17.444   5.956  1.00  0.00     0.136 A 
HETATM   19  N   UNL     1      44.788 -18.612   5.955  1.00  0.00    -0.231 NA
HETATM   20  C   UNL     1      44.513 -19.166   4.725  1.00  0.00     0.085 A 
HETATM   21  C   UNL     1      43.746 -18.299   3.955  1.00  0.00     0.062 A 
HETATM   22  C   UNL     1      44.892 -20.405   4.190  1.00  0.00     0.034 A 
HETATM   23  N   UNL     1      43.539 -17.211   4.761  1.00  0.00    -0.341 N 
HETATM   24  C   UNL     1      43.338 -18.587   2.652  1.00  0.00     0.032 A 
HETATM   25  H   UNL     1      43.017 -16.385   4.496  1.00  0.00     0.167 HD
HETATM   26  C   UNL     1      43.730 -19.825   2.132  1.00  0.00     0.002 A 
HETATM   27  C   UNL     1      44.490 -20.722   2.886  1.00  0.00     0.002 A 
ENDBRANCH   1  18
TORSDOF 5
ENDMDL
MODEL 3
REMARK VINA RESULT:      -7.9      1.829      6.325
REMARK  5 active torsions:
REMARK  status: ('A' for Active; 'I' for Inactive)
REMARK    1  A    between atoms: C_6  and  C_7 
REMARK    2  A    between atoms: C_7  and  C_8 
REMARK    3  A    between atoms: C_8  and  C_9 
REMARK    4  A    between atoms: C_9  and  N_10 
REMARK    5  A    between atoms: C_9  and  C_14 
ROOT
HETATM    1  C   UNL     1      44.692 -18.325   7.003  1.00  0.00     0.253 C 
ENDROOT
BRANCH   1   2
HETATM    2  C   UNL     1      44.132 -16.899   6.828  1.00  0.00     0.048 C 
BRANCH   2   3
HETATM    3  C   UNL     1      42.654 -16.684   7.181  1.00  0.00     0.081 C 
BRANCH   3   4
HETATM    4  C   UNL     1      41.846 -16.328   5.984  1.00  0.00     0.105 A 
HETATM    5  N   UNL     1      41.193 -15.191   5.833  1.00  0.00    -0.233 NA
HETATM    6  C   UNL     1      40.680 -15.239   4.554  1.00  0.00     0.085 A 
HETATM    7  C   UNL     1      41.019 -16.435   3.931  1.00  0.00     0.062 A 
HETATM    8  C   UNL     1      39.936 -14.283   3.848  1.00  0.00     0.034 A 
HETATM    9  C   UNL     1      40.656 -16.747   2.620  1.00  0.00     0.032 A 
HETATM   10  N   UNL     1      41.727 -17.131   4.877  1.00  0.00    -0.343 N 
HETATM   11  C   UNL     1      39.922 -15.778   1.927  1.00  0.00     0.002 A 
HETATM   12  C   UNL     1      39.564 -14.568   2.527  1.00  0.00     0.002 A 
HETATM   13  H   UNL     1      42.118 -18.056   4.756  1.00  0.00     0.167 HD
ENDBRANCH   3   4
ENDBRANCH   2   3
ENDBRANCH   1   2
BRANCH   1  14
HETATM   14  N   UNL     1      43.962 -19.052   8.071  1.00  0.00    -0.068 N 
HETATM   15  H   UNL     1      43.182 -18.495   8.434  1.00  0.00     0.275 HD
HETATM   16  H   UNL     1      43.550 -19.911   7.688  1.00  0.00     0.275 HD
HETATM   17  H   UNL     1      44.625 -19.321   8.821  1.00  0.00     0.275 HD
ENDBRANCH   1  14
BRANCH   1  18
HETATM   18  C   UNL     1      44.580 -19.103   5.734  1.00  0.00     0.136 A 
HETATM   19  N   UNL     1      44.214 -18.601   4.572  1.00  0.00    -0.231 NA
HETATM   20  C   UNL     1      44.210 -19.666   3.699  1.00  0.00     0.085 A 
HETATM   21  C   UNL     1      44.548 -20.843   4.358  1.00  0.00     0.062 A 
HETATM   22  C   UNL     1      43.917 -19.707   2.329  1.00  0.00     0.034 A 
HETATM   23  N   UNL     1      44.787 -20.460   5.652  1.00  0.00    -0.341 N 
HETATM   24  C   UNL     1      44.601 -22.087   3.728  1.00  0.00     0.032 A 
HETATM   25  H   UNL     1      45.052 -21.086   6.401  1.00  0.00     0.167 HD
HETATM   26  C   UNL     1      44.300 -22.111   2.362  1.00  0.00     0.002 A 
HETATM   27  C   UNL     1      43.967 -20.943   1.672  1.00  0.00     0.002 A 
ENDBRANCH   1  18
TORSDOF 5
ENDMDL
MODEL 4
REMARK VINA RESULT:      -7.8      3.527      5.222
REMARK  5 active torsions:
REMARK  status: ('A' for Active; 'I' for Inactive)
REMARK    1  A    between atoms: C_6  and  C_7 
REMARK    2  A    between atoms: C_7  and  C_8 
REMARK    3  A    between atoms: C_8  and  C_9 
REMARK    4  A    between atoms: C_9  and  N_10 
REMARK    5  A    between atoms: C_9  and  C_14 
ROOT
HETATM    1  C   UNL     1      44.625 -14.493   6.620  1.00  0.00     0.253 C 
ENDROOT
BRANCH   1   2
HETATM    2  C   UNL     1      43.930 -15.790   7.082  1.00  0.00     0.048 C 
BRANCH   2   3
HETATM    3  C   UNL     1      44.740 -17.090   6.971  1.00  0.00     0.081 C 
BRANCH   3   4
HETATM    4  C   UNL     1      44.370 -17.869   5.760  1.00  0.00     0.105 A 
HETATM    5  N   UNL     1      43.616 -17.412   4.777  1.00  0.00    -0.233 NA
HETATM    6  C   UNL     1      43.620 -18.411   3.827  1.00  0.00     0.085 A 
HETATM    7  C   UNL     1      44.379 -19.495   4.254  1.00  0.00     0.062 A 
HETATM    8  C   UNL     1      43.017 -18.450   2.562  1.00  0.00     0.034 A 
HETATM    9  C   UNL     1      44.582 -20.640   3.483  1.00  0.00     0.032 A 
HETATM   10  N   UNL     1      44.814 -19.143   5.506  1.00  0.00    -0.343 N 
HETATM   11  C   UNL     1      43.981 -20.658   2.219  1.00  0.00     0.002 A 
HETATM   12  C   UNL     1      43.210 -19.586   1.765  1.00  0.00     0.002 A 
HETATM   13  H   UNL     1      45.388 -19.716   6.111  1.00  0.00     0.167 HD
ENDBRANCH   3   4
ENDBRANCH   2   3
ENDBRANCH   1   2
BRANCH   1  14
HETATM   14  N   UNL     1      44.032 -13.997   5.353  1.00  0.00    -0.068 N 
HETATM   15  H   UNL     1      43.185 -14.521   5.110  1.00  0.00     0.275 HD
HETATM   16  H   UNL     1      43.744 -13.018   5.463  1.00  0.00     0.275 HD
HETATM   17  H   UNL     1      44.742 -14.042   4.599  1.00  0.00     0.275 HD
ENDBRANCH   1  14
BRANCH   1  18
HETATM   18  C   UNL     1      44.503 -13.423   7.654  1.00  0.00     0.136 A 
HETATM   19  N   UNL     1      45.355 -13.225   8.639  1.00  0.00    -0.231 NA
HETATM   20  C   UNL     1      44.839 -12.175   9.364  1.00  0.00     0.085 A 
HETATM   21  C   UNL     1      43.631 -11.750   8.822  1.00  0.00     0.062 A 
HETATM   22  C   UNL     1      45.342 -11.534  10.504  1.00  0.00     0.034 A 
HETATM   23  N   UNL     1      43.439 -12.555   7.730  1.00  0.00    -0.341 N 
HETATM   24  C   UNL     1      42.868 -10.716   9.365  1.00  0.00     0.032 A 
HETATM   25  H   UNL     1      42.640 -12.510   7.111  1.00  0.00     0.167 HD
HETATM   26  C   UNL     1      43.382 -10.091  10.506  1.00  0.00     0.002 A 
HETATM   27  C   UNL     1      44.599 -10.488  11.066  1.00  0.00     0.002 A 
ENDBRANCH   1  18
TORSDOF 5
ENDMDL
MODEL 5
REMARK VINA RESULT:      -7.8      1.405      4.128
REMARK  5 active torsions:
REMARK  status: ('A' for Active; 'I' for Inactive)
REMARK    1  A    between atoms: C_6  and  C_7 
REMARK    2  A    between atoms: C_7  and  C_8 
REMARK    3  A    between atoms: C_8  and  C_9 
REMARK    4  A    between atoms: C_9  and  N_10 
REMARK    5  A    between atoms: C_9  and  C_14 
ROOT
HETATM    1  C   UNL     1      42.259 -15.857   6.314  1.00  0.00     0.253 C 
ENDROOT
BRANCH   1   2
HETATM    2  C   UNL     1      42.868 -17.188   6.801  1.00  0.00     0.048 C 
BRANCH   2   3
HETATM    3  C   UNL     1      44.323 -17.474   6.401  1.00  0.00     0.081 C 
BRANCH   3   4
HETATM    4  C   UNL     1      44.419 -18.598   5.432  1.00  0.00     0.105 A 
HETATM    5  N   UNL     1      44.736 -19.839   5.754  1.00  0.00    -0.233 NA
HETATM    6  C   UNL     1      44.601 -20.558   4.586  1.00  0.00     0.085 A 
HETATM    7  C   UNL     1      44.210 -19.731   3.539  1.00  0.00     0.062 A 
HETATM    8  C   UNL     1      44.772 -21.930   4.351  1.00  0.00     0.034 A 
HETATM    9  C   UNL     1      43.971 -20.193   2.244  1.00  0.00     0.032 A 
HETATM   10  N   UNL     1      44.140 -18.479   4.094  1.00  0.00    -0.343 N 
HETATM   11  C   UNL     1      44.137 -21.566   2.030  1.00  0.00     0.002 A 
HETATM   12  C   UNL     1      44.532 -22.421   3.061  1.00  0.00     0.002 A 
HETATM   13  H   UNL     1      43.891 -17.631   3.600  1.00  0.00     0.167 HD
ENDBRANCH   3   4
ENDBRANCH   2   3
ENDBRANCH   1   2
BRANCH   1  14
HETATM   14  N   UNL     1      43.166 -14.721   6.610  1.00  0.00    -0.068 N 
HETATM   15  H   UNL     1      42.644 -13.908   6.953  1.00  0.00     0.275 HD
HETATM   16  H   UNL     1      43.818 -14.981   7.359  1.00  0.00     0.275 HD
HETATM   17  H   UNL     1      43.722 -14.492   5.766  1.00  0.00     0.275 HD
ENDBRANCH   1  14
BRANCH   1  18
HETATM   18  C   UNL     1      42.004 -15.892   4.843  1.00  0.00     0.136 A 
HETATM   19  N   UNL     1      41.466 -16.906   4.196  1.00  0.00    -0.231 NA
HETATM   20  C   UNL     1      41.454 -16.529   2.872  1.00  0.00     0.085 A 
HETATM   21  C   UNL     1      42.028 -15.272   2.714  1.00  0.00     0.062 A 
HETATM   22  C   UNL     1      40.977 -17.211   1.744  1.00  0.00     0.034 A 
HETATM   23  N   UNL     1      42.365 -14.883   3.983  1.00  0.00    -0.341 N 
HETATM   24  C   UNL     1      42.174 -14.645   1.475  1.00  0.00     0.032 A 
HETATM   25  H   UNL     1      42.814 -14.007   4.220  1.00  0.00     0.167 HD
HETATM   26  C   UNL     1      41.698 -15.343   0.360  1.00  0.00     0.002 A 
HETATM   27  C   UNL     1      41.106 -16.602   0.490  1.00  0.00     0.002 A 
ENDBRANCH   1  18
TORSDOF 5
ENDMDL
MODEL 6
REMARK VINA RESULT:      -7.5      1.832      4.118
REMARK  5 active torsions:
REMARK  status: ('A' for Active; 'I' for Inactive)
REMARK    1  A    between atoms: C_6  and  C_7 
REMARK    2  A    between atoms: C_7  and  C_8 
REMARK    3  A    between atoms: C_8  and  C_9 
REMARK    4  A    between atoms: C_9  and  N_10 
REMARK    5  A    between atoms: C_9  and  C_14 
ROOT
HETATM    1  C   UNL     1      43.604 -15.776   7.021  1.00  0.00     0.253 C 
ENDROOT
BRANCH   1   2
HETATM    2  C   UNL     1      44.679 -16.811   6.631  1.00  0.00     0.048 C 
BRANCH   2   3
HETATM    3  C   UNL     1      44.359 -18.286   6.916  1.00  0.00     0.081 C 
BRANCH   3   4
HETATM    4  C   UNL     1      44.384 -19.105   5.675  1.00  0.00     0.105 A 
HETATM    5  N   UNL     1      44.717 -20.382   5.627  1.00  0.00    -0.233 NA
HETATM    6  C   UNL     1      44.500 -20.761   4.320  1.00  0.00     0.085 A 
HETATM    7  C   UNL     1      44.043 -19.687   3.564  1.00  0.00     0.062 A 
HETATM    8  C   UNL     1      44.649 -22.015   3.712  1.00  0.00     0.034 A 
HETATM    9  C   UNL     1      43.716 -19.786   2.211  1.00  0.00     0.032 A 
HETATM   10  N   UNL     1      44.017 -18.632   4.440  1.00  0.00    -0.343 N 
HETATM   11  C   UNL     1      43.861 -21.047   1.622  1.00  0.00     0.002 A 
HETATM   12  C   UNL     1      44.321 -22.144   2.356  1.00  0.00     0.002 A 
HETATM   13  H   UNL     1      43.739 -17.686   4.212  1.00  0.00     0.167 HD
ENDBRANCH   3   4
ENDBRANCH   2   3
ENDBRANCH   1   2
BRANCH   1  14
HETATM   14  N   UNL     1      44.227 -14.489   7.416  1.00  0.00    -0.068 N 
HETATM   15  H   UNL     1      43.741 -13.694   6.989  1.00  0.00     0.275 HD
HETATM   16  H   UNL     1      44.151 -14.361   8.432  1.00  0.00     0.275 HD
HETATM   17  H   UNL     1      45.234 -14.502   7.168  1.00  0.00     0.275 HD
ENDBRANCH   1  14
BRANCH   1  18
HETATM   18  C   UNL     1      42.667 -15.524   5.886  1.00  0.00     0.136 A 
HETATM   19  N   UNL     1      42.816 -15.999   4.666  1.00  0.00    -0.231 NA
HETATM   20  C   UNL     1      41.760 -15.491   3.945  1.00  0.00     0.085 A 
HETATM   21  C   UNL     1      40.974 -14.664   4.740  1.00  0.00     0.062 A 
HETATM   22  C   UNL     1      41.410 -15.684   2.601  1.00  0.00     0.034 A 
HETATM   23  N   UNL     1      41.567 -14.705   5.975  1.00  0.00    -0.341 N 
HETATM   24  C   UNL     1      39.846 -13.991   4.268  1.00  0.00     0.032 A 
HETATM   25  H   UNL     1      41.242 -14.201   6.790  1.00  0.00     0.167 HD
HETATM   26  C   UNL     1      39.515 -14.191   2.924  1.00  0.00     0.002 A 
HETATM   27  C   UNL     1      40.279 -15.025   2.103  1.00  0.00     0.002 A 
ENDBRANCH   1  18
TORSDOF 5
ENDMDL
MODEL 7
REMARK VINA RESULT:      -7.2      2.652      4.500
REMARK  5 active torsions:
REMARK  status: ('A' for Active; 'I' for Inactive)
REMARK    1  A    between atoms: C_6  and  C_7 
REMARK    2  A    between atoms: C_7  and  C_8 
REMARK    3  A    between atoms: C_8  and  C_9 
REMARK    4  A    between atoms: C_9  and  N_10 
REMARK    5  A    between atoms: C_9  and  C_14 
ROOT
HETATM    1  C   UNL     1      40.980 -16.221   3.806  1.00  0.00     0.253 C 
ENDROOT
BRANCH   1   2
HETATM    2  C   UNL     1      42.476 -15.967   3.530  1.00  0.00     0.048 C 
BRANCH   2   3
HETATM    3  C   UNL     1      43.480 -16.601   4.505  1.00  0.00     0.081 C 
BRANCH   3   4
HETATM    4  C   UNL     1      43.822 -17.995   4.116  1.00  0.00     0.105 A 
HETATM    5  N   UNL     1      44.317 -18.901   4.937  1.00  0.00    -0.233 NA
HETATM    6  C   UNL     1      44.378 -20.063   4.196  1.00  0.00     0.085 A 
HETATM    7  C   UNL     1      43.925 -19.845   2.900  1.00  0.00     0.062 A 
HETATM    8  C   UNL     1      44.788 -21.349   4.575  1.00  0.00     0.034 A 
HETATM    9  C   UNL     1      43.850 -20.851   1.936  1.00  0.00     0.032 A 
HETATM   10  N   UNL     1      43.614 -18.510   2.860  1.00  0.00    -0.343 N 
HETATM   11  C   UNL     1      44.253 -22.130   2.333  1.00  0.00     0.002 A 
HETATM   12  C   UNL     1      44.716 -22.378   3.627  1.00  0.00     0.002 A 
HETATM   13  H   UNL     1      43.261 -18.013   2.053  1.00  0.00     0.167 HD
ENDBRANCH   3   4
ENDBRANCH   2   3
ENDBRANCH   1   2
BRANCH   1  14
HETATM   14  N   UNL     1      40.689 -16.144   5.259  1.00  0.00    -0.068 N 
HETATM   15  H   UNL     1      40.724 -17.071   5.695  1.00  0.00     0.275 HD
HETATM   16  H   UNL     1      41.405 -15.578   5.728  1.00  0.00     0.275 HD
HETATM   17  H   UNL     1      39.771 -15.686   5.403  1.00  0.00     0.275 HD
ENDBRANCH   1  14
BRANCH   1  18
HETATM   18  C   UNL     1      40.128 -15.222   3.095  1.00  0.00     0.136 A 
HETATM   19  N   UNL     1      40.115 -13.929   3.346  1.00  0.00    -0.231 NA
HETATM   20  C   UNL     1      39.169 -13.401   2.497  1.00  0.00     0.085 A 
HETATM   21  C   UNL     1      38.574 -14.405   1.740  1.00  0.00     0.062 A 
HETATM   22  C   UNL     1      38.755 -12.074   2.322  1.00  0.00     0.034 A 
HETATM   23  N   UNL     1      39.205 -15.556   2.133  1.00  0.00    -0.341 N 
HETATM   24  C   UNL     1      37.560 -14.167   0.811  1.00  0.00     0.032 A 
HETATM   25  H   UNL     1      39.000 -16.480   1.775  1.00  0.00     0.167 HD
HETATM   26  C   UNL     1      37.155 -12.837   0.653  1.00  0.00     0.002 A 
HETATM   27  C   UNL     1      37.743 -11.806   1.391  1.00  0.00     0.002 A 
ENDBRANCH   1  18
TORSDOF 5
ENDMDL
MODEL 8
REMARK VINA RESULT:      -7.2      3.238      7.071
REMARK  5 active torsions:
REMARK  status: ('A' for Active; 'I' for Inactive)
REMARK    1  A    between atoms: C_6  and  C_7 
REMARK    2  A    between atoms: C_7  and  C_8 
REMARK    3  A    between atoms: C_8  and  C_9 
REMARK    4  A    between atoms: C_9  and  N_10 
REMARK    5  A    between atoms: C_9  and  C_14 
ROOT
HETATM    1  C   UNL     1      43.481 -17.036   2.629  1.00  0.00     0.253 C 
ENDROOT
BRANCH   1   2
HETATM    2  C   UNL     1      43.165 -16.928   1.123  1.00  0.00     0.048 C 
BRANCH   2   3
HETATM    3  C   UNL     1      41.684 -16.838   0.728  1.00  0.00     0.081 C 
BRANCH   3   4
HETATM    4  C   UNL     1      41.435 -15.730  -0.232  1.00  0.00     0.105 A 
HETATM    5  N   UNL     1      41.801 -14.476  -0.040  1.00  0.00    -0.233 NA
HETATM    6  C   UNL     1      41.474 -13.824  -1.209  1.00  0.00     0.085 A 
HETATM    7  C   UNL     1      40.887 -14.700  -2.116  1.00  0.00     0.062 A 
HETATM    8  C   UNL     1      41.673 -12.486  -1.577  1.00  0.00     0.034 A 
HETATM    9  C   UNL     1      40.478 -14.319  -3.394  1.00  0.00     0.032 A 
HETATM   10  N   UNL     1      40.835 -15.900  -1.455  1.00  0.00    -0.343 N 
HETATM   11  C   UNL     1      40.693 -12.983  -3.749  1.00  0.00     0.002 A 
HETATM   12  C   UNL     1      41.277 -12.079  -2.858  1.00  0.00     0.002 A 
HETATM   13  H   UNL     1      40.453 -16.760  -1.828  1.00  0.00     0.167 HD
ENDBRANCH   3   4
ENDBRANCH   2   3
ENDBRANCH   1   2
BRANCH   1  14
HETATM   14  N   UNL     1      42.314 -16.618   3.445  1.00  0.00    -0.068 N 
HETATM   15  H   UNL     1      41.609 -16.145   2.871  1.00  0.00     0.275 HD
HETATM   16  H   UNL     1      41.854 -17.444   3.845  1.00  0.00     0.275 HD
HETATM   17  H   UNL     1      42.637 -16.019   4.228  1.00  0.00     0.275 HD
ENDBRANCH   1  14
BRANCH   1  18
HETATM   18  C   UNL     1      43.845 -18.435   3.001  1.00  0.00     0.136 A 
HETATM   19  N   UNL     1      43.821 -19.464   2.178  1.00  0.00    -0.231 NA
HETATM   20  C   UNL     1      44.188 -20.551   2.940  1.00  0.00     0.085 A 
HETATM   21  C   UNL     1      44.406 -20.173   4.260  1.00  0.00     0.062 A 
HETATM   22  C   UNL     1      44.347 -21.894   2.575  1.00  0.00     0.034 A 
HETATM   23  N   UNL     1      44.188 -18.820   4.275  1.00  0.00    -0.341 N 
HETATM   24  C   UNL     1      44.765 -21.072   5.266  1.00  0.00     0.032 A 
HETATM   25  H   UNL     1      44.258 -18.232   5.095  1.00  0.00     0.167 HD
HETATM   26  C   UNL     1      44.914 -22.410   4.886  1.00  0.00     0.002 A 
HETATM   27  C   UNL     1      44.713 -22.816   3.564  1.00  0.00     0.002 A 
ENDBRANCH   1  18
TORSDOF 5
ENDMDL
MODEL 9
REMARK VINA RESULT:      -7.1      2.594      6.391
REMARK  5 active torsions:
REMARK  status: ('A' for Active; 'I' for Inactive)
REMARK    1  A    between atoms: C_6  and  C_7 
REMARK    2  A    between atoms: C_7  and  C_8 
REMARK    3  A    between atoms: C_8  and  C_9 
REMARK    4  A    between atoms: C_9  and  N_10 
REMARK    5  A    between atoms: C_9  and  C_14 
ROOT
HETATM    1  C   UNL     1      43.172 -15.575   5.449  1.00  0.00     0.253 C 
ENDROOT
BRANCH   1   2
HETATM    2  C   UNL     1      42.210 -14.624   4.709  1.00  0.00     0.048 C 
BRANCH   2   3
HETATM    3  C   UNL     1      42.846 -13.549   3.816  1.00  0.00     0.081 C 
BRANCH   3   4
HETATM    4  C   UNL     1      42.373 -13.650   2.409  1.00  0.00     0.105 A 
HETATM    5  N   UNL     1      42.446 -12.674   1.523  1.00  0.00    -0.233 NA
HETATM    6  C   UNL     1      42.003 -13.228   0.341  1.00  0.00     0.085 A 
HETATM    7  C   UNL     1      41.641 -14.558   0.525  1.00  0.00     0.062 A 
HETATM    8  C   UNL     1      41.905 -12.660  -0.936  1.00  0.00     0.034 A 
HETATM    9  C   UNL     1      41.180 -15.377  -0.506  1.00  0.00     0.032 A 
HETATM   10  N   UNL     1      41.848 -14.793   1.861  1.00  0.00    -0.343 N 
HETATM   11  C   UNL     1      41.098 -14.796  -1.777  1.00  0.00     0.002 A 
HETATM   12  C   UNL     1      41.451 -13.462  -1.992  1.00  0.00     0.002 A 
HETATM   13  H   UNL     1      41.673 -15.668   2.337  1.00  0.00     0.167 HD
ENDBRANCH   3   4
ENDBRANCH   2   3
ENDBRANCH   1   2
BRANCH   1  14
HETATM   14  N   UNL     1      42.636 -15.936   6.785  1.00  0.00    -0.068 N 
HETATM   15  H   UNL     1      43.262 -16.583   7.275  1.00  0.00     0.275 HD
HETATM   16  H   UNL     1      42.571 -15.097   7.373  1.00  0.00     0.275 HD
HETATM   17  H   UNL     1      41.683 -16.329   6.680  1.00  0.00     0.275 HD
ENDBRANCH   1  14
BRANCH   1  18
HETATM   18  C   UNL     1      43.390 -16.829   4.669  1.00  0.00     0.136 A 
HETATM   19  N   UNL     1      42.819 -17.107   3.515  1.00  0.00    -0.231 NA
HETATM   20  C   UNL     1      43.267 -18.364   3.178  1.00  0.00     0.085 A 
HETATM   21  C   UNL     1      44.103 -18.869   4.169  1.00  0.00     0.062 A 
HETATM   22  C   UNL     1      42.996 -19.145   2.047  1.00  0.00     0.034 A 
HETATM   23  N   UNL     1      44.172 -17.871   5.105  1.00  0.00    -0.341 N 
HETATM   24  C   UNL     1      44.686 -20.135   4.109  1.00  0.00     0.032 A 
HETATM   25  H   UNL     1      44.701 -17.922   5.967  1.00  0.00     0.167 HD
HETATM   26  C   UNL     1      44.401 -20.903   2.975  1.00  0.00     0.002 A 
HETATM   27  C   UNL     1      43.574 -20.418   1.958  1.00  0.00     0.002 A 
ENDBRANCH   1  18
TORSDOF 5
ENDMDL
MODEL 10
REMARK VINA RESULT:      -7.1      2.341      6.828
REMARK  5 active torsions:
REMARK  status: ('A' for Active; 'I' for Inactive)
REMARK    1  A    between atoms: C_6  and  C_7 
REMARK    2  A    between atoms: C_7  and  C_8 
REMARK    3  A    between atoms: C_8  and  C_9 
REMARK    4  A    between atoms: C_9  and  N_10 
REMARK    5  A    between atoms: C_9  and  C_14 
ROOT
HETATM    1  C   UNL     1      43.888 -16.877   6.107  1.00  0.00     0.253 C 
ENDROOT
BRANCH   1   2
HETATM    2  C   UNL     1      43.198 -15.654   5.470  1.00  0.00     0.048 C 
BRANCH   2   3
HETATM    3  C   UNL     1      41.799 -15.295   5.991  1.00  0.00     0.081 C 
BRANCH   3   4
HETATM    4  C   UNL     1      40.901 -14.841   4.896  1.00  0.00     0.105 A 
HETATM    5  N   UNL     1      40.542 -13.587   4.693  1.00  0.00    -0.233 NA
HETATM    6  C   UNL     1      39.807 -13.608   3.527  1.00  0.00     0.085 A 
HETATM    7  C   UNL     1      39.711 -14.902   3.028  1.00  0.00     0.062 A 
HETATM    8  C   UNL     1      39.213 -12.553   2.822  1.00  0.00     0.034 A 
HETATM    9  C   UNL     1      39.046 -15.219   1.843  1.00  0.00     0.032 A 
HETATM   10  N   UNL     1      40.381 -15.677   3.939  1.00  0.00    -0.343 N 
HETATM   11  C   UNL     1      38.467 -14.152   1.146  1.00  0.00     0.002 A 
HETATM   12  C   UNL     1      38.545 -12.842   1.624  1.00  0.00     0.002 A 
HETATM   13  H   UNL     1      40.495 -16.681   3.885  1.00  0.00     0.167 HD
ENDBRANCH   3   4
ENDBRANCH   2   3
ENDBRANCH   1   2
BRANCH   1  14
HETATM   14  N   UNL     1      43.185 -17.296   7.345  1.00  0.00    -0.068 N 
HETATM   15  H   UNL     1      43.668 -18.076   7.802  1.00  0.00     0.275 HD
HETATM   16  H   UNL     1      43.182 -16.524   8.022  1.00  0.00     0.275 HD
HETATM   17  H   UNL     1      42.201 -17.531   7.122  1.00  0.00     0.275 HD
ENDBRANCH   1  14
BRANCH   1  18
HETATM   18  C   UNL     1      43.912 -18.031   5.160  1.00  0.00     0.136 A 
HETATM   19  N   UNL     1      44.576 -19.153   5.356  1.00  0.00    -0.231 NA
HETATM   20  C   UNL     1      44.353 -19.911   4.228  1.00  0.00     0.085 A 
HETATM   21  C   UNL     1      43.563 -19.217   3.318  1.00  0.00     0.062 A 
HETATM   22  C   UNL     1      44.800 -21.199   3.906  1.00  0.00     0.034 A 
HETATM   23  N   UNL     1      43.289 -18.025   3.936  1.00  0.00    -0.341 N 
HETATM   24  C   UNL     1      43.196 -19.730   2.074  1.00  0.00     0.032 A 
HETATM   25  H   UNL     1      42.735 -17.279   3.534  1.00  0.00     0.167 HD
HETATM   26  C   UNL     1      43.655 -21.015   1.766  1.00  0.00     0.002 A 
HETATM   27  C   UNL     1      44.441 -21.740   2.665  1.00  0.00     0.002 A 
ENDBRANCH   1  18
TORSDOF 5
ENDMDL
