MODEL 1
REMARK VINA RESULT:      -8.2      0.000      0.000
REMARK  8 active torsions:
REMARK  status: ('A' for Active; 'I' for Inactive)
REMARK    1  A    between atoms: C_2  and  C_3 
REMARK    2  A    between atoms: C_3  and  N_4 
REMARK    3  A    between atoms: C_3  and  C_19 
REMARK       I    between atoms: C_19  and  N_20 
REMARK    4  A    between atoms: N_20  and  C_21 
REMARK    5  A    between atoms: C_21  and  C_22 
REMARK    6  A    between atoms: C_22  and  C_23 
REMARK    7  A    between atoms: C_23  and  O_24 
REMARK    8  A    between atoms: O_24  and  C_25 
ROOT
HETATM    1  N   UNL     1      41.942 -15.785   2.440  1.00  0.00    -0.220 N 
HETATM    2  N   UNL     1      42.351 -15.261   3.676  1.00  0.00    -0.172 NA
HETATM    3  C   UNL     1      43.061 -16.000   4.484  1.00  0.00     0.069 A 
HETATM    4  C   UNL     1      43.504 -15.403   5.794  1.00  0.00     0.074 C 
HETATM    5  C   UNL     1      43.407 -17.346   4.122  1.00  0.00     0.048 A 
HETATM    6  C   UNL     1      42.991 -17.910   2.943  1.00  0.00     0.064 A 
HETATM    7  C   UNL     1      42.184 -17.117   2.026  1.00  0.00     0.277 A 
HETATM    8  O   UNL     1      41.749 -17.586   0.978  1.00  0.00    -0.266 OA
HETATM    9  S   UNL     1      44.338 -18.391   5.067  1.00  0.00    -0.086 SA
HETATM   10  C   UNL     1      44.205 -19.663   3.913  1.00  0.00     0.017 A 
HETATM   11  C   UNL     1      43.443 -19.272   2.804  1.00  0.00    -0.002 A 
HETATM   12  C   UNL     1      44.765 -20.953   4.011  1.00  0.00     0.020 A 
HETATM   13  C   UNL     1      44.551 -21.865   2.977  1.00  0.00     0.001 A 
HETATM   14  C   UNL     1      43.798 -21.507   1.868  1.00  0.00     0.001 A 
HETATM   15  C   UNL     1      43.247 -20.226   1.773  1.00  0.00     0.014 A 
ENDROOT
BRANCH   1  16
HETATM   16  C   UNL     1      41.088 -14.940   1.572  1.00  0.00     0.205 C 
BRANCH  16  17
HETATM   17  C   UNL     1      39.790 -14.511   2.280  1.00  0.00     0.032 C 
HETATM   18  C   UNL     1      38.558 -14.459   1.387  1.00  0.00     0.007 C 
ENDBRANCH  16  17
BRANCH  16  19
HETATM   19  C   UNL     1      41.757 -13.736   0.870  1.00  0.00     0.242 C 
HETATM   20  N   UNL     1      41.623 -13.692  -0.495  1.00  0.00    -0.359 N 
HETATM   21  H   UNL     1      41.065 -14.435  -0.912  1.00  0.00     0.162 HD
HETATM   22  O   UNL     1      42.464 -12.943   1.490  1.00  0.00    -0.271 OA
BRANCH  20  23
HETATM   23  C   UNL     1      42.219 -12.672  -1.332  1.00  0.00     0.125 C 
BRANCH  23  24
HETATM   24  C   UNL     1      42.524 -13.188  -2.735  1.00  0.00     0.046 C 
BRANCH  24  25
HETATM   25  C   UNL     1      41.250 -13.489  -3.518  1.00  0.00     0.169 C 
BRANCH  25  26
HETATM   26  O   UNL     1      41.035 -14.896  -3.547  1.00  0.00    -0.387 OA
BRANCH  26  27
HETATM   27  C   UNL     1      39.731 -15.299  -3.119  1.00  0.00     0.113 C 
HETATM   28  C   UNL     1      38.863 -14.089  -2.791  1.00  0.00     0.039 C 
HETATM   29  C   UNL     1      39.118 -16.090  -4.271  1.00  0.00     0.039 C 
ENDBRANCH  26  27
ENDBRANCH  25  26
ENDBRANCH  24  25
ENDBRANCH  23  24
ENDBRANCH  20  23
ENDBRANCH  16  19
ENDBRANCH   1  16
TORSDOF 8
ENDMDL
MODEL 2
REMARK VINA RESULT:      -8.1      1.653      2.493
REMARK  8 active torsions:
REMARK  status: ('A' for Active; 'I' for Inactive)
REMARK    1  A    between atoms: C_2  and  C_3 
REMARK    2  A    between atoms: C_3  and  N_4 
REMARK    3  A    between atoms: C_3  and  C_19 
REMARK       I    between atoms: C_19  and  N_20 
REMARK    4  A    between atoms: N_20  and  C_21 
REMARK    5  A    between atoms: C_21  and  C_22 
REMARK    6  A    between atoms: C_22  and  C_23 
REMARK    7  A    between atoms: C_23  and  O_24 
REMARK    8  A    between atoms: O_24  and  C_25 
ROOT
HETATM    1  N   UNL     1      42.283 -15.701   3.775  1.00  0.00    -0.220 N 
HETATM    2  N   UNL     1      42.881 -15.486   5.027  1.00  0.00    -0.172 NA
HETATM    3  C   UNL     1      43.621 -16.422   5.554  1.00  0.00     0.069 A 
HETATM    4  C   UNL     1      44.269 -16.155   6.887  1.00  0.00     0.074 C 
HETATM    5  C   UNL     1      43.810 -17.671   4.870  1.00  0.00     0.048 A 
HETATM    6  C   UNL     1      43.210 -17.936   3.666  1.00  0.00     0.064 A 
HETATM    7  C   UNL     1      42.363 -16.918   3.058  1.00  0.00     0.277 A 
HETATM    8  O   UNL     1      41.767 -17.120   2.004  1.00  0.00    -0.266 OA
HETATM    9  S   UNL     1      44.762 -18.947   5.433  1.00  0.00    -0.086 SA
HETATM   10  C   UNL     1      44.386 -19.923   4.064  1.00  0.00     0.017 A 
HETATM   11  C   UNL     1      43.529 -19.256   3.179  1.00  0.00    -0.002 A 
HETATM   12  C   UNL     1      44.848 -21.230   3.807  1.00  0.00     0.020 A 
HETATM   13  C   UNL     1      44.436 -21.877   2.642  1.00  0.00     0.001 A 
HETATM   14  C   UNL     1      43.584 -21.243   1.749  1.00  0.00     0.001 A 
HETATM   15  C   UNL     1      43.132 -19.946   2.006  1.00  0.00     0.014 A 
ENDROOT
BRANCH   1  16
HETATM   16  C   UNL     1      41.401 -14.641   3.233  1.00  0.00     0.205 C 
BRANCH  16  17
HETATM   17  C   UNL     1      40.882 -13.700   4.336  1.00  0.00     0.032 C 
HETATM   18  C   UNL     1      39.599 -14.154   5.017  1.00  0.00     0.007 C 
ENDBRANCH  16  17
BRANCH  16  19
HETATM   19  C   UNL     1      41.918 -13.836   2.019  1.00  0.00     0.242 C 
HETATM   20  N   UNL     1      41.423 -14.214   0.797  1.00  0.00    -0.359 N 
HETATM   21  H   UNL     1      40.734 -14.963   0.808  1.00  0.00     0.162 HD
HETATM   22  O   UNL     1      42.808 -12.995   2.139  1.00  0.00    -0.271 OA
BRANCH  20  23
HETATM   23  C   UNL     1      41.825 -13.613  -0.458  1.00  0.00     0.125 C 
BRANCH  23  24
HETATM   24  C   UNL     1      40.743 -13.740  -1.527  1.00  0.00     0.046 C 
BRANCH  24  25
HETATM   25  C   UNL     1      39.354 -13.889  -0.913  1.00  0.00     0.169 C 
BRANCH  25  26
HETATM   26  O   UNL     1      39.002 -12.683  -0.242  1.00  0.00    -0.387 OA
BRANCH  26  27
HETATM   27  C   UNL     1      38.001 -12.843   0.766  1.00  0.00     0.113 C 
HETATM   28  C   UNL     1      37.796 -14.315   1.107  1.00  0.00     0.039 C 
HETATM   29  C   UNL     1      38.491 -12.081   1.994  1.00  0.00     0.039 C 
ENDBRANCH  26  27
ENDBRANCH  25  26
ENDBRANCH  24  25
ENDBRANCH  23  24
ENDBRANCH  20  23
ENDBRANCH  16  19
ENDBRANCH   1  16
TORSDOF 8
ENDMDL
MODEL 3
REMARK VINA RESULT:      -7.8      1.299      1.508
REMARK  8 active torsions:
REMARK  status: ('A' for Active; 'I' for Inactive)
REMARK    1  A    between atoms: C_2  and  C_3 
REMARK    2  A    between atoms: C_3  and  N_4 
REMARK    3  A    between atoms: C_3  and  C_19 
REMARK       I    between atoms: C_19  and  N_20 
REMARK    4  A    between atoms: N_20  and  C_21 
REMARK    5  A    between atoms: C_21  and  C_22 
REMARK    6  A    between atoms: C_22  and  C_23 
REMARK    7  A    between atoms: C_23  and  O_24 
REMARK    8  A    between atoms: O_24  and  C_25 
ROOT
HETATM    1  N   UNL     1      40.720 -15.693   2.249  1.00  0.00    -0.220 N 
HETATM    2  N   UNL     1      40.443 -15.220   3.542  1.00  0.00    -0.172 NA
HETATM    3  C   UNL     1      41.007 -15.794   4.569  1.00  0.00     0.069 A 
HETATM    4  C   UNL     1      40.709 -15.250   5.942  1.00  0.00     0.074 C 
HETATM    5  C   UNL     1      41.889 -16.912   4.384  1.00  0.00     0.048 A 
HETATM    6  C   UNL     1      42.152 -17.431   3.142  1.00  0.00     0.064 A 
HETATM    7  C   UNL     1      41.526 -16.824   1.975  1.00  0.00     0.277 A 
HETATM    8  O   UNL     1      41.692 -17.276   0.846  1.00  0.00    -0.266 OA
HETATM    9  S   UNL     1      42.696 -17.721   5.627  1.00  0.00    -0.086 SA
HETATM   10  C   UNL     1      43.431 -18.823   4.526  1.00  0.00     0.017 A 
HETATM   11  C   UNL     1      43.049 -18.558   3.204  1.00  0.00    -0.002 A 
HETATM   12  C   UNL     1      44.310 -19.877   4.847  1.00  0.00     0.020 A 
HETATM   13  C   UNL     1      44.810 -20.679   3.821  1.00  0.00     0.001 A 
HETATM   14  C   UNL     1      44.447 -20.442   2.503  1.00  0.00     0.001 A 
HETATM   15  C   UNL     1      43.578 -19.395   2.188  1.00  0.00     0.014 A 
ENDROOT
BRANCH   1  16
HETATM   16  C   UNL     1      40.018 -15.058   1.109  1.00  0.00     0.205 C 
BRANCH  16  17
HETATM   17  C   UNL     1      38.602 -14.589   1.490  1.00  0.00     0.032 C 
HETATM   18  C   UNL     1      37.797 -13.981   0.350  1.00  0.00     0.007 C 
ENDBRANCH  16  17
BRANCH  16  19
HETATM   19  C   UNL     1      40.773 -13.955   0.332  1.00  0.00     0.242 C 
HETATM   20  N   UNL     1      41.134 -14.271  -0.953  1.00  0.00    -0.359 N 
HETATM   21  H   UNL     1      40.838 -15.187  -1.287  1.00  0.00     0.162 HD
HETATM   22  O   UNL     1      41.130 -12.914   0.881  1.00  0.00    -0.271 OA
BRANCH  20  23
HETATM   23  C   UNL     1      41.889 -13.390  -1.819  1.00  0.00     0.125 C 
BRANCH  23  24
HETATM   24  C   UNL     1      40.982 -12.457  -2.618  1.00  0.00     0.046 C 
BRANCH  24  25
HETATM   25  C   UNL     1      39.796 -13.200  -3.225  1.00  0.00     0.169 C 
BRANCH  25  26
HETATM   26  O   UNL     1      40.263 -14.370  -3.889  1.00  0.00    -0.387 OA
BRANCH  26  27
HETATM   27  C   UNL     1      39.283 -15.405  -4.013  1.00  0.00     0.113 C 
HETATM   28  C   UNL     1      39.754 -16.690  -3.339  1.00  0.00     0.039 C 
HETATM   29  C   UNL     1      38.016 -14.890  -3.338  1.00  0.00     0.039 C 
ENDBRANCH  26  27
ENDBRANCH  25  26
ENDBRANCH  24  25
ENDBRANCH  23  24
ENDBRANCH  20  23
ENDBRANCH  16  19
ENDBRANCH   1  16
TORSDOF 8
ENDMDL
MODEL 4
REMARK VINA RESULT:      -7.8      1.054      2.003
REMARK  8 active torsions:
REMARK  status: ('A' for Active; 'I' for Inactive)
REMARK    1  A    between atoms: C_2  and  C_3 
REMARK    2  A    between atoms: C_3  and  N_4 
REMARK    3  A    between atoms: C_3  and  C_19 
REMARK       I    between atoms: C_19  and  N_20 
REMARK    4  A    between atoms: N_20  and  C_21 
REMARK    5  A    between atoms: C_21  and  C_22 
REMARK    6  A    between atoms: C_22  and  C_23 
REMARK    7  A    between atoms: C_23  and  O_24 
REMARK    8  A    between atoms: O_24  and  C_25 
ROOT
HETATM    1  N   UNL     1      41.550 -16.128   2.433  1.00  0.00    -0.220 N 
HETATM    2  N   UNL     1      41.987 -15.519   3.621  1.00  0.00    -0.172 NA
HETATM    3  C   UNL     1      42.802 -16.162   4.411  1.00  0.00     0.069 A 
HETATM    4  C   UNL     1      43.271 -15.474   5.665  1.00  0.00     0.074 C 
HETATM    5  C   UNL     1      43.237 -17.491   4.081  1.00  0.00     0.048 A 
HETATM    6  C   UNL     1      42.801 -18.137   2.952  1.00  0.00     0.064 A 
HETATM    7  C   UNL     1      41.877 -17.453   2.058  1.00  0.00     0.277 A 
HETATM    8  O   UNL     1      41.422 -18.002   1.058  1.00  0.00    -0.266 OA
HETATM    9  S   UNL     1      44.306 -18.414   5.005  1.00  0.00    -0.086 SA
HETATM   10  C   UNL     1      44.211 -19.743   3.912  1.00  0.00     0.017 A 
HETATM   11  C   UNL     1      43.355 -19.463   2.839  1.00  0.00    -0.002 A 
HETATM   12  C   UNL     1      44.882 -20.977   4.025  1.00  0.00     0.020 A 
HETATM   13  C   UNL     1      44.684 -21.948   3.043  1.00  0.00     0.001 A 
HETATM   14  C   UNL     1      43.839 -21.702   1.970  1.00  0.00     0.001 A 
HETATM   15  C   UNL     1      43.179 -20.475   1.861  1.00  0.00     0.014 A 
ENDROOT
BRANCH   1  16
HETATM   16  C   UNL     1      40.579 -15.395   1.589  1.00  0.00     0.205 C 
BRANCH  16  17
HETATM   17  C   UNL     1      39.913 -14.232   2.349  1.00  0.00     0.032 C 
HETATM   18  C   UNL     1      38.688 -13.637   1.669  1.00  0.00     0.007 C 
ENDBRANCH  16  17
BRANCH  16  19
HETATM   19  C   UNL     1      41.054 -14.938   0.190  1.00  0.00     0.242 C 
HETATM   20  N   UNL     1      40.608 -15.691  -0.867  1.00  0.00    -0.359 N 
HETATM   21  H   UNL     1      39.978 -16.456  -0.634  1.00  0.00     0.162 HD
HETATM   22  O   UNL     1      41.876 -14.032   0.055  1.00  0.00    -0.271 OA
BRANCH  20  23
HETATM   23  C   UNL     1      40.984 -15.450  -2.244  1.00  0.00     0.125 C 
BRANCH  23  24
HETATM   24  C   UNL     1      39.913 -14.672  -3.003  1.00  0.00     0.046 C 
BRANCH  24  25
HETATM   25  C   UNL     1      40.456 -13.364  -3.569  1.00  0.00     0.169 C 
BRANCH  25  26
HETATM   26  O   UNL     1      41.862 -13.303  -3.351  1.00  0.00    -0.387 OA
BRANCH  26  27
HETATM   27  C   UNL     1      42.426 -12.001  -3.525  1.00  0.00     0.113 C 
HETATM   28  C   UNL     1      41.539 -11.131  -4.410  1.00  0.00     0.039 C 
HETATM   29  C   UNL     1      42.547 -11.387  -2.134  1.00  0.00     0.039 C 
ENDBRANCH  26  27
ENDBRANCH  25  26
ENDBRANCH  24  25
ENDBRANCH  23  24
ENDBRANCH  20  23
ENDBRANCH  16  19
ENDBRANCH   1  16
TORSDOF 8
ENDMDL
MODEL 5
REMARK VINA RESULT:      -7.6      3.865      7.119
REMARK  8 active torsions:
REMARK  status: ('A' for Active; 'I' for Inactive)
REMARK    1  A    between atoms: C_2  and  C_3 
REMARK    2  A    between atoms: C_3  and  N_4 
REMARK    3  A    between atoms: C_3  and  C_19 
REMARK       I    between atoms: C_19  and  N_20 
REMARK    4  A    between atoms: N_20  and  C_21 
REMARK    5  A    between atoms: C_21  and  C_22 
REMARK    6  A    between atoms: C_22  and  C_23 
REMARK    7  A    between atoms: C_23  and  O_24 
REMARK    8  A    between atoms: O_24  and  C_25 
ROOT
HETATM    1  N   UNL     1      42.822 -16.132   4.842  1.00  0.00    -0.220 N 
HETATM    2  N   UNL     1      42.673 -15.820   3.481  1.00  0.00    -0.172 NA
HETATM    3  C   UNL     1      42.912 -16.734   2.582  1.00  0.00     0.069 A 
HETATM    4  C   UNL     1      42.722 -16.377   1.132  1.00  0.00     0.074 C 
HETATM    5  C   UNL     1      43.343 -18.046   2.978  1.00  0.00     0.048 A 
HETATM    6  C   UNL     1      43.542 -18.379   4.293  1.00  0.00     0.064 A 
HETATM    7  C   UNL     1      43.299 -17.375   5.321  1.00  0.00     0.277 A 
HETATM    8  O   UNL     1      43.503 -17.606   6.509  1.00  0.00    -0.266 OA
HETATM    9  S   UNL     1      43.660 -19.319   1.915  1.00  0.00    -0.086 SA
HETATM   10  C   UNL     1      44.094 -20.378   3.203  1.00  0.00     0.017 A 
HETATM   11  C   UNL     1      43.990 -19.741   4.446  1.00  0.00    -0.002 A 
HETATM   12  C   UNL     1      44.509 -21.720   3.089  1.00  0.00     0.020 A 
HETATM   13  C   UNL     1      44.827 -22.431   4.246  1.00  0.00     0.001 A 
HETATM   14  C   UNL     1      44.737 -21.826   5.491  1.00  0.00     0.001 A 
HETATM   15  C   UNL     1      44.323 -20.496   5.600  1.00  0.00     0.014 A 
ENDROOT
BRANCH   1  16
HETATM   16  C   UNL     1      42.599 -15.054   5.833  1.00  0.00     0.205 C 
BRANCH  16  17
HETATM   17  C   UNL     1      43.786 -14.074   5.900  1.00  0.00     0.032 C 
HETATM   18  C   UNL     1      44.741 -14.299   7.064  1.00  0.00     0.007 C 
ENDBRANCH  16  17
BRANCH  16  19
HETATM   19  C   UNL     1      41.258 -14.289   5.765  1.00  0.00     0.242 C 
HETATM   20  N   UNL     1      41.309 -12.962   6.112  1.00  0.00    -0.359 N 
HETATM   21  H   UNL     1      42.231 -12.598   6.344  1.00  0.00     0.162 HD
HETATM   22  O   UNL     1      40.199 -14.870   5.533  1.00  0.00    -0.271 OA
BRANCH  20  23
HETATM   23  C   UNL     1      40.150 -12.095   6.158  1.00  0.00     0.125 C 
BRANCH  23  24
HETATM   24  C   UNL     1      39.518 -12.056   7.547  1.00  0.00     0.046 C 
BRANCH  24  25
HETATM   25  C   UNL     1      40.055 -10.897   8.381  1.00  0.00     0.169 C 
BRANCH  25  26
HETATM   26  O   UNL     1      41.418 -10.662   8.041  1.00  0.00    -0.387 OA
BRANCH  26  27
HETATM   27  C   UNL     1      42.272 -10.436   9.165  1.00  0.00     0.113 C 
HETATM   28  C   UNL     1      41.569 -10.793  10.470  1.00  0.00     0.039 C 
HETATM   29  C   UNL     1      43.498 -11.322   8.968  1.00  0.00     0.039 C 
ENDBRANCH  26  27
ENDBRANCH  25  26
ENDBRANCH  24  25
ENDBRANCH  23  24
ENDBRANCH  20  23
ENDBRANCH  16  19
ENDBRANCH   1  16
TORSDOF 8
ENDMDL
MODEL 6
REMARK VINA RESULT:      -7.6      3.347      5.166
REMARK  8 active torsions:
REMARK  status: ('A' for Active; 'I' for Inactive)
REMARK    1  A    between atoms: C_2  and  C_3 
REMARK    2  A    between atoms: C_3  and  N_4 
REMARK    3  A    between atoms: C_3  and  C_19 
REMARK       I    between atoms: C_19  and  N_20 
REMARK    4  A    between atoms: N_20  and  C_21 
REMARK    5  A    between atoms: C_21  and  C_22 
REMARK    6  A    between atoms: C_22  and  C_23 
REMARK    7  A    between atoms: C_23  and  O_24 
REMARK    8  A    between atoms: O_24  and  C_25 
ROOT
HETATM    1  N   UNL     1      42.924 -16.234   4.823  1.00  0.00    -0.220 N 
HETATM    2  N   UNL     1      42.738 -15.908   3.470  1.00  0.00    -0.172 NA
HETATM    3  C   UNL     1      42.944 -16.815   2.556  1.00  0.00     0.069 A 
HETATM    4  C   UNL     1      42.715 -16.443   1.115  1.00  0.00     0.074 C 
HETATM    5  C   UNL     1      43.376 -18.135   2.926  1.00  0.00     0.048 A 
HETATM    6  C   UNL     1      43.610 -18.481   4.232  1.00  0.00     0.064 A 
HETATM    7  C   UNL     1      43.405 -17.485   5.276  1.00  0.00     0.277 A 
HETATM    8  O   UNL     1      43.641 -17.730   6.456  1.00  0.00    -0.266 OA
HETATM    9  S   UNL     1      43.652 -19.399   1.843  1.00  0.00    -0.086 SA
HETATM   10  C   UNL     1      44.114 -20.474   3.108  1.00  0.00     0.017 A 
HETATM   11  C   UNL     1      44.051 -19.848   4.360  1.00  0.00    -0.002 A 
HETATM   12  C   UNL     1      44.514 -21.818   2.970  1.00  0.00     0.020 A 
HETATM   13  C   UNL     1      44.861 -22.543   4.110  1.00  0.00     0.001 A 
HETATM   14  C   UNL     1      44.811 -21.949   5.363  1.00  0.00     0.001 A 
HETATM   15  C   UNL     1      44.411 -20.617   5.496  1.00  0.00     0.014 A 
ENDROOT
BRANCH   1  16
HETATM   16  C   UNL     1      42.739 -15.164   5.830  1.00  0.00     0.205 C 
BRANCH  16  17
HETATM   17  C   UNL     1      43.860 -14.109   5.767  1.00  0.00     0.032 C 
HETATM   18  C   UNL     1      44.897 -14.207   6.877  1.00  0.00     0.007 C 
ENDBRANCH  16  17
BRANCH  16  19
HETATM   19  C   UNL     1      41.350 -14.488   5.905  1.00  0.00     0.242 C 
HETATM   20  N   UNL     1      41.355 -13.145   6.188  1.00  0.00    -0.359 N 
HETATM   21  H   UNL     1      42.272 -12.714   6.285  1.00  0.00     0.162 HD
HETATM   22  O   UNL     1      40.312 -15.144   5.835  1.00  0.00    -0.271 OA
BRANCH  20  23
HETATM   23  C   UNL     1      40.155 -12.350   6.347  1.00  0.00     0.125 C 
BRANCH  23  24
HETATM   24  C   UNL     1      40.215 -11.055   5.542  1.00  0.00     0.046 C 
BRANCH  24  25
HETATM   25  C   UNL     1      40.206 -11.319   4.040  1.00  0.00     0.169 C 
BRANCH  25  26
HETATM   26  O   UNL     1      41.494 -11.770   3.632  1.00  0.00    -0.387 OA
BRANCH  26  27
HETATM   27  C   UNL     1      41.473 -12.707   2.553  1.00  0.00     0.113 C 
HETATM   28  C   UNL     1      40.168 -13.497   2.536  1.00  0.00     0.039 C 
HETATM   29  C   UNL     1      41.614 -11.897   1.267  1.00  0.00     0.039 C 
ENDBRANCH  26  27
ENDBRANCH  25  26
ENDBRANCH  24  25
ENDBRANCH  23  24
ENDBRANCH  20  23
ENDBRANCH  16  19
ENDBRANCH   1  16
TORSDOF 8
ENDMDL
MODEL 7
REMARK VINA RESULT:      -7.6      3.218      6.365
REMARK  8 active torsions:
REMARK  status: ('A' for Active; 'I' for Inactive)
REMARK    1  A    between atoms: C_2  and  C_3 
REMARK    2  A    between atoms: C_3  and  N_4 
REMARK    3  A    between atoms: C_3  and  C_19 
REMARK       I    between atoms: C_19  and  N_20 
REMARK    4  A    between atoms: N_20  and  C_21 
REMARK    5  A    between atoms: C_21  and  C_22 
REMARK    6  A    between atoms: C_22  and  C_23 
REMARK    7  A    between atoms: C_23  and  O_24 
REMARK    8  A    between atoms: O_24  and  C_25 
ROOT
HETATM    1  N   UNL     1      42.213 -15.868   3.615  1.00  0.00    -0.220 N 
HETATM    2  N   UNL     1      42.719 -15.635   4.904  1.00  0.00    -0.172 NA
HETATM    3  C   UNL     1      43.433 -16.556   5.490  1.00  0.00     0.069 A 
HETATM    4  C   UNL     1      43.981 -16.268   6.863  1.00  0.00     0.074 C 
HETATM    5  C   UNL     1      43.685 -17.808   4.833  1.00  0.00     0.048 A 
HETATM    6  C   UNL     1      43.174 -18.092   3.592  1.00  0.00     0.064 A 
HETATM    7  C   UNL     1      42.360 -17.091   2.917  1.00  0.00     0.277 A 
HETATM    8  O   UNL     1      41.842 -17.310   1.825  1.00  0.00    -0.266 OA
HETATM    9  S   UNL     1      44.611 -19.065   5.475  1.00  0.00    -0.086 SA
HETATM   10  C   UNL     1      44.346 -20.058   4.092  1.00  0.00     0.017 A 
HETATM   11  C   UNL     1      43.544 -19.411   3.143  1.00  0.00    -0.002 A 
HETATM   12  C   UNL     1      44.841 -21.361   3.881  1.00  0.00     0.020 A 
HETATM   13  C   UNL     1      44.521 -22.024   2.696  1.00  0.00     0.001 A 
HETATM   14  C   UNL     1      43.726 -21.410   1.739  1.00  0.00     0.001 A 
HETATM   15  C   UNL     1      43.240 -20.117   1.951  1.00  0.00     0.014 A 
ENDROOT
BRANCH   1  16
HETATM   16  C   UNL     1      41.358 -14.826   3.002  1.00  0.00     0.205 C 
BRANCH  16  17
HETATM   17  C   UNL     1      39.865 -15.199   3.052  1.00  0.00     0.032 C 
HETATM   18  C   UNL     1      39.114 -15.029   1.739  1.00  0.00     0.007 C 
ENDBRANCH  16  17
BRANCH  16  19
HETATM   19  C   UNL     1      41.576 -13.365   3.459  1.00  0.00     0.242 C 
HETATM   20  N   UNL     1      41.060 -13.041   4.688  1.00  0.00    -0.359 N 
HETATM   21  H   UNL     1      40.615 -13.801   5.198  1.00  0.00     0.162 HD
HETATM   22  O   UNL     1      42.074 -12.526   2.709  1.00  0.00    -0.271 OA
BRANCH  20  23
HETATM   23  C   UNL     1      41.120 -11.714   5.264  1.00  0.00     0.125 C 
BRANCH  23  24
HETATM   24  C   UNL     1      41.766 -11.719   6.647  1.00  0.00     0.046 C 
BRANCH  24  25
HETATM   25  C   UNL     1      41.721 -10.340   7.299  1.00  0.00     0.169 C 
BRANCH  25  26
HETATM   26  O   UNL     1      42.722 -10.262   8.309  1.00  0.00    -0.387 OA
BRANCH  26  27
HETATM   27  C   UNL     1      42.273 -10.651   9.610  1.00  0.00     0.113 C 
HETATM   28  C   UNL     1      43.448 -10.823  10.567  1.00  0.00     0.039 C 
HETATM   29  C   UNL     1      41.350  -9.541  10.103  1.00  0.00     0.039 C 
ENDBRANCH  26  27
ENDBRANCH  25  26
ENDBRANCH  24  25
ENDBRANCH  23  24
ENDBRANCH  20  23
ENDBRANCH  16  19
ENDBRANCH   1  16
TORSDOF 8
ENDMDL
MODEL 8
REMARK VINA RESULT:      -7.3      2.123      3.950
REMARK  8 active torsions:
REMARK  status: ('A' for Active; 'I' for Inactive)
REMARK    1  A    between atoms: C_2  and  C_3 
REMARK    2  A    between atoms: C_3  and  N_4 
REMARK    3  A    between atoms: C_3  and  C_19 
REMARK       I    between atoms: C_19  and  N_20 
REMARK    4  A    between atoms: N_20  and  C_21 
REMARK    5  A    between atoms: C_21  and  C_22 
REMARK    6  A    between atoms: C_22  and  C_23 
REMARK    7  A    between atoms: C_23  and  O_24 
REMARK    8  A    between atoms: O_24  and  C_25 
ROOT
HETATM    1  N   UNL     1      43.046 -16.205   4.403  1.00  0.00    -0.220 N 
HETATM    2  N   UNL     1      42.989 -16.056   3.008  1.00  0.00    -0.172 NA
HETATM    3  C   UNL     1      43.242 -17.081   2.241  1.00  0.00     0.069 A 
HETATM    4  C   UNL     1      43.151 -16.897   0.750  1.00  0.00     0.074 C 
HETATM    5  C   UNL     1      43.594 -18.349   2.817  1.00  0.00     0.048 A 
HETATM    6  C   UNL     1      43.702 -18.526   4.173  1.00  0.00     0.064 A 
HETATM    7  C   UNL     1      43.442 -17.397   5.056  1.00  0.00     0.277 A 
HETATM    8  O   UNL     1      43.567 -17.489   6.274  1.00  0.00    -0.266 OA
HETATM    9  S   UNL     1      43.919 -19.752   1.936  1.00  0.00    -0.086 SA
HETATM   10  C   UNL     1      44.233 -20.660   3.366  1.00  0.00     0.017 A 
HETATM   11  C   UNL     1      44.083 -19.873   4.515  1.00  0.00    -0.002 A 
HETATM   12  C   UNL     1      44.597 -22.020   3.439  1.00  0.00     0.020 A 
HETATM   13  C   UNL     1      44.819 -22.595   4.690  1.00  0.00     0.001 A 
HETATM   14  C   UNL     1      44.682 -21.840   5.846  1.00  0.00     0.001 A 
HETATM   15  C   UNL     1      44.317 -20.494   5.769  1.00  0.00     0.014 A 
ENDROOT
BRANCH   1  16
HETATM   16  C   UNL     1      42.811 -15.008   5.243  1.00  0.00     0.205 C 
BRANCH  16  17
HETATM   17  C   UNL     1      44.115 -14.245   5.541  1.00  0.00     0.032 C 
HETATM   18  C   UNL     1      44.511 -14.199   7.010  1.00  0.00     0.007 C 
ENDBRANCH  16  17
BRANCH  16  19
HETATM   19  C   UNL     1      41.693 -14.035   4.800  1.00  0.00     0.242 C 
HETATM   20  N   UNL     1      40.705 -14.578   4.018  1.00  0.00    -0.359 N 
HETATM   21  H   UNL     1      40.782 -15.576   3.834  1.00  0.00     0.162 HD
HETATM   22  O   UNL     1      41.760 -12.830   5.037  1.00  0.00    -0.271 OA
BRANCH  20  23
HETATM   23  C   UNL     1      39.604 -13.817   3.466  1.00  0.00     0.125 C 
BRANCH  23  24
HETATM   24  C   UNL     1      39.204 -14.312   2.079  1.00  0.00     0.046 C 
BRANCH  24  25
HETATM   25  C   UNL     1      40.167 -13.823   1.001  1.00  0.00     0.169 C 
BRANCH  25  26
HETATM   26  O   UNL     1      39.631 -14.122  -0.283  1.00  0.00    -0.387 OA
BRANCH  26  27
HETATM   27  C   UNL     1      40.572 -14.007  -1.353  1.00  0.00     0.113 C 
HETATM   28  C   UNL     1      41.873 -13.373  -0.873  1.00  0.00     0.039 C 
HETATM   29  C   UNL     1      40.831 -15.421  -1.862  1.00  0.00     0.039 C 
ENDBRANCH  26  27
ENDBRANCH  25  26
ENDBRANCH  24  25
ENDBRANCH  23  24
ENDBRANCH  20  23
ENDBRANCH  16  19
ENDBRANCH   1  16
TORSDOF 8
ENDMDL
MODEL 9
REMARK VINA RESULT:      -7.1      2.804      3.253
REMARK  8 active torsions:
REMARK  status: ('A' for Active; 'I' for Inactive)
REMARK    1  A    between atoms: C_2  and  C_3 
REMARK    2  A    between atoms: C_3  and  N_4 
REMARK    3  A    between atoms: C_3  and  C_19 
REMARK       I    between atoms: C_19  and  N_20 
REMARK    4  A    between atoms: N_20  and  C_21 
REMARK    5  A    between atoms: C_21  and  C_22 
REMARK    6  A    between atoms: C_22  and  C_23 
REMARK    7  A    between atoms: C_23  and  O_24 
REMARK    8  A    between atoms: O_24  and  C_25 
ROOT
HETATM    1  N   UNL     1      42.278 -15.926   3.552  1.00  0.00    -0.220 N 
HETATM    2  N   UNL     1      42.825 -15.660   4.818  1.00  0.00    -0.172 NA
HETATM    3  C   UNL     1      43.557 -16.566   5.404  1.00  0.00     0.069 A 
HETATM    4  C   UNL     1      44.148 -16.244   6.751  1.00  0.00     0.074 C 
HETATM    5  C   UNL     1      43.789 -17.835   4.771  1.00  0.00     0.048 A 
HETATM    6  C   UNL     1      43.239 -18.149   3.555  1.00  0.00     0.064 A 
HETATM    7  C   UNL     1      42.403 -17.165   2.880  1.00  0.00     0.277 A 
HETATM    8  O   UNL     1      41.851 -17.412   1.812  1.00  0.00    -0.266 OA
HETATM    9  S   UNL     1      44.734 -19.076   5.415  1.00  0.00    -0.086 SA
HETATM   10  C   UNL     1      44.426 -20.104   4.067  1.00  0.00     0.017 A 
HETATM   11  C   UNL     1      43.595 -19.480   3.127  1.00  0.00    -0.002 A 
HETATM   12  C   UNL     1      44.914 -21.411   3.873  1.00  0.00     0.020 A 
HETATM   13  C   UNL     1      44.556 -22.104   2.716  1.00  0.00     0.001 A 
HETATM   14  C   UNL     1      43.732 -21.513   1.769  1.00  0.00     0.001 A 
HETATM   15  C   UNL     1      43.252 -20.215   1.964  1.00  0.00     0.014 A 
ENDROOT
BRANCH   1  16
HETATM   16  C   UNL     1      41.404 -14.898   2.940  1.00  0.00     0.205 C 
BRANCH  16  17
HETATM   17  C   UNL     1      40.210 -14.541   3.844  1.00  0.00     0.032 C 
HETATM   18  C   UNL     1      40.347 -13.228   4.602  1.00  0.00     0.007 C 
ENDBRANCH  16  17
BRANCH  16  19
HETATM   19  C   UNL     1      42.081 -13.621   2.392  1.00  0.00     0.242 C 
HETATM   20  N   UNL     1      41.360 -12.915   1.461  1.00  0.00    -0.359 N 
HETATM   21  H   UNL     1      40.433 -13.279   1.248  1.00  0.00     0.162 HD
HETATM   22  O   UNL     1      43.240 -13.332   2.686  1.00  0.00    -0.271 OA
BRANCH  20  23
HETATM   23  C   UNL     1      41.846 -11.723   0.799  1.00  0.00     0.125 C 
BRANCH  23  24
HETATM   24  C   UNL     1      40.864 -10.561   0.918  1.00  0.00     0.046 C 
BRANCH  24  25
HETATM   25  C   UNL     1      41.375  -9.311   0.208  1.00  0.00     0.169 C 
BRANCH  25  26
HETATM   26  O   UNL     1      41.574  -9.600  -1.172  1.00  0.00    -0.387 OA
BRANCH  26  27
HETATM   27  C   UNL     1      42.691  -8.925  -1.757  1.00  0.00     0.113 C 
HETATM   28  C   UNL     1      44.006  -9.571  -1.335  1.00  0.00     0.039 C 
HETATM   29  C   UNL     1      42.517  -9.023  -3.270  1.00  0.00     0.039 C 
ENDBRANCH  26  27
ENDBRANCH  25  26
ENDBRANCH  24  25
ENDBRANCH  23  24
ENDBRANCH  20  23
ENDBRANCH  16  19
ENDBRANCH   1  16
TORSDOF 8
ENDMDL
MODEL 10
REMARK VINA RESULT:      -6.9      2.734      8.335
REMARK  8 active torsions:
REMARK  status: ('A' for Active; 'I' for Inactive)
REMARK    1  A    between atoms: C_2  and  C_3 
REMARK    2  A    between atoms: C_3  and  N_4 
REMARK    3  A    between atoms: C_3  and  C_19 
REMARK       I    between atoms: C_19  and  N_20 
REMARK    4  A    between atoms: N_20  and  C_21 
REMARK    5  A    between atoms: C_21  and  C_22 
REMARK    6  A    between atoms: C_22  and  C_23 
REMARK    7  A    between atoms: C_23  and  O_24 
REMARK    8  A    between atoms: O_24  and  C_25 
ROOT
HETATM    1  N   UNL     1      41.630 -14.521   0.698  1.00  0.00    -0.220 N 
HETATM    2  N   UNL     1      41.178 -15.307  -0.373  1.00  0.00    -0.172 NA
HETATM    3  C   UNL     1      41.183 -14.812  -1.580  1.00  0.00     0.069 A 
HETATM    4  C   UNL     1      40.713 -15.686  -2.713  1.00  0.00     0.074 C 
HETATM    5  C   UNL     1      41.632 -13.467  -1.812  1.00  0.00     0.048 A 
HETATM    6  C   UNL     1      42.042 -12.652  -0.788  1.00  0.00     0.064 A 
HETATM    7  C   UNL     1      42.032 -13.169   0.574  1.00  0.00     0.277 A 
HETATM    8  O   UNL     1      42.347 -12.469   1.532  1.00  0.00    -0.266 OA
HETATM    9  S   UNL     1      41.710 -12.723  -3.325  1.00  0.00    -0.086 SA
HETATM   10  C   UNL     1      42.296 -11.251  -2.648  1.00  0.00     0.017 A 
HETATM   11  C   UNL     1      42.429 -11.345  -1.256  1.00  0.00    -0.002 A 
HETATM   12  C   UNL     1      42.619 -10.070  -3.346  1.00  0.00     0.020 A 
HETATM   13  C   UNL     1      43.079  -8.964  -2.631  1.00  0.00     0.001 A 
HETATM   14  C   UNL     1      43.217  -9.026  -1.252  1.00  0.00     0.001 A 
HETATM   15  C   UNL     1      42.899 -10.200  -0.564  1.00  0.00     0.014 A 
ENDROOT
BRANCH   1  16
HETATM   16  C   UNL     1      41.555 -15.092   2.063  1.00  0.00     0.205 C 
BRANCH  16  17
HETATM   17  C   UNL     1      40.186 -14.841   2.721  1.00  0.00     0.032 C 
HETATM   18  C   UNL     1      38.997 -14.890   1.771  1.00  0.00     0.007 C 
ENDBRANCH  16  17
BRANCH  16  19
HETATM   19  C   UNL     1      41.991 -16.564   2.244  1.00  0.00     0.242 C 
HETATM   20  N   UNL     1      43.344 -16.781   2.323  1.00  0.00    -0.359 N 
HETATM   21  H   UNL     1      43.930 -15.948   2.292  1.00  0.00     0.162 HD
HETATM   22  O   UNL     1      41.177 -17.486   2.196  1.00  0.00    -0.271 OA
BRANCH  20  23
HETATM   23  C   UNL     1      43.946 -18.092   2.442  1.00  0.00     0.125 C 
BRANCH  23  24
HETATM   24  C   UNL     1      44.065 -18.537   3.898  1.00  0.00     0.046 C 
BRANCH  24  25
HETATM   25  C   UNL     1      44.424 -20.015   4.011  1.00  0.00     0.169 C 
BRANCH  25  26
HETATM   26  O   UNL     1      45.045 -20.444   2.803  1.00  0.00    -0.387 OA
BRANCH  26  27
HETATM   27  C   UNL     1      44.724 -21.784   2.423  1.00  0.00     0.113 C 
HETATM   28  C   UNL     1      44.594 -22.686   3.646  1.00  0.00     0.039 C 
HETATM   29  C   UNL     1      43.397 -21.720   1.673  1.00  0.00     0.039 C 
ENDBRANCH  26  27
ENDBRANCH  25  26
ENDBRANCH  24  25
ENDBRANCH  23  24
ENDBRANCH  20  23
ENDBRANCH  16  19
ENDBRANCH   1  16
TORSDOF 8
ENDMDL
