MODEL 1
REMARK VINA RESULT:      -9.1      0.000      0.000
REMARK  6 active torsions:
REMARK  status: ('A' for Active; 'I' for Inactive)
REMARK    1  A    between atoms: C_3  and  C_4 
REMARK    2  A    between atoms: C_4  and  N_5 
REMARK    3  A    between atoms: N_5  and  C_8 
REMARK    4  A    between atoms: C_8  and  C_9 
REMARK    5  A    between atoms: N_12  and  C_13 
REMARK    6  A    between atoms: C_28  and  O_29 
ROOT
HETATM    1  N   UNL     1      41.892 -14.438   2.102  1.00  0.00    -0.062 N 
HETATM    2  H   UNL     1      41.181 -14.160   2.790  1.00  0.00     0.278 HD
HETATM    3  H   UNL     1      41.532 -15.301   1.683  1.00  0.00     0.278 HD
ENDROOT
BRANCH   1   4
HETATM    4  C   UNL     1      41.914 -13.391   1.048  1.00  0.00     0.290 C 
BRANCH   4   5
HETATM    5  C   UNL     1      41.072 -13.817  -0.094  1.00  0.00     0.042 A 
HETATM    6  C   UNL     1      39.758 -13.509  -0.428  1.00  0.00    -0.025 A 
HETATM    7  C   UNL     1      38.803 -12.628   0.303  1.00  0.00     0.051 C 
HETATM    8  C   UNL     1      39.448 -14.233  -1.624  1.00  0.00     0.001 A 
HETATM    9  C   UNL     1      40.575 -14.965  -1.978  1.00  0.00     0.043 A 
HETATM   10  C   UNL     1      38.296 -14.345  -2.429  1.00  0.00     0.051 A 
HETATM   11  N   UNL     1      41.541 -14.705  -1.039  1.00  0.00    -0.357 N 
HETATM   12  C   UNL     1      40.611 -15.802  -3.099  1.00  0.00     0.033 A 
HETATM   13  H   UNL     1      42.454 -15.144  -1.051  1.00  0.00     0.166 HD
HETATM   14  C   UNL     1      39.450 -15.901  -3.878  1.00  0.00     0.039 A 
HETATM   15  C   UNL     1      38.298 -15.190  -3.548  1.00  0.00     0.069 A 
BRANCH  15  16
HETATM   16  O   UNL     1      37.113 -15.222  -4.231  1.00  0.00    -0.356 OA
HETATM   17  C   UNL     1      36.476 -13.973  -4.472  1.00  0.00     0.210 C 
ENDBRANCH  15  16
ENDBRANCH   4   5
ENDBRANCH   1   4
BRANCH   1  18
HETATM   18  C   UNL     1      43.163 -14.727   2.840  1.00  0.00     0.218 C 
HETATM   19  C   UNL     1      43.392 -13.691   3.936  1.00  0.00     0.045 C 
BRANCH  18  20
HETATM   20  C   UNL     1      43.221 -16.150   3.294  1.00  0.00     0.015 C 
HETATM   21  C   UNL     1      43.609 -17.275   2.566  1.00  0.00     0.042 C 
HETATM   22  C   UNL     1      44.036 -17.360   1.142  1.00  0.00     0.071 C 
HETATM   23  N   UNL     1      43.482 -18.374   3.425  1.00  0.00    -0.238 N 
HETATM   24  N   UNL     1      42.877 -17.989   4.581  1.00  0.00    -0.179 NA
HETATM   25  C   UNL     1      42.837 -16.667   4.544  1.00  0.00     0.150 C 
BRANCH  23  26
HETATM   26  C   UNL     1      43.841 -19.746   3.258  1.00  0.00     0.058 A 
HETATM   27  C   UNL     1      43.560 -20.461   2.088  1.00  0.00     0.031 A 
HETATM   28  C   UNL     1      43.934 -21.805   1.976  1.00  0.00     0.002 A 
HETATM   29  C   UNL     1      44.594 -22.443   3.023  1.00  0.00     0.000 A 
HETATM   30  C   UNL     1      44.900 -21.737   4.181  1.00  0.00     0.002 A 
HETATM   31  C   UNL     1      44.537 -20.393   4.295  1.00  0.00     0.031 A 
ENDBRANCH  23  26
ENDBRANCH  18  20
ENDBRANCH   1  18
TORSDOF 6
ENDMDL
MODEL 2
REMARK VINA RESULT:      -9.0      6.340      9.786
REMARK  6 active torsions:
REMARK  status: ('A' for Active; 'I' for Inactive)
REMARK    1  A    between atoms: C_3  and  C_4 
REMARK    2  A    between atoms: C_4  and  N_5 
REMARK    3  A    between atoms: N_5  and  C_8 
REMARK    4  A    between atoms: C_8  and  C_9 
REMARK    5  A    between atoms: N_12  and  C_13 
REMARK    6  A    between atoms: C_28  and  O_29 
ROOT
HETATM    1  N   UNL     1      43.984 -14.649   7.690  1.00  0.00    -0.062 N 
HETATM    2  H   UNL     1      44.525 -15.417   8.103  1.00  0.00     0.278 HD
HETATM    3  H   UNL     1      43.221 -14.476   8.353  1.00  0.00     0.278 HD
ENDROOT
BRANCH   1   4
HETATM    4  C   UNL     1      44.861 -13.450   7.679  1.00  0.00     0.290 C 
BRANCH   4   5
HETATM    5  C   UNL     1      44.304 -12.418   8.584  1.00  0.00     0.042 A 
HETATM    6  C   UNL     1      44.702 -11.997   9.848  1.00  0.00    -0.025 A 
HETATM    7  C   UNL     1      45.845 -12.491  10.668  1.00  0.00     0.051 C 
HETATM    8  C   UNL     1      43.774 -10.991  10.267  1.00  0.00     0.001 A 
HETATM    9  C   UNL     1      42.837 -10.833   9.253  1.00  0.00     0.043 A 
HETATM   10  C   UNL     1      43.638 -10.209  11.433  1.00  0.00     0.051 A 
HETATM   11  N   UNL     1      43.170 -11.707   8.250  1.00  0.00    -0.357 N 
HETATM   12  C   UNL     1      41.770  -9.930   9.344  1.00  0.00     0.033 A 
HETATM   13  H   UNL     1      42.622 -11.812   7.405  1.00  0.00     0.166 HD
HETATM   14  C   UNL     1      41.653  -9.172  10.516  1.00  0.00     0.039 A 
HETATM   15  C   UNL     1      42.569  -9.311  11.557  1.00  0.00     0.069 A 
BRANCH  15  16
HETATM   16  O   UNL     1      42.541  -8.630  12.744  1.00  0.00    -0.356 OA
HETATM   17  C   UNL     1      43.258  -9.203  13.831  1.00  0.00     0.210 C 
ENDBRANCH  15  16
ENDBRANCH   4   5
ENDBRANCH   1   4
BRANCH   1  18
HETATM   18  C   UNL     1      43.421 -15.127   6.386  1.00  0.00     0.218 C 
HETATM   19  C   UNL     1      43.596 -14.062   5.307  1.00  0.00     0.045 C 
BRANCH  18  20
HETATM   20  C   UNL     1      43.941 -16.480   6.027  1.00  0.00     0.015 C 
HETATM   21  C   UNL     1      43.445 -17.374   5.079  1.00  0.00     0.042 C 
HETATM   22  C   UNL     1      42.252 -17.230   4.199  1.00  0.00     0.071 C 
HETATM   23  N   UNL     1      44.268 -18.508   5.123  1.00  0.00    -0.238 N 
HETATM   24  N   UNL     1      45.133 -18.409   6.168  1.00  0.00    -0.179 NA
HETATM   25  C   UNL     1      45.016 -17.170   6.618  1.00  0.00     0.150 C 
BRANCH  23  26
HETATM   26  C   UNL     1      44.302 -19.678   4.307  1.00  0.00     0.058 A 
HETATM   27  C   UNL     1      44.014 -19.651   2.937  1.00  0.00     0.031 A 
HETATM   28  C   UNL     1      44.061 -20.829   2.183  1.00  0.00     0.002 A 
HETATM   29  C   UNL     1      44.401 -22.038   2.784  1.00  0.00     0.000 A 
HETATM   30  C   UNL     1      44.712 -22.074   4.139  1.00  0.00     0.002 A 
HETATM   31  C   UNL     1      44.674 -20.901   4.895  1.00  0.00     0.031 A 
ENDBRANCH  23  26
ENDBRANCH  18  20
ENDBRANCH   1  18
TORSDOF 6
ENDMDL
MODEL 3
REMARK VINA RESULT:      -9.0      1.619      2.628
REMARK  6 active torsions:
REMARK  status: ('A' for Active; 'I' for Inactive)
REMARK    1  A    between atoms: C_3  and  C_4 
REMARK    2  A    between atoms: C_4  and  N_5 
REMARK    3  A    between atoms: N_5  and  C_8 
REMARK    4  A    between atoms: C_8  and  C_9 
REMARK    5  A    between atoms: N_12  and  C_13 
REMARK    6  A    between atoms: C_28  and  O_29 
ROOT
HETATM    1  N   UNL     1      42.572 -13.612   3.743  1.00  0.00    -0.062 N 
HETATM    2  H   UNL     1      43.238 -13.814   2.987  1.00  0.00     0.278 HD
HETATM    3  H   UNL     1      43.053 -12.936   4.346  1.00  0.00     0.278 HD
ENDROOT
BRANCH   1   4
HETATM    4  C   UNL     1      41.406 -12.926   3.128  1.00  0.00     0.290 C 
BRANCH   4   5
HETATM    5  C   UNL     1      41.360 -13.225   1.678  1.00  0.00     0.042 A 
HETATM    6  C   UNL     1      40.664 -14.194   0.965  1.00  0.00    -0.025 A 
HETATM    7  C   UNL     1      39.735 -15.237   1.488  1.00  0.00     0.051 C 
HETATM    8  C   UNL     1      41.025 -14.042  -0.413  1.00  0.00     0.001 A 
HETATM    9  C   UNL     1      41.934 -12.994  -0.497  1.00  0.00     0.043 A 
HETATM   10  C   UNL     1      40.672 -14.719  -1.598  1.00  0.00     0.051 A 
HETATM   11  N   UNL     1      42.127 -12.519   0.776  1.00  0.00    -0.357 N 
HETATM   12  C   UNL     1      42.506 -12.585  -1.708  1.00  0.00     0.033 A 
HETATM   13  H   UNL     1      42.774 -11.769   0.992  1.00  0.00     0.166 HD
HETATM   14  C   UNL     1      42.144 -13.280  -2.869  1.00  0.00     0.039 A 
HETATM   15  C   UNL     1      41.244 -14.343  -2.821  1.00  0.00     0.069 A 
BRANCH  15  16
HETATM   16  O   UNL     1      40.832 -15.092  -3.889  1.00  0.00    -0.356 OA
HETATM   17  C   UNL     1      39.552 -15.707  -3.788  1.00  0.00     0.210 C 
ENDBRANCH  15  16
ENDBRANCH   4   5
ENDBRANCH   1   4
BRANCH   1  18
HETATM   18  C   UNL     1      42.328 -14.881   4.501  1.00  0.00     0.218 C 
HETATM   19  C   UNL     1      40.852 -15.012   4.863  1.00  0.00     0.045 C 
BRANCH  18  20
HETATM   20  C   UNL     1      42.911 -16.061   3.794  1.00  0.00     0.015 C 
HETATM   21  C   UNL     1      43.035 -17.372   4.256  1.00  0.00     0.042 C 
HETATM   22  C   UNL     1      42.649 -17.931   5.582  1.00  0.00     0.071 C 
HETATM   23  N   UNL     1      43.654 -18.103   3.234  1.00  0.00    -0.238 N 
HETATM   24  N   UNL     1      44.062 -17.262   2.246  1.00  0.00    -0.179 NA
HETATM   25  C   UNL     1      43.519 -16.088   2.526  1.00  0.00     0.150 C 
BRANCH  23  26
HETATM   26  C   UNL     1      43.927 -19.499   3.108  1.00  0.00     0.058 A 
HETATM   27  C   UNL     1      44.613 -20.224   4.090  1.00  0.00     0.031 A 
HETATM   28  C   UNL     1      44.855 -21.591   3.916  1.00  0.00     0.002 A 
HETATM   29  C   UNL     1      44.412 -22.247   2.770  1.00  0.00     0.000 A 
HETATM   30  C   UNL     1      43.709 -21.542   1.798  1.00  0.00     0.002 A 
HETATM   31  C   UNL     1      43.458 -20.179   1.970  1.00  0.00     0.031 A 
ENDBRANCH  23  26
ENDBRANCH  18  20
ENDBRANCH   1  18
TORSDOF 6
ENDMDL
MODEL 4
REMARK VINA RESULT:      -8.7      2.758      7.999
REMARK  6 active torsions:
REMARK  status: ('A' for Active; 'I' for Inactive)
REMARK    1  A    between atoms: C_3  and  C_4 
REMARK    2  A    between atoms: C_4  and  N_5 
REMARK    3  A    between atoms: N_5  and  C_8 
REMARK    4  A    between atoms: C_8  and  C_9 
REMARK    5  A    between atoms: N_12  and  C_13 
REMARK    6  A    between atoms: C_28  and  O_29 
ROOT
HETATM    1  N   UNL     1      41.572 -14.887   4.607  1.00  0.00    -0.062 N 
HETATM    2  H   UNL     1      41.197 -15.717   4.132  1.00  0.00     0.278 HD
HETATM    3  H   UNL     1      41.277 -14.986   5.584  1.00  0.00     0.278 HD
ENDROOT
BRANCH   1   4
HETATM    4  C   UNL     1      43.053 -14.988   4.565  1.00  0.00     0.290 C 
BRANCH   4   5
HETATM    5  C   UNL     1      43.450 -16.398   4.343  1.00  0.00     0.042 A 
HETATM    6  C   UNL     1      43.496 -17.164   3.184  1.00  0.00    -0.025 A 
HETATM    7  C   UNL     1      43.145 -16.756   1.793  1.00  0.00     0.051 C 
HETATM    8  C   UNL     1      43.923 -18.477   3.564  1.00  0.00     0.001 A 
HETATM    9  C   UNL     1      44.116 -18.474   4.941  1.00  0.00     0.043 A 
HETATM   10  C   UNL     1      44.144 -19.678   2.860  1.00  0.00     0.051 A 
HETATM   11  N   UNL     1      43.819 -17.212   5.392  1.00  0.00    -0.357 N 
HETATM   12  C   UNL     1      44.523 -19.611   5.649  1.00  0.00     0.033 A 
HETATM   13  H   UNL     1      43.850 -16.955   6.371  1.00  0.00     0.166 HD
HETATM   14  C   UNL     1      44.729 -20.793   4.926  1.00  0.00     0.039 A 
HETATM   15  C   UNL     1      44.535 -20.835   3.546  1.00  0.00     0.069 A 
BRANCH  15  16
HETATM   16  O   UNL     1      44.697 -21.935   2.748  1.00  0.00    -0.356 OA
HETATM   17  C   UNL     1      44.034 -21.919   1.489  1.00  0.00     0.210 C 
ENDBRANCH  15  16
ENDBRANCH   4   5
ENDBRANCH   1   4
BRANCH   1  18
HETATM   18  C   UNL     1      40.927 -13.676   4.006  1.00  0.00     0.218 C 
HETATM   19  C   UNL     1      41.437 -12.408   4.682  1.00  0.00     0.045 C 
BRANCH  18  20
HETATM   20  C   UNL     1      41.032 -13.682   2.515  1.00  0.00     0.015 C 
HETATM   21  C   UNL     1      40.279 -14.416   1.598  1.00  0.00     0.042 C 
HETATM   22  C   UNL     1      39.197 -15.405   1.863  1.00  0.00     0.071 C 
HETATM   23  N   UNL     1      40.761 -14.086   0.325  1.00  0.00    -0.238 N 
HETATM   24  N   UNL     1      41.879 -13.319   0.439  1.00  0.00    -0.179 NA
HETATM   25  C   UNL     1      41.961 -12.989   1.718  1.00  0.00     0.150 C 
BRANCH  23  26
HETATM   26  C   UNL     1      40.299 -14.443  -0.978  1.00  0.00     0.058 A 
HETATM   27  C   UNL     1      39.185 -13.839  -1.574  1.00  0.00     0.031 A 
HETATM   28  C   UNL     1      38.774 -14.227  -2.854  1.00  0.00     0.002 A 
HETATM   29  C   UNL     1      39.470 -15.210  -3.551  1.00  0.00     0.000 A 
HETATM   30  C   UNL     1      40.593 -15.800  -2.980  1.00  0.00     0.002 A 
HETATM   31  C   UNL     1      41.013 -15.412  -1.706  1.00  0.00     0.031 A 
ENDBRANCH  23  26
ENDBRANCH  18  20
ENDBRANCH   1  18
TORSDOF 6
ENDMDL
MODEL 5
REMARK VINA RESULT:      -8.6      2.486      3.129
REMARK  6 active torsions:
REMARK  status: ('A' for Active; 'I' for Inactive)
REMARK    1  A    between atoms: C_3  and  C_4 
REMARK    2  A    between atoms: C_4  and  N_5 
REMARK    3  A    between atoms: N_5  and  C_8 
REMARK    4  A    between atoms: C_8  and  C_9 
REMARK    5  A    between atoms: N_12  and  C_13 
REMARK    6  A    between atoms: C_28  and  O_29 
ROOT
HETATM    1  N   UNL     1      41.608 -14.511   2.192  1.00  0.00    -0.062 N 
HETATM    2  H   UNL     1      41.574 -13.494   2.053  1.00  0.00     0.278 HD
HETATM    3  H   UNL     1      40.852 -14.712   2.855  1.00  0.00     0.278 HD
ENDROOT
BRANCH   1   4
HETATM    4  C   UNL     1      41.257 -15.143   0.894  1.00  0.00     0.290 C 
BRANCH   4   5
HETATM    5  C   UNL     1      41.516 -14.190  -0.210  1.00  0.00     0.042 A 
HETATM    6  C   UNL     1      41.348 -14.314  -1.585  1.00  0.00    -0.025 A 
HETATM    7  C   UNL     1      40.837 -15.487  -2.350  1.00  0.00     0.051 C 
HETATM    8  C   UNL     1      41.794 -13.088  -2.175  1.00  0.00     0.001 A 
HETATM    9  C   UNL     1      42.228 -12.259  -1.147  1.00  0.00     0.043 A 
HETATM   10  C   UNL     1      41.886 -12.615  -3.500  1.00  0.00     0.051 A 
HETATM   11  N   UNL     1      42.058 -12.945   0.030  1.00  0.00    -0.357 N 
HETATM   12  C   UNL     1      42.746 -10.979  -1.376  1.00  0.00     0.033 A 
HETATM   13  H   UNL     1      42.329 -12.570   0.931  1.00  0.00     0.166 HD
HETATM   14  C   UNL     1      42.834 -10.537  -2.702  1.00  0.00     0.039 A 
HETATM   15  C   UNL     1      42.418 -11.345  -3.759  1.00  0.00     0.069 A 
BRANCH  15  16
HETATM   16  O   UNL     1      42.469 -11.016  -5.087  1.00  0.00    -0.356 OA
HETATM   17  C   UNL     1      42.383  -9.633  -5.411  1.00  0.00     0.210 C 
ENDBRANCH  15  16
ENDBRANCH   4   5
ENDBRANCH   1   4
BRANCH   1  18
HETATM   18  C   UNL     1      42.928 -14.851   2.812  1.00  0.00     0.218 C 
HETATM   19  C   UNL     1      43.293 -13.830   3.884  1.00  0.00     0.045 C 
BRANCH  18  20
HETATM   20  C   UNL     1      42.974 -16.277   3.256  1.00  0.00     0.015 C 
HETATM   21  C   UNL     1      43.551 -17.367   2.607  1.00  0.00     0.042 C 
HETATM   22  C   UNL     1      44.246 -17.404   1.289  1.00  0.00     0.071 C 
HETATM   23  N   UNL     1      43.322 -18.488   3.416  1.00  0.00    -0.238 N 
HETATM   24  N   UNL     1      42.488 -18.155   4.438  1.00  0.00    -0.179 NA
HETATM   25  C   UNL     1      42.385 -16.836   4.405  1.00  0.00     0.150 C 
BRANCH  23  26
HETATM   26  C   UNL     1      43.778 -19.836   3.309  1.00  0.00     0.058 A 
HETATM   27  C   UNL     1      43.627 -20.592   2.140  1.00  0.00     0.031 A 
HETATM   28  C   UNL     1      44.091 -21.911   2.088  1.00  0.00     0.002 A 
HETATM   29  C   UNL     1      44.714 -22.484   3.194  1.00  0.00     0.000 A 
HETATM   30  C   UNL     1      44.891 -21.735   4.353  1.00  0.00     0.002 A 
HETATM   31  C   UNL     1      44.436 -20.416   4.408  1.00  0.00     0.031 A 
ENDBRANCH  23  26
ENDBRANCH  18  20
ENDBRANCH   1  18
TORSDOF 6
ENDMDL
MODEL 6
REMARK VINA RESULT:      -8.5      3.178      8.213
REMARK  6 active torsions:
REMARK  status: ('A' for Active; 'I' for Inactive)
REMARK    1  A    between atoms: C_3  and  C_4 
REMARK    2  A    between atoms: C_4  and  N_5 
REMARK    3  A    between atoms: N_5  and  C_8 
REMARK    4  A    between atoms: C_8  and  C_9 
REMARK    5  A    between atoms: N_12  and  C_13 
REMARK    6  A    between atoms: C_28  and  O_29 
ROOT
HETATM    1  N   UNL     1      39.843 -15.143   4.868  1.00  0.00    -0.062 N 
HETATM    2  H   UNL     1      39.967 -15.824   4.110  1.00  0.00     0.278 HD
HETATM    3  H   UNL     1      38.905 -15.326   5.239  1.00  0.00     0.278 HD
ENDROOT
BRANCH   1   4
HETATM    4  C   UNL     1      40.827 -15.484   5.928  1.00  0.00     0.290 C 
BRANCH   4   5
HETATM    5  C   UNL     1      41.674 -16.613   5.477  1.00  0.00     0.042 A 
HETATM    6  C   UNL     1      42.531 -17.452   6.179  1.00  0.00    -0.025 A 
HETATM    7  C   UNL     1      42.841 -17.444   7.638  1.00  0.00     0.051 C 
HETATM    8  C   UNL     1      43.118 -18.345   5.227  1.00  0.00     0.001 A 
HETATM    9  C   UNL     1      42.610 -18.019   3.975  1.00  0.00     0.043 A 
HETATM   10  C   UNL     1      44.056 -19.394   5.317  1.00  0.00     0.051 A 
HETATM   11  N   UNL     1      41.745 -16.968   4.147  1.00  0.00    -0.357 N 
HETATM   12  C   UNL     1      42.989 -18.692   2.807  1.00  0.00     0.033 A 
HETATM   13  H   UNL     1      41.263 -16.519   3.377  1.00  0.00     0.166 HD
HETATM   14  C   UNL     1      43.929 -19.724   2.923  1.00  0.00     0.039 A 
HETATM   15  C   UNL     1      44.468 -20.072   4.161  1.00  0.00     0.069 A 
BRANCH  15  16
HETATM   16  O   UNL     1      45.395 -21.053   4.384  1.00  0.00    -0.356 OA
HETATM   17  C   UNL     1      44.973 -22.174   5.153  1.00  0.00     0.210 C 
ENDBRANCH  15  16
ENDBRANCH   4   5
ENDBRANCH   1   4
BRANCH   1  18
HETATM   18  C   UNL     1      39.892 -13.769   4.272  1.00  0.00     0.218 C 
HETATM   19  C   UNL     1      40.490 -12.778   5.265  1.00  0.00     0.045 C 
BRANCH  18  20
HETATM   20  C   UNL     1      40.536 -13.779   2.925  1.00  0.00     0.015 C 
HETATM   21  C   UNL     1      39.984 -14.171   1.705  1.00  0.00     0.042 C 
HETATM   22  C   UNL     1      38.623 -14.709   1.430  1.00  0.00     0.071 C 
HETATM   23  N   UNL     1      40.985 -14.008   0.738  1.00  0.00    -0.238 N 
HETATM   24  N   UNL     1      42.164 -13.699   1.342  1.00  0.00    -0.179 NA
HETATM   25  C   UNL     1      41.866 -13.450   2.607  1.00  0.00     0.150 C 
BRANCH  23  26
HETATM   26  C   UNL     1      40.952 -14.145  -0.682  1.00  0.00     0.058 A 
HETATM   27  C   UNL     1      41.013 -15.389  -1.322  1.00  0.00     0.031 A 
HETATM   28  C   UNL     1      40.979 -15.466  -2.719  1.00  0.00     0.002 A 
HETATM   29  C   UNL     1      40.877 -14.309  -3.487  1.00  0.00     0.000 A 
HETATM   30  C   UNL     1      40.791 -13.069  -2.863  1.00  0.00     0.002 A 
HETATM   31  C   UNL     1      40.818 -12.987  -1.469  1.00  0.00     0.031 A 
ENDBRANCH  23  26
ENDBRANCH  18  20
ENDBRANCH   1  18
TORSDOF 6
ENDMDL
MODEL 7
REMARK VINA RESULT:      -8.4      3.279      8.133
REMARK  6 active torsions:
REMARK  status: ('A' for Active; 'I' for Inactive)
REMARK    1  A    between atoms: C_3  and  C_4 
REMARK    2  A    between atoms: C_4  and  N_5 
REMARK    3  A    between atoms: N_5  and  C_8 
REMARK    4  A    between atoms: C_8  and  C_9 
REMARK    5  A    between atoms: N_12  and  C_13 
REMARK    6  A    between atoms: C_28  and  O_29 
ROOT
HETATM    1  N   UNL     1      41.265 -14.577   6.264  1.00  0.00    -0.062 N 
HETATM    2  H   UNL     1      41.203 -14.336   7.261  1.00  0.00     0.278 HD
HETATM    3  H   UNL     1      42.266 -14.708   6.085  1.00  0.00     0.278 HD
ENDROOT
BRANCH   1   4
HETATM    4  C   UNL     1      40.593 -15.890   6.088  1.00  0.00     0.290 C 
BRANCH   4   5
HETATM    5  C   UNL     1      41.541 -16.858   5.491  1.00  0.00     0.042 A 
HETATM    6  C   UNL     1      41.728 -17.264   4.175  1.00  0.00    -0.025 A 
HETATM    7  C   UNL     1      40.995 -16.814   2.956  1.00  0.00     0.051 C 
HETATM    8  C   UNL     1      42.764 -18.253   4.183  1.00  0.00     0.001 A 
HETATM    9  C   UNL     1      43.170 -18.426   5.501  1.00  0.00     0.043 A 
HETATM   10  C   UNL     1      43.381 -19.033   3.184  1.00  0.00     0.051 A 
HETATM   11  N   UNL     1      42.416 -17.580   6.275  1.00  0.00    -0.357 N 
HETATM   12  C   UNL     1      44.166 -19.338   5.871  1.00  0.00     0.033 A 
HETATM   13  H   UNL     1      42.496 -17.537   7.284  1.00  0.00     0.166 HD
HETATM   14  C   UNL     1      44.757 -20.106   4.860  1.00  0.00     0.039 A 
HETATM   15  C   UNL     1      44.368 -19.967   3.529  1.00  0.00     0.069 A 
BRANCH  15  16
HETATM   16  O   UNL     1      44.871 -20.672   2.469  1.00  0.00    -0.356 OA
HETATM   17  C   UNL     1      44.378 -21.994   2.284  1.00  0.00     0.210 C 
ENDBRANCH  15  16
ENDBRANCH   4   5
ENDBRANCH   1   4
BRANCH   1  18
HETATM   18  C   UNL     1      40.759 -13.410   5.472  1.00  0.00     0.218 C 
HETATM   19  C   UNL     1      40.780 -12.141   6.319  1.00  0.00     0.045 C 
BRANCH  18  20
HETATM   20  C   UNL     1      41.454 -13.300   4.154  1.00  0.00     0.015 C 
HETATM   21  C   UNL     1      40.894 -13.063   2.899  1.00  0.00     0.042 C 
HETATM   22  C   UNL     1      39.460 -12.888   2.538  1.00  0.00     0.071 C 
HETATM   23  N   UNL     1      41.952 -13.060   1.979  1.00  0.00    -0.238 N 
HETATM   24  N   UNL     1      43.099 -13.451   2.595  1.00  0.00    -0.179 NA
HETATM   25  C   UNL     1      42.824 -13.474   3.890  1.00  0.00     0.150 C 
BRANCH  23  26
HETATM   26  C   UNL     1      41.985 -12.759   0.584  1.00  0.00     0.058 A 
HETATM   27  C   UNL     1      42.277 -11.480   0.096  1.00  0.00     0.031 A 
HETATM   28  C   UNL     1      42.296 -11.239  -1.282  1.00  0.00     0.002 A 
HETATM   29  C   UNL     1      42.032 -12.268  -2.183  1.00  0.00     0.000 A 
HETATM   30  C   UNL     1      41.765 -13.548  -1.710  1.00  0.00     0.002 A 
HETATM   31  C   UNL     1      41.752 -13.797  -0.336  1.00  0.00     0.031 A 
ENDBRANCH  23  26
ENDBRANCH  18  20
ENDBRANCH   1  18
TORSDOF 6
ENDMDL
MODEL 8
REMARK VINA RESULT:      -8.3      2.170      2.961
REMARK  6 active torsions:
REMARK  status: ('A' for Active; 'I' for Inactive)
REMARK    1  A    between atoms: C_3  and  C_4 
REMARK    2  A    between atoms: C_4  and  N_5 
REMARK    3  A    between atoms: N_5  and  C_8 
REMARK    4  A    between atoms: C_8  and  C_9 
REMARK    5  A    between atoms: N_12  and  C_13 
REMARK    6  A    between atoms: C_28  and  O_29 
ROOT
HETATM    1  N   UNL     1      42.597 -13.989   3.811  1.00  0.00    -0.062 N 
HETATM    2  H   UNL     1      42.596 -14.852   3.253  1.00  0.00     0.278 HD
HETATM    3  H   UNL     1      43.549 -13.618   3.722  1.00  0.00     0.278 HD
ENDROOT
BRANCH   1   4
HETATM    4  C   UNL     1      41.672 -13.036   3.146  1.00  0.00     0.290 C 
BRANCH   4   5
HETATM    5  C   UNL     1      41.547 -13.382   1.711  1.00  0.00     0.042 A 
HETATM    6  C   UNL     1      40.916 -14.446   1.078  1.00  0.00    -0.025 A 
HETATM    7  C   UNL     1      40.161 -15.573   1.698  1.00  0.00     0.051 C 
HETATM    8  C   UNL     1      41.145 -14.296  -0.327  1.00  0.00     0.001 A 
HETATM    9  C   UNL     1      41.915 -13.152  -0.508  1.00  0.00     0.043 A 
HETATM   10  C   UNL     1      40.782 -15.045  -1.465  1.00  0.00     0.051 A 
HETATM   11  N   UNL     1      42.151 -12.619   0.734  1.00  0.00    -0.357 N 
HETATM   12  C   UNL     1      42.336 -12.717  -1.770  1.00  0.00     0.033 A 
HETATM   13  H   UNL     1      42.719 -11.794   0.881  1.00  0.00     0.166 HD
HETATM   14  C   UNL     1      41.968 -13.484  -2.883  1.00  0.00     0.039 A 
HETATM   15  C   UNL     1      41.206 -14.641  -2.739  1.00  0.00     0.069 A 
BRANCH  15  16
HETATM   16  O   UNL     1      40.802 -15.466  -3.754  1.00  0.00    -0.356 OA
HETATM   17  C   UNL     1      39.401 -15.682  -3.887  1.00  0.00     0.210 C 
ENDBRANCH  15  16
ENDBRANCH   4   5
ENDBRANCH   1   4
BRANCH   1  18
HETATM   18  C   UNL     1      42.330 -14.357   5.238  1.00  0.00     0.218 C 
HETATM   19  C   UNL     1      40.829 -14.392   5.508  1.00  0.00     0.045 C 
BRANCH  18  20
HETATM   20  C   UNL     1      43.071 -15.593   5.633  1.00  0.00     0.015 C 
HETATM   21  C   UNL     1      42.810 -16.913   5.265  1.00  0.00     0.042 C 
HETATM   22  C   UNL     1      41.710 -17.440   4.410  1.00  0.00     0.071 C 
HETATM   23  N   UNL     1      43.774 -17.708   5.899  1.00  0.00    -0.238 N 
HETATM   24  N   UNL     1      44.499 -16.950   6.764  1.00  0.00    -0.179 NA
HETATM   25  C   UNL     1      44.162 -15.695   6.515  1.00  0.00     0.150 C 
BRANCH  23  26
HETATM   26  C   UNL     1      44.059 -19.102   5.797  1.00  0.00     0.058 A 
HETATM   27  C   UNL     1      43.674 -20.024   6.778  1.00  0.00     0.031 A 
HETATM   28  C   UNL     1      43.980 -21.381   6.629  1.00  0.00     0.002 A 
HETATM   29  C   UNL     1      44.664 -21.831   5.503  1.00  0.00     0.000 A 
HETATM   30  C   UNL     1      45.031 -20.929   4.510  1.00  0.00     0.002 A 
HETATM   31  C   UNL     1      44.722 -19.574   4.650  1.00  0.00     0.031 A 
ENDBRANCH  23  26
ENDBRANCH  18  20
ENDBRANCH   1  18
TORSDOF 6
ENDMDL
MODEL 9
REMARK VINA RESULT:      -8.1      2.672      7.435
REMARK  6 active torsions:
REMARK  status: ('A' for Active; 'I' for Inactive)
REMARK    1  A    between atoms: C_3  and  C_4 
REMARK    2  A    between atoms: C_4  and  N_5 
REMARK    3  A    between atoms: N_5  and  C_8 
REMARK    4  A    between atoms: C_8  and  C_9 
REMARK    5  A    between atoms: N_12  and  C_13 
REMARK    6  A    between atoms: C_28  and  O_29 
ROOT
HETATM    1  N   UNL     1      42.416 -12.576   3.916  1.00  0.00    -0.062 N 
HETATM    2  H   UNL     1      42.681 -11.612   4.151  1.00  0.00     0.278 HD
HETATM    3  H   UNL     1      42.783 -12.729   2.971  1.00  0.00     0.278 HD
ENDROOT
BRANCH   1   4
HETATM    4  C   UNL     1      43.154 -13.472   4.843  1.00  0.00     0.290 C 
BRANCH   4   5
HETATM    5  C   UNL     1      43.244 -14.830   4.258  1.00  0.00     0.042 A 
HETATM    6  C   UNL     1      43.159 -16.087   4.844  1.00  0.00    -0.025 A 
HETATM    7  C   UNL     1      42.944 -16.423   6.281  1.00  0.00     0.051 C 
HETATM    8  C   UNL     1      43.353 -17.051   3.803  1.00  0.00     0.001 A 
HETATM    9  C   UNL     1      43.557 -16.354   2.617  1.00  0.00     0.043 A 
HETATM   10  C   UNL     1      43.391 -18.460   3.767  1.00  0.00     0.051 A 
HETATM   11  N   UNL     1      43.493 -15.016   2.914  1.00  0.00    -0.357 N 
HETATM   12  C   UNL     1      43.794 -16.995   1.396  1.00  0.00     0.033 A 
HETATM   13  H   UNL     1      43.643 -14.290   2.224  1.00  0.00     0.166 HD
HETATM   14  C   UNL     1      43.836 -18.395   1.389  1.00  0.00     0.039 A 
HETATM   15  C   UNL     1      43.645 -19.127   2.560  1.00  0.00     0.069 A 
BRANCH  15  16
HETATM   16  O   UNL     1      43.675 -20.491   2.667  1.00  0.00    -0.356 OA
HETATM   17  C   UNL     1      44.702 -21.050   3.478  1.00  0.00     0.210 C 
ENDBRANCH  15  16
ENDBRANCH   4   5
ENDBRANCH   1   4
BRANCH   1  18
HETATM   18  C   UNL     1      40.920 -12.655   3.896  1.00  0.00     0.218 C 
HETATM   19  C   UNL     1      40.310 -11.270   4.087  1.00  0.00     0.045 C 
BRANCH  18  20
HETATM   20  C   UNL     1      40.427 -13.401   2.699  1.00  0.00     0.015 C 
HETATM   21  C   UNL     1      40.735 -13.182   1.356  1.00  0.00     0.042 C 
HETATM   22  C   UNL     1      41.609 -12.133   0.761  1.00  0.00     0.071 C 
HETATM   23  N   UNL     1      40.017 -14.132   0.617  1.00  0.00    -0.238 N 
HETATM   24  N   UNL     1      39.161 -14.802   1.435  1.00  0.00    -0.179 NA
HETATM   25  C   UNL     1      39.492 -14.452   2.668  1.00  0.00     0.150 C 
BRANCH  23  26
HETATM   26  C   UNL     1      40.031 -14.449  -0.774  1.00  0.00     0.058 A 
HETATM   27  C   UNL     1      41.012 -15.264  -1.352  1.00  0.00     0.031 A 
HETATM   28  C   UNL     1      40.980 -15.543  -2.722  1.00  0.00     0.002 A 
HETATM   29  C   UNL     1      39.970 -15.020  -3.526  1.00  0.00     0.000 A 
HETATM   30  C   UNL     1      38.977 -14.228  -2.960  1.00  0.00     0.002 A 
HETATM   31  C   UNL     1      38.999 -13.953  -1.591  1.00  0.00     0.031 A 
ENDBRANCH  23  26
ENDBRANCH  18  20
ENDBRANCH   1  18
TORSDOF 6
ENDMDL
MODEL 10
REMARK VINA RESULT:      -8.1      2.595      3.536
REMARK  6 active torsions:
REMARK  status: ('A' for Active; 'I' for Inactive)
REMARK    1  A    between atoms: C_3  and  C_4 
REMARK    2  A    between atoms: C_4  and  N_5 
REMARK    3  A    between atoms: N_5  and  C_8 
REMARK    4  A    between atoms: C_8  and  C_9 
REMARK    5  A    between atoms: N_12  and  C_13 
REMARK    6  A    between atoms: C_28  and  O_29 
ROOT
HETATM    1  N   UNL     1      39.917 -15.142   3.490  1.00  0.00    -0.062 N 
HETATM    2  H   UNL     1      39.396 -14.263   3.600  1.00  0.00     0.278 HD
HETATM    3  H   UNL     1      39.476 -15.795   4.147  1.00  0.00     0.278 HD
ENDROOT
BRANCH   1   4
HETATM    4  C   UNL     1      39.660 -15.636   2.113  1.00  0.00     0.290 C 
BRANCH   4   5
HETATM    5  C   UNL     1      40.177 -14.657   1.129  1.00  0.00     0.042 A 
HETATM    6  C   UNL     1      40.908 -14.834  -0.040  1.00  0.00    -0.025 A 
HETATM    7  C   UNL     1      41.389 -16.109  -0.645  1.00  0.00     0.051 C 
HETATM    8  C   UNL     1      41.165 -13.531  -0.576  1.00  0.00     0.001 A 
HETATM    9  C   UNL     1      40.591 -12.601   0.283  1.00  0.00     0.043 A 
HETATM   10  C   UNL     1      41.854 -13.057  -1.712  1.00  0.00     0.051 A 
HETATM   11  N   UNL     1      40.005 -13.301   1.308  1.00  0.00    -0.357 N 
HETATM   12  C   UNL     1      40.667 -11.221   0.063  1.00  0.00     0.033 A 
HETATM   13  H   UNL     1      39.543 -12.851   2.089  1.00  0.00     0.166 HD
HETATM   14  C   UNL     1      41.365 -10.777  -1.068  1.00  0.00     0.039 A 
HETATM   15  C   UNL     1      41.961 -11.679  -1.946  1.00  0.00     0.069 A 
BRANCH  15  16
HETATM   16  O   UNL     1      42.671 -11.354  -3.070  1.00  0.00    -0.356 OA
HETATM   17  C   UNL     1      42.283 -10.168  -3.755  1.00  0.00     0.210 C 
ENDBRANCH  15  16
ENDBRANCH   4   5
ENDBRANCH   1   4
BRANCH   1  18
HETATM   18  C   UNL     1      41.336 -14.895   3.901  1.00  0.00     0.218 C 
HETATM   19  C   UNL     1      41.414 -14.586   5.393  1.00  0.00     0.045 C 
BRANCH  18  20
HETATM   20  C   UNL     1      42.240 -15.990   3.436  1.00  0.00     0.015 C 
HETATM   21  C   UNL     1      42.267 -17.322   3.847  1.00  0.00     0.042 C 
HETATM   22  C   UNL     1      41.426 -17.996   4.876  1.00  0.00     0.071 C 
HETATM   23  N   UNL     1      43.296 -17.946   3.129  1.00  0.00    -0.238 N 
HETATM   24  N   UNL     1      44.000 -17.015   2.430  1.00  0.00    -0.179 NA
HETATM   25  C   UNL     1      43.304 -15.893   2.521  1.00  0.00     0.150 C 
BRANCH  23  26
HETATM   26  C   UNL     1      43.700 -19.313   3.059  1.00  0.00     0.058 A 
HETATM   27  C   UNL     1      44.434 -19.935   4.076  1.00  0.00     0.031 A 
HETATM   28  C   UNL     1      44.806 -21.279   3.957  1.00  0.00     0.002 A 
HETATM   29  C   UNL     1      44.446 -22.013   2.830  1.00  0.00     0.000 A 
HETATM   30  C   UNL     1      43.697 -21.413   1.824  1.00  0.00     0.002 A 
HETATM   31  C   UNL     1      43.316 -20.074   1.941  1.00  0.00     0.031 A 
ENDBRANCH  23  26
ENDBRANCH  18  20
ENDBRANCH   1  18
TORSDOF 6
ENDMDL
