MODEL 1
REMARK VINA RESULT:      -8.4      0.000      0.000
REMARK  3 active torsions:
REMARK  status: ('A' for Active; 'I' for Inactive)
REMARK    1  A    between atoms: C_4  and  N_5 
REMARK       I    between atoms: N_5  and  C_6 
REMARK    2  A    between atoms: C_6  and  C_7 
REMARK    3  A    between atoms: C_7  and  C_8 
ROOT
HETATM    1  C   UNL     1      41.546 -16.672   4.663  1.00  0.00     0.286 C 
HETATM    2  N   UNL     1      41.071 -15.685   3.587  1.00  0.00    -0.056 N 
HETATM    3  H   UNL     1      41.807 -15.608   2.860  1.00  0.00     0.278 HD
HETATM    4  H   UNL     1      40.241 -16.072   3.121  1.00  0.00     0.278 HD
HETATM    5  C   UNL     1      40.786 -14.291   4.084  1.00  0.00     0.209 C 
HETATM    6  C   UNL     1      39.868 -14.367   5.318  1.00  0.00     0.115 C 
HETATM    7  N   UNL     1      40.460 -15.190   6.358  1.00  0.00    -0.353 N 
HETATM    8  C   UNL     1      41.074 -16.386   6.100  1.00  0.00     0.249 C 
HETATM    9  O   UNL     1      41.253 -17.193   7.007  1.00  0.00    -0.271 OA
HETATM   10  C   UNL     1      40.151 -13.472   2.964  1.00  0.00     0.035 C 
HETATM   11  C   UNL     1      39.815 -12.066   3.459  1.00  0.00     0.002 C 
HETATM   12  C   UNL     1      38.952 -12.090   4.720  1.00  0.00     0.002 C 
HETATM   13  C   UNL     1      39.561 -12.956   5.825  1.00  0.00     0.027 C 
HETATM   14  H   UNL     1      40.111 -15.114   7.312  1.00  0.00     0.163 HD
ENDROOT
BRANCH   1  15
HETATM   15  C   UNL     1      43.053 -16.929   4.598  1.00  0.00     0.146 C 
BRANCH  15  16
HETATM   16  C   UNL     1      43.544 -16.943   3.183  1.00  0.00     0.224 C 
HETATM   17  N   UNL     1      43.968 -18.022   2.493  1.00  0.00    -0.327 N 
HETATM   18  H   UNL     1      44.267 -17.740   1.561  1.00  0.00     0.169 HD
HETATM   19  O   UNL     1      43.691 -15.829   2.650  1.00  0.00    -0.273 OA
BRANCH  17  20
HETATM   20  C   UNL     1      44.096 -19.405   2.728  1.00  0.00     0.035 A 
HETATM   21  C   UNL     1      44.581 -20.012   3.884  1.00  0.00     0.036 A 
HETATM   22  C   UNL     1      44.683 -21.413   3.985  1.00  0.00    -0.060 A 
HETATM   23  C   UNL     1      45.179 -22.055   5.250  1.00  0.00     0.048 C 
HETATM   24  C   UNL     1      44.269 -22.215   2.919  1.00  0.00     0.007 A 
HETATM   25  C   UNL     1      43.771 -21.627   1.763  1.00  0.00     0.003 A 
HETATM   26  C   UNL     1      43.686 -20.236   1.671  1.00  0.00     0.029 A 
ENDBRANCH  17  20
ENDBRANCH  15  16
ENDBRANCH   1  15
TORSDOF 3
ENDMDL
MODEL 2
REMARK VINA RESULT:      -8.3      1.779      3.015
REMARK  3 active torsions:
REMARK  status: ('A' for Active; 'I' for Inactive)
REMARK    1  A    between atoms: C_4  and  N_5 
REMARK       I    between atoms: N_5  and  C_6 
REMARK    2  A    between atoms: C_6  and  C_7 
REMARK    3  A    between atoms: C_7  and  C_8 
ROOT
HETATM    1  C   UNL     1      41.963 -16.468   2.832  1.00  0.00     0.286 C 
HETATM    2  N   UNL     1      41.771 -14.997   3.225  1.00  0.00    -0.056 N 
HETATM    3  H   UNL     1      42.005 -14.888   4.230  1.00  0.00     0.278 HD
HETATM    4  H   UNL     1      42.445 -14.421   2.705  1.00  0.00     0.278 HD
HETATM    5  C   UNL     1      40.374 -14.464   3.032  1.00  0.00     0.209 C 
HETATM    6  C   UNL     1      39.890 -14.804   1.611  1.00  0.00     0.115 C 
HETATM    7  N   UNL     1      39.950 -16.236   1.369  1.00  0.00    -0.353 N 
HETATM    8  C   UNL     1      41.013 -17.010   1.749  1.00  0.00     0.249 C 
HETATM    9  O   UNL     1      41.181 -18.115   1.242  1.00  0.00    -0.271 OA
HETATM   10  C   UNL     1      40.366 -12.958   3.280  1.00  0.00     0.035 C 
HETATM   11  C   UNL     1      38.967 -12.390   3.049  1.00  0.00     0.002 C 
HETATM   12  C   UNL     1      38.418 -12.753   1.669  1.00  0.00     0.002 C 
HETATM   13  C   UNL     1      38.476 -14.258   1.398  1.00  0.00     0.027 C 
HETATM   14  H   UNL     1      39.419 -16.632   0.596  1.00  0.00     0.163 HD
ENDROOT
BRANCH   1  15
HETATM   15  C   UNL     1      42.029 -17.396   4.048  1.00  0.00     0.146 C 
BRANCH  15  16
HETATM   16  C   UNL     1      43.367 -17.325   4.717  1.00  0.00     0.224 C 
HETATM   17  N   UNL     1      44.269 -18.325   4.810  1.00  0.00    -0.327 N 
HETATM   18  H   UNL     1      45.081 -18.008   5.337  1.00  0.00     0.169 HD
HETATM   19  O   UNL     1      43.601 -16.282   5.352  1.00  0.00    -0.273 OA
BRANCH  17  20
HETATM   20  C   UNL     1      44.370 -19.660   4.372  1.00  0.00     0.035 A 
HETATM   21  C   UNL     1      44.215 -20.123   3.068  1.00  0.00     0.036 A 
HETATM   22  C   UNL     1      44.315 -21.495   2.764  1.00  0.00    -0.060 A 
HETATM   23  C   UNL     1      44.176 -21.977   1.347  1.00  0.00     0.048 C 
HETATM   24  C   UNL     1      44.599 -22.409   3.781  1.00  0.00     0.007 A 
HETATM   25  C   UNL     1      44.768 -21.963   5.085  1.00  0.00     0.003 A 
HETATM   26  C   UNL     1      44.655 -20.602   5.375  1.00  0.00     0.029 A 
ENDBRANCH  17  20
ENDBRANCH  15  16
ENDBRANCH   1  15
TORSDOF 3
ENDMDL
MODEL 3
REMARK VINA RESULT:      -8.2      2.488      3.457
REMARK  3 active torsions:
REMARK  status: ('A' for Active; 'I' for Inactive)
REMARK    1  A    between atoms: C_4  and  N_5 
REMARK       I    between atoms: N_5  and  C_6 
REMARK    2  A    between atoms: C_6  and  C_7 
REMARK    3  A    between atoms: C_7  and  C_8 
ROOT
HETATM    1  C   UNL     1      43.681 -15.884   7.081  1.00  0.00     0.286 C 
HETATM    2  N   UNL     1      42.358 -16.173   6.358  1.00  0.00    -0.056 N 
HETATM    3  H   UNL     1      42.387 -17.141   5.986  1.00  0.00     0.278 HD
HETATM    4  H   UNL     1      41.590 -16.146   7.040  1.00  0.00     0.278 HD
HETATM    5  C   UNL     1      42.054 -15.259   5.198  1.00  0.00     0.209 C 
HETATM    6  C   UNL     1      42.221 -13.795   5.645  1.00  0.00     0.115 C 
HETATM    7  N   UNL     1      43.555 -13.559   6.172  1.00  0.00    -0.353 N 
HETATM    8  C   UNL     1      44.183 -14.431   7.020  1.00  0.00     0.249 C 
HETATM    9  O   UNL     1      45.135 -14.052   7.695  1.00  0.00    -0.271 OA
HETATM   10  C   UNL     1      40.641 -15.532   4.693  1.00  0.00     0.035 C 
HETATM   11  C   UNL     1      40.297 -14.587   3.543  1.00  0.00     0.002 C 
HETATM   12  C   UNL     1      40.504 -13.120   3.921  1.00  0.00     0.002 C 
HETATM   13  C   UNL     1      41.904 -12.856   4.479  1.00  0.00     0.027 C 
HETATM   14  H   UNL     1      43.897 -12.603   6.249  1.00  0.00     0.163 HD
ENDROOT
BRANCH   1  15
HETATM   15  C   UNL     1      44.780 -16.884   6.713  1.00  0.00     0.146 C 
BRANCH  15  16
HETATM   16  C   UNL     1      44.376 -18.287   7.046  1.00  0.00     0.224 C 
HETATM   17  N   UNL     1      44.001 -19.242   6.169  1.00  0.00    -0.327 N 
HETATM   18  H   UNL     1      43.757 -20.093   6.670  1.00  0.00     0.169 HD
HETATM   19  O   UNL     1      44.254 -18.543   8.257  1.00  0.00    -0.273 OA
BRANCH  17  20
HETATM   20  C   UNL     1      43.868 -19.355   4.771  1.00  0.00     0.035 A 
HETATM   21  C   UNL     1      43.034 -18.600   3.949  1.00  0.00     0.036 A 
HETATM   22  C   UNL     1      42.974 -18.831   2.561  1.00  0.00    -0.060 A 
HETATM   23  C   UNL     1      42.092 -17.988   1.683  1.00  0.00     0.048 C 
HETATM   24  C   UNL     1      43.781 -19.817   1.989  1.00  0.00     0.007 A 
HETATM   25  C   UNL     1      44.627 -20.571   2.792  1.00  0.00     0.003 A 
HETATM   26  C   UNL     1      44.669 -20.340   4.168  1.00  0.00     0.029 A 
ENDBRANCH  17  20
ENDBRANCH  15  16
ENDBRANCH   1  15
TORSDOF 3
ENDMDL
MODEL 4
REMARK VINA RESULT:      -8.1      2.019      3.196
REMARK  3 active torsions:
REMARK  status: ('A' for Active; 'I' for Inactive)
REMARK    1  A    between atoms: C_4  and  N_5 
REMARK       I    between atoms: N_5  and  C_6 
REMARK    2  A    between atoms: C_6  and  C_7 
REMARK    3  A    between atoms: C_7  and  C_8 
ROOT
HETATM    1  C   UNL     1      41.112 -17.329   5.212  1.00  0.00     0.286 C 
HETATM    2  N   UNL     1      41.202 -17.920   3.799  1.00  0.00    -0.056 N 
HETATM    3  H   UNL     1      41.870 -18.713   3.812  1.00  0.00     0.278 HD
HETATM    4  H   UNL     1      40.287 -18.313   3.541  1.00  0.00     0.278 HD
HETATM    5  C   UNL     1      41.671 -16.959   2.736  1.00  0.00     0.209 C 
HETATM    6  C   UNL     1      40.850 -15.659   2.824  1.00  0.00     0.115 C 
HETATM    7  N   UNL     1      40.945 -15.072   4.150  1.00  0.00    -0.353 N 
HETATM    8  C   UNL     1      40.860 -15.813   5.298  1.00  0.00     0.249 C 
HETATM    9  O   UNL     1      40.608 -15.263   6.366  1.00  0.00    -0.271 OA
HETATM   10  C   UNL     1      41.537 -17.613   1.364  1.00  0.00     0.035 C 
HETATM   11  C   UNL     1      41.969 -16.641   0.268  1.00  0.00     0.002 C 
HETATM   12  C   UNL     1      41.222 -15.310   0.351  1.00  0.00     0.002 C 
HETATM   13  C   UNL     1      41.310 -14.680   1.742  1.00  0.00     0.027 C 
HETATM   14  H   UNL     1      40.689 -14.095   4.280  1.00  0.00     0.163 HD
ENDROOT
BRANCH   1  15
HETATM   15  C   UNL     1      42.276 -17.765   6.105  1.00  0.00     0.146 C 
BRANCH  15  16
HETATM   16  C   UNL     1      43.595 -17.372   5.513  1.00  0.00     0.224 C 
HETATM   17  N   UNL     1      44.441 -18.177   4.838  1.00  0.00    -0.327 N 
HETATM   18  H   UNL     1      45.273 -17.655   4.570  1.00  0.00     0.169 HD
HETATM   19  O   UNL     1      43.992 -16.227   5.790  1.00  0.00    -0.273 OA
BRANCH  17  20
HETATM   20  C   UNL     1      44.463 -19.522   4.420  1.00  0.00     0.035 A 
HETATM   21  C   UNL     1      44.268 -19.995   3.125  1.00  0.00     0.036 A 
HETATM   22  C   UNL     1      44.289 -21.375   2.841  1.00  0.00    -0.060 A 
HETATM   23  C   UNL     1      44.108 -21.869   1.433  1.00  0.00     0.048 C 
HETATM   24  C   UNL     1      44.535 -22.289   3.868  1.00  0.00     0.007 A 
HETATM   25  C   UNL     1      44.744 -21.833   5.164  1.00  0.00     0.003 A 
HETATM   26  C   UNL     1      44.709 -20.463   5.434  1.00  0.00     0.029 A 
ENDBRANCH  17  20
ENDBRANCH  15  16
ENDBRANCH   1  15
TORSDOF 3
ENDMDL
MODEL 5
REMARK VINA RESULT:      -8.0      2.300      6.965
REMARK  3 active torsions:
REMARK  status: ('A' for Active; 'I' for Inactive)
REMARK    1  A    between atoms: C_4  and  N_5 
REMARK       I    between atoms: N_5  and  C_6 
REMARK    2  A    between atoms: C_6  and  C_7 
REMARK    3  A    between atoms: C_7  and  C_8 
ROOT
HETATM    1  C   UNL     1      43.914 -17.252   4.302  1.00  0.00     0.286 C 
HETATM    2  N   UNL     1      43.829 -18.033   2.984  1.00  0.00    -0.056 N 
HETATM    3  H   UNL     1      43.018 -17.681   2.441  1.00  0.00     0.278 HD
HETATM    4  H   UNL     1      44.665 -17.831   2.421  1.00  0.00     0.278 HD
HETATM    5  C   UNL     1      43.653 -19.522   3.136  1.00  0.00     0.209 C 
HETATM    6  C   UNL     1      44.706 -20.063   4.121  1.00  0.00     0.115 C 
HETATM    7  N   UNL     1      44.617 -19.384   5.402  1.00  0.00    -0.353 N 
HETATM    8  C   UNL     1      44.454 -18.029   5.516  1.00  0.00     0.249 C 
HETATM    9  O   UNL     1      44.719 -17.465   6.574  1.00  0.00    -0.271 OA
HETATM   10  C   UNL     1      43.771 -20.190   1.769  1.00  0.00     0.035 C 
HETATM   11  C   UNL     1      43.636 -21.705   1.906  1.00  0.00     0.002 C 
HETATM   12  C   UNL     1      44.623 -22.283   2.920  1.00  0.00     0.002 C 
HETATM   13  C   UNL     1      44.544 -21.576   4.275  1.00  0.00     0.027 C 
HETATM   14  H   UNL     1      45.050 -19.808   6.221  1.00  0.00     0.163 HD
ENDROOT
BRANCH   1  15
HETATM   15  C   UNL     1      42.614 -16.513   4.631  1.00  0.00     0.146 C 
BRANCH  15  16
HETATM   16  C   UNL     1      41.414 -17.352   4.314  1.00  0.00     0.224 C 
HETATM   17  N   UNL     1      40.567 -17.179   3.278  1.00  0.00    -0.327 N 
HETATM   18  H   UNL     1      39.827 -17.877   3.318  1.00  0.00     0.169 HD
HETATM   19  O   UNL     1      41.109 -18.204   5.166  1.00  0.00    -0.273 OA
BRANCH  17  20
HETATM   20  C   UNL     1      40.452 -16.300   2.183  1.00  0.00     0.035 A 
HETATM   21  C   UNL     1      39.576 -15.224   2.067  1.00  0.00     0.036 A 
HETATM   22  C   UNL     1      39.541 -14.434   0.902  1.00  0.00    -0.060 A 
HETATM   23  C   UNL     1      38.613 -13.256   0.803  1.00  0.00     0.048 C 
HETATM   24  C   UNL     1      40.416 -14.714  -0.150  1.00  0.00     0.007 A 
HETATM   25  C   UNL     1      41.305 -15.777  -0.047  1.00  0.00     0.003 A 
HETATM   26  C   UNL     1      41.321 -16.560   1.110  1.00  0.00     0.029 A 
ENDBRANCH  17  20
ENDBRANCH  15  16
ENDBRANCH   1  15
TORSDOF 3
ENDMDL
MODEL 6
REMARK VINA RESULT:      -7.9      1.621      2.469
REMARK  3 active torsions:
REMARK  status: ('A' for Active; 'I' for Inactive)
REMARK    1  A    between atoms: C_4  and  N_5 
REMARK       I    between atoms: N_5  and  C_6 
REMARK    2  A    between atoms: C_6  and  C_7 
REMARK    3  A    between atoms: C_7  and  C_8 
ROOT
HETATM    1  C   UNL     1      41.413 -15.961   6.190  1.00  0.00     0.286 C 
HETATM    2  N   UNL     1      40.191 -15.042   6.321  1.00  0.00    -0.056 N 
HETATM    3  H   UNL     1      39.348 -15.565   6.019  1.00  0.00     0.278 HD
HETATM    4  H   UNL     1      40.051 -14.812   7.313  1.00  0.00     0.278 HD
HETATM    5  C   UNL     1      40.252 -13.780   5.499  1.00  0.00     0.209 C 
HETATM    6  C   UNL     1      41.599 -13.076   5.745  1.00  0.00     0.115 C 
HETATM    7  N   UNL     1      42.712 -13.960   5.444  1.00  0.00    -0.353 N 
HETATM    8  C   UNL     1      42.742 -15.274   5.827  1.00  0.00     0.249 C 
HETATM    9  O   UNL     1      43.808 -15.882   5.857  1.00  0.00    -0.271 OA
HETATM   10  C   UNL     1      39.076 -12.879   5.862  1.00  0.00     0.035 C 
HETATM   11  C   UNL     1      39.141 -11.575   5.069  1.00  0.00     0.002 C 
HETATM   12  C   UNL     1      40.486 -10.867   5.235  1.00  0.00     0.002 C 
HETATM   13  C   UNL     1      41.669 -11.786   4.924  1.00  0.00     0.027 C 
HETATM   14  H   UNL     1      43.638 -13.562   5.298  1.00  0.00     0.163 HD
ENDROOT
BRANCH   1  15
HETATM   15  C   UNL     1      41.139 -17.178   5.302  1.00  0.00     0.146 C 
BRANCH  15  16
HETATM   16  C   UNL     1      41.403 -16.871   3.860  1.00  0.00     0.224 C 
HETATM   17  N   UNL     1      42.230 -17.549   3.036  1.00  0.00    -0.327 N 
HETATM   18  H   UNL     1      42.237 -17.109   2.117  1.00  0.00     0.169 HD
HETATM   19  O   UNL     1      40.908 -15.814   3.431  1.00  0.00    -0.273 OA
BRANCH  17  20
HETATM   20  C   UNL     1      43.062 -18.682   3.123  1.00  0.00     0.035 A 
HETATM   21  C   UNL     1      43.141 -19.730   2.208  1.00  0.00     0.036 A 
HETATM   22  C   UNL     1      44.001 -20.824   2.426  1.00  0.00    -0.060 A 
HETATM   23  C   UNL     1      44.098 -21.933   1.416  1.00  0.00     0.048 C 
HETATM   24  C   UNL     1      44.809 -20.853   3.564  1.00  0.00     0.007 A 
HETATM   25  C   UNL     1      44.752 -19.810   4.480  1.00  0.00     0.003 A 
HETATM   26  C   UNL     1      43.887 -18.736   4.259  1.00  0.00     0.029 A 
ENDBRANCH  17  20
ENDBRANCH  15  16
ENDBRANCH   1  15
TORSDOF 3
ENDMDL
MODEL 7
REMARK VINA RESULT:      -7.7      2.072      7.065
REMARK  3 active torsions:
REMARK  status: ('A' for Active; 'I' for Inactive)
REMARK    1  A    between atoms: C_4  and  N_5 
REMARK       I    between atoms: N_5  and  C_6 
REMARK    2  A    between atoms: C_6  and  C_7 
REMARK    3  A    between atoms: C_7  and  C_8 
ROOT
HETATM    1  C   UNL     1      44.030 -17.597   4.978  1.00  0.00     0.286 C 
HETATM    2  N   UNL     1      43.725 -18.063   3.548  1.00  0.00    -0.056 N 
HETATM    3  H   UNL     1      42.832 -17.633   3.242  1.00  0.00     0.278 HD
HETATM    4  H   UNL     1      44.452 -17.704   2.917  1.00  0.00     0.278 HD
HETATM    5  C   UNL     1      43.582 -19.554   3.381  1.00  0.00     0.209 C 
HETATM    6  C   UNL     1      44.789 -20.258   4.029  1.00  0.00     0.115 C 
HETATM    7  N   UNL     1      44.917 -19.890   5.429  1.00  0.00    -0.353 N 
HETATM    8  C   UNL     1      44.771 -18.604   5.875  1.00  0.00     0.249 C 
HETATM    9  O   UNL     1      45.210 -18.283   6.975  1.00  0.00    -0.271 OA
HETATM   10  C   UNL     1      43.468 -19.891   1.898  1.00  0.00     0.035 C 
HETATM   11  C   UNL     1      43.364 -21.403   1.703  1.00  0.00     0.002 C 
HETATM   12  C   UNL     1      44.511 -22.152   2.382  1.00  0.00     0.002 C 
HETATM   13  C   UNL     1      44.661 -21.773   3.856  1.00  0.00     0.027 C 
HETATM   14  H   UNL     1      45.484 -20.469   6.045  1.00  0.00     0.163 HD
ENDROOT
BRANCH   1  15
HETATM   15  C   UNL     1      42.802 -17.007   5.676  1.00  0.00     0.146 C 
BRANCH  15  16
HETATM   16  C   UNL     1      43.013 -15.565   6.025  1.00  0.00     0.224 C 
HETATM   17  N   UNL     1      42.674 -14.501   5.268  1.00  0.00    -0.327 N 
HETATM   18  H   UNL     1      42.954 -13.642   5.736  1.00  0.00     0.169 HD
HETATM   19  O   UNL     1      43.680 -15.348   7.051  1.00  0.00    -0.273 OA
BRANCH  17  20
HETATM   20  C   UNL     1      42.046 -14.284   4.025  1.00  0.00     0.035 A 
HETATM   21  C   UNL     1      40.821 -14.800   3.610  1.00  0.00     0.036 A 
HETATM   22  C   UNL     1      40.312 -14.527   2.325  1.00  0.00    -0.060 A 
HETATM   23  C   UNL     1      38.975 -15.066   1.901  1.00  0.00     0.048 C 
HETATM   24  C   UNL     1      41.032 -13.704   1.456  1.00  0.00     0.007 A 
HETATM   25  C   UNL     1      42.250 -13.171   1.860  1.00  0.00     0.003 A 
HETATM   26  C   UNL     1      42.749 -13.459   3.132  1.00  0.00     0.029 A 
ENDBRANCH  17  20
ENDBRANCH  15  16
ENDBRANCH   1  15
TORSDOF 3
ENDMDL
MODEL 8
REMARK VINA RESULT:      -7.7      2.271      3.074
REMARK  3 active torsions:
REMARK  status: ('A' for Active; 'I' for Inactive)
REMARK    1  A    between atoms: C_4  and  N_5 
REMARK       I    between atoms: N_5  and  C_6 
REMARK    2  A    between atoms: C_6  and  C_7 
REMARK    3  A    between atoms: C_7  and  C_8 
ROOT
HETATM    1  C   UNL     1      40.590 -16.628   2.971  1.00  0.00     0.286 C 
HETATM    2  N   UNL     1      40.661 -16.809   1.449  1.00  0.00    -0.056 N 
HETATM    3  H   UNL     1      41.277 -17.616   1.238  1.00  0.00     0.278 HD
HETATM    4  H   UNL     1      39.727 -17.056   1.098  1.00  0.00     0.278 HD
HETATM    5  C   UNL     1      41.203 -15.624   0.691  1.00  0.00     0.209 C 
HETATM    6  C   UNL     1      40.464 -14.349   1.140  1.00  0.00     0.115 C 
HETATM    7  N   UNL     1      40.578 -14.160   2.577  1.00  0.00    -0.353 N 
HETATM    8  C   UNL     1      40.433 -15.182   3.475  1.00  0.00     0.249 C 
HETATM    9  O   UNL     1      40.202 -14.935   4.655  1.00  0.00    -0.271 OA
HETATM   10  C   UNL     1      41.045 -15.862  -0.807  1.00  0.00     0.035 C 
HETATM   11  C   UNL     1      41.551 -14.654  -1.593  1.00  0.00     0.002 C 
HETATM   12  C   UNL     1      40.888 -13.353  -1.141  1.00  0.00     0.002 C 
HETATM   13  C   UNL     1      40.998 -13.140   0.370  1.00  0.00     0.027 C 
HETATM   14  H   UNL     1      40.383 -13.243   2.974  1.00  0.00     0.163 HD
ENDROOT
BRANCH   1  15
HETATM   15  C   UNL     1      41.713 -17.368   3.702  1.00  0.00     0.146 C 
BRANCH  15  16
HETATM   16  C   UNL     1      43.042 -17.115   3.059  1.00  0.00     0.224 C 
HETATM   17  N   UNL     1      43.981 -18.040   2.769  1.00  0.00    -0.327 N 
HETATM   18  H   UNL     1      44.795 -17.587   2.358  1.00  0.00     0.169 HD
HETATM   19  O   UNL     1      43.349 -15.920   2.901  1.00  0.00    -0.273 OA
BRANCH  17  20
HETATM   20  C   UNL     1      44.115 -19.437   2.887  1.00  0.00     0.035 A 
HETATM   21  C   UNL     1      44.580 -20.139   3.997  1.00  0.00     0.036 A 
HETATM   22  C   UNL     1      44.691 -21.543   3.978  1.00  0.00    -0.060 A 
HETATM   23  C   UNL     1      45.166 -22.289   5.193  1.00  0.00     0.048 C 
HETATM   24  C   UNL     1      44.305 -22.252   2.838  1.00  0.00     0.007 A 
HETATM   25  C   UNL     1      43.827 -21.569   1.727  1.00  0.00     0.003 A 
HETATM   26  C   UNL     1      43.733 -20.176   1.754  1.00  0.00     0.029 A 
ENDBRANCH  17  20
ENDBRANCH  15  16
ENDBRANCH   1  15
TORSDOF 3
ENDMDL
MODEL 9
REMARK VINA RESULT:      -7.7      1.316      1.987
REMARK  3 active torsions:
REMARK  status: ('A' for Active; 'I' for Inactive)
REMARK    1  A    between atoms: C_4  and  N_5 
REMARK       I    between atoms: N_5  and  C_6 
REMARK    2  A    between atoms: C_6  and  C_7 
REMARK    3  A    between atoms: C_7  and  C_8 
ROOT
HETATM    1  C   UNL     1      40.333 -16.581   2.780  1.00  0.00     0.286 C 
HETATM    2  N   UNL     1      39.657 -15.236   2.481  1.00  0.00    -0.056 N 
HETATM    3  H   UNL     1      39.908 -14.945   1.517  1.00  0.00     0.278 HD
HETATM    4  H   UNL     1      38.637 -15.364   2.490  1.00  0.00     0.278 HD
HETATM    5  C   UNL     1      40.046 -14.109   3.403  1.00  0.00     0.209 C 
HETATM    6  C   UNL     1      39.905 -14.572   4.864  1.00  0.00     0.115 C 
HETATM    7  N   UNL     1      40.702 -15.762   5.113  1.00  0.00    -0.353 N 
HETATM    8  C   UNL     1      40.756 -16.816   4.241  1.00  0.00     0.249 C 
HETATM    9  O   UNL     1      41.152 -17.912   4.627  1.00  0.00    -0.271 OA
HETATM   10  C   UNL     1      39.172 -12.892   3.116  1.00  0.00     0.035 C 
HETATM   11  C   UNL     1      39.523 -11.750   4.067  1.00  0.00     0.002 C 
HETATM   12  C   UNL     1      39.454 -12.180   5.533  1.00  0.00     0.002 C 
HETATM   13  C   UNL     1      40.287 -13.432   5.811  1.00  0.00     0.027 C 
HETATM   14  H   UNL     1      40.924 -16.020   6.072  1.00  0.00     0.163 HD
ENDROOT
BRANCH   1  15
HETATM   15  C   UNL     1      41.465 -16.899   1.800  1.00  0.00     0.146 C 
BRANCH  15  16
HETATM   16  C   UNL     1      42.773 -16.351   2.281  1.00  0.00     0.224 C 
HETATM   17  N   UNL     1      43.791 -17.060   2.812  1.00  0.00    -0.327 N 
HETATM   18  H   UNL     1      44.548 -16.432   3.074  1.00  0.00     0.169 HD
HETATM   19  O   UNL     1      42.865 -15.112   2.307  1.00  0.00    -0.273 OA
BRANCH  17  20
HETATM   20  C   UNL     1      44.064 -18.415   3.087  1.00  0.00     0.035 A 
HETATM   21  C   UNL     1      43.975 -19.481   2.195  1.00  0.00     0.036 A 
HETATM   22  C   UNL     1      44.251 -20.800   2.604  1.00  0.00    -0.060 A 
HETATM   23  C   UNL     1      44.180 -21.936   1.622  1.00  0.00     0.048 C 
HETATM   24  C   UNL     1      44.647 -21.047   3.920  1.00  0.00     0.007 A 
HETATM   25  C   UNL     1      44.754 -19.994   4.820  1.00  0.00     0.003 A 
HETATM   26  C   UNL     1      44.465 -18.692   4.405  1.00  0.00     0.029 A 
ENDBRANCH  17  20
ENDBRANCH  15  16
ENDBRANCH   1  15
TORSDOF 3
ENDMDL
MODEL 10
REMARK VINA RESULT:      -7.6      2.459      6.312
REMARK  3 active torsions:
REMARK  status: ('A' for Active; 'I' for Inactive)
REMARK    1  A    between atoms: C_4  and  N_5 
REMARK       I    between atoms: N_5  and  C_6 
REMARK    2  A    between atoms: C_6  and  C_7 
REMARK    3  A    between atoms: C_7  and  C_8 
ROOT
HETATM    1  C   UNL     1      41.078 -15.237   1.936  1.00  0.00     0.286 C 
HETATM    2  N   UNL     1      41.232 -16.327   3.005  1.00  0.00    -0.056 N 
HETATM    3  H   UNL     1      41.236 -15.877   3.940  1.00  0.00     0.278 HD
HETATM    4  H   UNL     1      40.407 -16.940   2.979  1.00  0.00     0.278 HD
HETATM    5  C   UNL     1      42.492 -17.148   2.900  1.00  0.00     0.209 C 
HETATM    6  C   UNL     1      42.651 -17.656   1.455  1.00  0.00     0.115 C 
HETATM    7  N   UNL     1      42.658 -16.551   0.512  1.00  0.00    -0.353 N 
HETATM    8  C   UNL     1      41.785 -15.498   0.594  1.00  0.00     0.249 C 
HETATM    9  O   UNL     1      41.597 -14.779  -0.382  1.00  0.00    -0.271 OA
HETATM   10  C   UNL     1      42.431 -18.303   3.895  1.00  0.00     0.035 C 
HETATM   11  C   UNL     1      43.681 -19.173   3.776  1.00  0.00     0.002 C 
HETATM   12  C   UNL     1      43.915 -19.653   2.344  1.00  0.00     0.002 C 
HETATM   13  C   UNL     1      43.922 -18.501   1.338  1.00  0.00     0.027 C 
HETATM   14  H   UNL     1      43.021 -16.701  -0.427  1.00  0.00     0.163 HD
ENDROOT
BRANCH   1  15
HETATM   15  C   UNL     1      41.383 -13.838   2.478  1.00  0.00     0.146 C 
BRANCH  15  16
HETATM   16  C   UNL     1      40.560 -13.531   3.691  1.00  0.00     0.224 C 
HETATM   17  N   UNL     1      40.876 -13.829   4.969  1.00  0.00    -0.327 N 
HETATM   18  H   UNL     1      40.127 -13.527   5.588  1.00  0.00     0.169 HD
HETATM   19  O   UNL     1      39.424 -13.076   3.474  1.00  0.00    -0.273 OA
BRANCH  17  20
HETATM   20  C   UNL     1      41.954 -14.435   5.645  1.00  0.00     0.035 A 
HETATM   21  C   UNL     1      41.939 -15.660   6.307  1.00  0.00     0.036 A 
HETATM   22  C   UNL     1      43.084 -16.145   6.970  1.00  0.00    -0.060 A 
HETATM   23  C   UNL     1      43.062 -17.483   7.654  1.00  0.00     0.048 C 
HETATM   24  C   UNL     1      44.265 -15.400   6.945  1.00  0.00     0.007 A 
HETATM   25  C   UNL     1      44.301 -14.181   6.278  1.00  0.00     0.003 A 
HETATM   26  C   UNL     1      43.156 -13.706   5.635  1.00  0.00     0.029 A 
ENDBRANCH  17  20
ENDBRANCH  15  16
ENDBRANCH   1  15
TORSDOF 3
ENDMDL
