MODEL 1
REMARK VINA RESULT:      -8.5      0.000      0.000
REMARK  7 active torsions:
REMARK  status: ('A' for Active; 'I' for Inactive)
REMARK    1  A    between atoms: O_2  and  C_3 
REMARK    2  A    between atoms: C_4  and  O_5 
REMARK    3  A    between atoms: C_9  and  C_10 
REMARK    4  A    between atoms: C_11  and  C_12 
REMARK       I    between atoms: C_12  and  N_13 
REMARK    5  A    between atoms: N_13  and  C_14 
REMARK    6  A    between atoms: C_14  and  C_15 
REMARK    7  A    between atoms: C_15  and  C_16 
ROOT
HETATM    1  C   UNL     1      40.598 -13.551   1.455  1.00  0.00     0.040 C 
HETATM    2  C   UNL     1      41.200 -14.149   2.504  1.00  0.00     0.113 C 
HETATM    3  C   UNL     1      40.501 -14.248   3.740  1.00  0.00     0.105 C 
HETATM    4  N   UNL     1      39.959 -14.305   4.764  1.00  0.00    -0.191 NA
ENDROOT
BRANCH   2   5
HETATM    5  C   UNL     1      42.574 -14.735   2.429  1.00  0.00     0.262 C 
HETATM    6  N   UNL     1      42.640 -16.005   1.892  1.00  0.00    -0.356 N 
HETATM    7  H   UNL     1      41.828 -16.420   1.448  1.00  0.00     0.162 HD
HETATM    8  O   UNL     1      43.561 -14.135   2.834  1.00  0.00    -0.267 OA
BRANCH   6   9
HETATM    9  C   UNL     1      43.922 -16.669   1.714  1.00  0.00     0.127 C 
BRANCH   9  10
HETATM   10  C   UNL     1      43.780 -18.192   1.704  1.00  0.00     0.060 C 
BRANCH  10  11
HETATM   11  C   UNL     1      44.035 -18.798   3.045  1.00  0.00    -0.029 A 
HETATM   12  C   UNL     1      44.273 -20.181   3.332  1.00  0.00    -0.002 A 
HETATM   13  C   UNL     1      44.471 -20.294   4.708  1.00  0.00     0.042 A 
HETATM   14  C   UNL     1      44.342 -21.350   2.547  1.00  0.00     0.014 A 
HETATM   15  C   UNL     1      44.735 -21.515   5.340  1.00  0.00     0.030 A 
HETATM   16  N   UNL     1      44.354 -19.031   5.240  1.00  0.00    -0.365 N 
HETATM   17  C   UNL     1      44.799 -22.658   4.538  1.00  0.00     0.002 A 
HETATM   18  C   UNL     1      44.605 -22.580   3.161  1.00  0.00     0.001 A 
HETATM   19  H   UNL     1      44.450 -18.813   6.222  1.00  0.00     0.165 HD
HETATM   20  C   UNL     1      44.091 -18.123   4.249  1.00  0.00     0.096 A 
ENDBRANCH  10  11
ENDBRANCH   9  10
ENDBRANCH   6   9
ENDBRANCH   2   5
BRANCH   1  21
HETATM   21  C   UNL     1      41.125 -13.302   0.102  1.00  0.00    -0.030 A 
HETATM   22  C   UNL     1      41.836 -12.116  -0.130  1.00  0.00     0.033 A 
HETATM   23  C   UNL     1      42.399 -11.859  -1.384  1.00  0.00     0.047 A 
HETATM   24  C   UNL     1      42.249 -12.787  -2.412  1.00  0.00     0.116 A 
HETATM   25 BR   UNL     1      43.354 -10.242  -1.636  1.00  0.00    -0.048 Br
HETATM   26  C   UNL     1      41.535 -13.972  -2.200  1.00  0.00     0.103 A 
HETATM   27  C   UNL     1      41.007 -14.242  -0.935  1.00  0.00     0.051 A 
BRANCH  24  28
HETATM   28  O   UNL     1      42.790 -12.553  -3.650  1.00  0.00    -0.357 OA
HETATM   29  H   UNL     1      42.188 -12.990  -4.283  1.00  0.00     0.218 HD
ENDBRANCH  24  28
BRANCH  26  30
HETATM   30  O   UNL     1      41.442 -14.806  -3.288  1.00  0.00    -0.353 OA
HETATM   31  C   UNL     1      40.446 -15.822  -3.194  1.00  0.00     0.210 C 
ENDBRANCH  26  30
ENDBRANCH   1  21
TORSDOF 7
ENDMDL
MODEL 2
REMARK VINA RESULT:      -8.3      2.845      4.939
REMARK  7 active torsions:
REMARK  status: ('A' for Active; 'I' for Inactive)
REMARK    1  A    between atoms: O_2  and  C_3 
REMARK    2  A    between atoms: C_4  and  O_5 
REMARK    3  A    between atoms: C_9  and  C_10 
REMARK    4  A    between atoms: C_11  and  C_12 
REMARK       I    between atoms: C_12  and  N_13 
REMARK    5  A    between atoms: N_13  and  C_14 
REMARK    6  A    between atoms: C_14  and  C_15 
REMARK    7  A    between atoms: C_15  and  C_16 
ROOT
HETATM    1  C   UNL     1      41.957 -12.584   1.030  1.00  0.00     0.040 C 
HETATM    2  C   UNL     1      41.807 -13.552   0.101  1.00  0.00     0.113 C 
HETATM    3  C   UNL     1      42.058 -13.245  -1.266  1.00  0.00     0.105 C 
HETATM    4  N   UNL     1      42.222 -13.001  -2.388  1.00  0.00    -0.191 NA
ENDROOT
BRANCH   2   5
HETATM    5  C   UNL     1      41.405 -14.951   0.441  1.00  0.00     0.262 C 
HETATM    6  N   UNL     1      42.451 -15.832   0.627  1.00  0.00    -0.356 N 
HETATM    7  H   UNL     1      43.405 -15.496   0.678  1.00  0.00     0.162 HD
HETATM    8  O   UNL     1      40.230 -15.289   0.526  1.00  0.00    -0.267 OA
BRANCH   6   9
HETATM    9  C   UNL     1      42.198 -17.213   1.012  1.00  0.00     0.127 C 
BRANCH   9  10
HETATM   10  C   UNL     1      43.483 -18.041   1.044  1.00  0.00     0.060 C 
BRANCH  10  11
HETATM   11  C   UNL     1      43.817 -18.524   2.418  1.00  0.00    -0.029 A 
HETATM   12  C   UNL     1      44.098 -19.873   2.810  1.00  0.00    -0.002 A 
HETATM   13  C   UNL     1      44.365 -19.862   4.179  1.00  0.00     0.042 A 
HETATM   14  C   UNL     1      44.152 -21.104   2.126  1.00  0.00     0.014 A 
HETATM   15  C   UNL     1      44.684 -21.019   4.900  1.00  0.00     0.030 A 
HETATM   16  N   UNL     1      44.247 -18.560   4.606  1.00  0.00    -0.365 N 
HETATM   17  C   UNL     1      44.734 -22.226   4.197  1.00  0.00     0.002 A 
HETATM   18  C   UNL     1      44.471 -22.271   2.830  1.00  0.00     0.001 A 
HETATM   19  H   UNL     1      44.386 -18.255   5.559  1.00  0.00     0.165 HD
HETATM   20  C   UNL     1      43.917 -17.746   3.555  1.00  0.00     0.096 A 
ENDBRANCH  10  11
ENDBRANCH   9  10
ENDBRANCH   6   9
ENDBRANCH   2   5
BRANCH   1  21
HETATM   21  C   UNL     1      41.727 -12.651   2.484  1.00  0.00    -0.030 A 
HETATM   22  C   UNL     1      42.709 -13.246   3.289  1.00  0.00     0.033 A 
HETATM   23  C   UNL     1      42.559 -13.287   4.678  1.00  0.00     0.047 A 
HETATM   24  C   UNL     1      41.423 -12.737   5.267  1.00  0.00     0.116 A 
HETATM   25 BR   UNL     1      43.922 -14.097   5.715  1.00  0.00    -0.048 Br
HETATM   26  C   UNL     1      40.429 -12.147   4.477  1.00  0.00     0.103 A 
HETATM   27  C   UNL     1      40.601 -12.074   3.093  1.00  0.00     0.051 A 
BRANCH  24  28
HETATM   28  O   UNL     1      41.254 -12.770   6.627  1.00  0.00    -0.357 OA
HETATM   29  H   UNL     1      40.532 -12.139   6.814  1.00  0.00     0.218 HD
ENDBRANCH  24  28
BRANCH  26  30
HETATM   30  O   UNL     1      39.349 -11.649   5.165  1.00  0.00    -0.353 OA
HETATM   31  C   UNL     1      39.211 -10.230   5.138  1.00  0.00     0.210 C 
ENDBRANCH  26  30
ENDBRANCH   1  21
TORSDOF 7
ENDMDL
MODEL 3
REMARK VINA RESULT:      -8.2      2.375      3.426
REMARK  7 active torsions:
REMARK  status: ('A' for Active; 'I' for Inactive)
REMARK    1  A    between atoms: O_2  and  C_3 
REMARK    2  A    between atoms: C_4  and  O_5 
REMARK    3  A    between atoms: C_9  and  C_10 
REMARK    4  A    between atoms: C_11  and  C_12 
REMARK       I    between atoms: C_12  and  N_13 
REMARK    5  A    between atoms: N_13  and  C_14 
REMARK    6  A    between atoms: C_14  and  C_15 
REMARK    7  A    between atoms: C_15  and  C_16 
ROOT
HETATM    1  C   UNL     1      39.743 -13.667   4.058  1.00  0.00     0.040 C 
HETATM    2  C   UNL     1      40.384 -13.443   5.224  1.00  0.00     0.113 C 
HETATM    3  C   UNL     1      39.683 -12.814   6.291  1.00  0.00     0.105 C 
HETATM    4  N   UNL     1      39.137 -12.270   7.158  1.00  0.00    -0.191 NA
ENDROOT
BRANCH   2   5
HETATM    5  C   UNL     1      41.805 -13.844   5.462  1.00  0.00     0.262 C 
HETATM    6  N   UNL     1      41.973 -14.981   6.224  1.00  0.00    -0.356 N 
HETATM    7  H   UNL     1      41.179 -15.566   6.459  1.00  0.00     0.162 HD
HETATM    8  O   UNL     1      42.747 -13.193   5.025  1.00  0.00    -0.267 OA
BRANCH   6   9
HETATM    9  C   UNL     1      43.303 -15.509   6.487  1.00  0.00     0.127 C 
BRANCH   9  10
HETATM   10  C   UNL     1      43.676 -16.627   5.512  1.00  0.00     0.060 C 
BRANCH  10  11
HETATM   11  C   UNL     1      43.715 -17.968   6.171  1.00  0.00    -0.029 A 
HETATM   12  C   UNL     1      44.089 -19.212   5.565  1.00  0.00    -0.002 A 
HETATM   13  C   UNL     1      43.990 -20.199   6.546  1.00  0.00     0.042 A 
HETATM   14  C   UNL     1      44.505 -19.590   4.273  1.00  0.00     0.014 A 
HETATM   15  C   UNL     1      44.287 -21.545   6.301  1.00  0.00     0.030 A 
HETATM   16  N   UNL     1      43.569 -19.583   7.701  1.00  0.00    -0.365 N 
HETATM   17  C   UNL     1      44.699 -21.893   5.012  1.00  0.00     0.002 A 
HETATM   18  C   UNL     1      44.806 -20.931   4.010  1.00  0.00     0.001 A 
HETATM   19  H   UNL     1      43.410 -20.059   8.578  1.00  0.00     0.165 HD
HETATM   20  C   UNL     1      43.400 -18.241   7.488  1.00  0.00     0.096 A 
ENDBRANCH  10  11
ENDBRANCH   9  10
ENDBRANCH   6   9
ENDBRANCH   2   5
BRANCH   1  21
HETATM   21  C   UNL     1      40.261 -14.264   2.815  1.00  0.00    -0.030 A 
HETATM   22  C   UNL     1      40.706 -13.407   1.798  1.00  0.00     0.033 A 
HETATM   23  C   UNL     1      41.253 -13.926   0.621  1.00  0.00     0.047 A 
HETATM   24  C   UNL     1      41.353 -15.306   0.455  1.00  0.00     0.116 A 
HETATM   25 BR   UNL     1      41.844 -12.720  -0.715  1.00  0.00    -0.048 Br
HETATM   26  C   UNL     1      40.905 -16.175   1.457  1.00  0.00     0.103 A 
HETATM   27  C   UNL     1      40.394 -15.651   2.647  1.00  0.00     0.051 A 
BRANCH  24  28
HETATM   28  O   UNL     1      41.882 -15.836  -0.693  1.00  0.00    -0.357 OA
HETATM   29  H   UNL     1      41.177 -15.759  -1.364  1.00  0.00     0.218 HD
ENDBRANCH  24  28
BRANCH  26  30
HETATM   30  O   UNL     1      41.042 -17.514   1.179  1.00  0.00    -0.353 OA
HETATM   31  C   UNL     1      42.181 -18.144   1.760  1.00  0.00     0.210 C 
ENDBRANCH  26  30
ENDBRANCH   1  21
TORSDOF 7
ENDMDL
MODEL 4
REMARK VINA RESULT:      -8.2      1.337      2.153
REMARK  7 active torsions:
REMARK  status: ('A' for Active; 'I' for Inactive)
REMARK    1  A    between atoms: O_2  and  C_3 
REMARK    2  A    between atoms: C_4  and  O_5 
REMARK    3  A    between atoms: C_9  and  C_10 
REMARK    4  A    between atoms: C_11  and  C_12 
REMARK       I    between atoms: C_12  and  N_13 
REMARK    5  A    between atoms: N_13  and  C_14 
REMARK    6  A    between atoms: C_14  and  C_15 
REMARK    7  A    between atoms: C_15  and  C_16 
ROOT
HETATM    1  C   UNL     1      40.659 -13.677   1.836  1.00  0.00     0.040 C 
HETATM    2  C   UNL     1      41.222 -14.306   2.889  1.00  0.00     0.113 C 
HETATM    3  C   UNL     1      40.514 -14.362   4.123  1.00  0.00     0.105 C 
HETATM    4  N   UNL     1      39.966 -14.385   5.145  1.00  0.00    -0.191 NA
ENDROOT
BRANCH   2   5
HETATM    5  C   UNL     1      42.559 -14.971   2.820  1.00  0.00     0.262 C 
HETATM    6  N   UNL     1      42.644 -16.024   1.933  1.00  0.00    -0.356 N 
HETATM    7  H   UNL     1      41.892 -16.210   1.280  1.00  0.00     0.162 HD
HETATM    8  O   UNL     1      43.501 -14.614   3.519  1.00  0.00    -0.267 OA
BRANCH   6   9
HETATM    9  C   UNL     1      43.904 -16.724   1.731  1.00  0.00     0.127 C 
BRANCH   9  10
HETATM   10  C   UNL     1      43.722 -18.242   1.741  1.00  0.00     0.060 C 
BRANCH  10  11
HETATM   11  C   UNL     1      44.007 -18.842   3.080  1.00  0.00    -0.029 A 
HETATM   12  C   UNL     1      44.260 -20.223   3.366  1.00  0.00    -0.002 A 
HETATM   13  C   UNL     1      44.485 -20.330   4.739  1.00  0.00     0.042 A 
HETATM   14  C   UNL     1      44.322 -21.394   2.583  1.00  0.00     0.014 A 
HETATM   15  C   UNL     1      44.768 -21.547   5.369  1.00  0.00     0.030 A 
HETATM   16  N   UNL     1      44.368 -19.066   5.269  1.00  0.00    -0.365 N 
HETATM   17  C   UNL     1      44.826 -22.693   4.570  1.00  0.00     0.002 A 
HETATM   18  C   UNL     1      44.605 -22.620   3.197  1.00  0.00     0.001 A 
HETATM   19  H   UNL     1      44.481 -18.844   6.248  1.00  0.00     0.165 HD
HETATM   20  C   UNL     1      44.081 -18.163   4.281  1.00  0.00     0.096 A 
ENDBRANCH  10  11
ENDBRANCH   9  10
ENDBRANCH   6   9
ENDBRANCH   2   5
BRANCH   1  21
HETATM   21  C   UNL     1      41.204 -13.462   0.485  1.00  0.00    -0.030 A 
HETATM   22  C   UNL     1      40.838 -14.353  -0.533  1.00  0.00     0.033 A 
HETATM   23  C   UNL     1      41.288 -14.161  -1.842  1.00  0.00     0.047 A 
HETATM   24  C   UNL     1      42.112 -13.077  -2.137  1.00  0.00     0.116 A 
HETATM   25 BR   UNL     1      40.754 -15.395  -3.177  1.00  0.00    -0.048 Br
HETATM   26  C   UNL     1      42.495 -12.182  -1.131  1.00  0.00     0.103 A 
HETATM   27  C   UNL     1      42.011 -12.357   0.168  1.00  0.00     0.051 A 
BRANCH  24  28
HETATM   28  O   UNL     1      42.569 -12.872  -3.413  1.00  0.00    -0.357 OA
HETATM   29  H   UNL     1      42.815 -11.928  -3.453  1.00  0.00     0.218 HD
ENDBRANCH  24  28
BRANCH  26  30
HETATM   30  O   UNL     1      43.318 -11.159  -1.535  1.00  0.00    -0.353 OA
HETATM   31  C   UNL     1      43.259  -9.978  -0.738  1.00  0.00     0.210 C 
ENDBRANCH  26  30
ENDBRANCH   1  21
TORSDOF 7
ENDMDL
MODEL 5
REMARK VINA RESULT:      -8.2      2.681      4.747
REMARK  7 active torsions:
REMARK  status: ('A' for Active; 'I' for Inactive)
REMARK    1  A    between atoms: O_2  and  C_3 
REMARK    2  A    between atoms: C_4  and  O_5 
REMARK    3  A    between atoms: C_9  and  C_10 
REMARK    4  A    between atoms: C_11  and  C_12 
REMARK       I    between atoms: C_12  and  N_13 
REMARK    5  A    between atoms: N_13  and  C_14 
REMARK    6  A    between atoms: C_14  and  C_15 
REMARK    7  A    between atoms: C_15  and  C_16 
ROOT
HETATM    1  C   UNL     1      41.682 -13.136   0.780  1.00  0.00     0.040 C 
HETATM    2  C   UNL     1      41.490 -14.265   0.067  1.00  0.00     0.113 C 
HETATM    3  C   UNL     1      41.433 -14.186  -1.353  1.00  0.00     0.105 C 
HETATM    4  N   UNL     1      41.347 -14.134  -2.509  1.00  0.00    -0.191 NA
ENDROOT
BRANCH   2   5
HETATM    5  C   UNL     1      41.350 -15.613   0.698  1.00  0.00     0.262 C 
HETATM    6  N   UNL     1      42.450 -16.436   0.570  1.00  0.00    -0.356 N 
HETATM    7  H   UNL     1      43.326 -16.074   0.210  1.00  0.00     0.162 HD
HETATM    8  O   UNL     1      40.323 -15.962   1.269  1.00  0.00    -0.267 OA
BRANCH   6   9
HETATM    9  C   UNL     1      42.465 -17.756   1.184  1.00  0.00     0.127 C 
BRANCH   9  10
HETATM   10  C   UNL     1      43.888 -18.247   1.448  1.00  0.00     0.060 C 
BRANCH  10  11
HETATM   11  C   UNL     1      44.068 -18.751   2.844  1.00  0.00    -0.029 A 
HETATM   12  C   UNL     1      44.286 -20.109   3.245  1.00  0.00    -0.002 A 
HETATM   13  C   UNL     1      44.407 -20.118   4.635  1.00  0.00     0.042 A 
HETATM   14  C   UNL     1      44.394 -21.333   2.554  1.00  0.00     0.014 A 
HETATM   15  C   UNL     1      44.631 -21.289   5.369  1.00  0.00     0.030 A 
HETATM   16  N   UNL     1      44.264 -18.820   5.064  1.00  0.00    -0.365 N 
HETATM   17  C   UNL     1      44.736 -22.489   4.660  1.00  0.00     0.002 A 
HETATM   18  C   UNL     1      44.618 -22.513   3.272  1.00  0.00     0.001 A 
HETATM   19  H   UNL     1      44.307 -18.529   6.030  1.00  0.00     0.165 HD
HETATM   20  C   UNL     1      44.060 -17.988   3.995  1.00  0.00     0.096 A 
ENDBRANCH  10  11
ENDBRANCH   9  10
ENDBRANCH   6   9
ENDBRANCH   2   5
BRANCH   1  21
HETATM   21  C   UNL     1      41.743 -12.962   2.242  1.00  0.00    -0.030 A 
HETATM   22  C   UNL     1      40.624 -12.429   2.898  1.00  0.00     0.033 A 
HETATM   23  C   UNL     1      40.614 -12.292   4.289  1.00  0.00     0.047 A 
HETATM   24  C   UNL     1      41.727 -12.685   5.029  1.00  0.00     0.116 A 
HETATM   25 BR   UNL     1      39.072 -11.572   5.120  1.00  0.00    -0.048 Br
HETATM   26  C   UNL     1      42.856 -13.211   4.390  1.00  0.00     0.103 A 
HETATM   27  C   UNL     1      42.845 -13.381   3.003  1.00  0.00     0.051 A 
BRANCH  24  28
HETATM   28  O   UNL     1      41.741 -12.556   6.394  1.00  0.00    -0.357 OA
HETATM   29  H   UNL     1      41.104 -11.843   6.594  1.00  0.00     0.218 HD
ENDBRANCH  24  28
BRANCH  26  30
HETATM   30  O   UNL     1      43.897 -13.553   5.219  1.00  0.00    -0.353 OA
HETATM   31  C   UNL     1      43.788 -14.833   5.838  1.00  0.00     0.210 C 
ENDBRANCH  26  30
ENDBRANCH   1  21
TORSDOF 7
ENDMDL
MODEL 6
REMARK VINA RESULT:      -8.1      3.441      5.706
REMARK  7 active torsions:
REMARK  status: ('A' for Active; 'I' for Inactive)
REMARK    1  A    between atoms: O_2  and  C_3 
REMARK    2  A    between atoms: C_4  and  O_5 
REMARK    3  A    between atoms: C_9  and  C_10 
REMARK    4  A    between atoms: C_11  and  C_12 
REMARK       I    between atoms: C_12  and  N_13 
REMARK    5  A    between atoms: N_13  and  C_14 
REMARK    6  A    between atoms: C_14  and  C_15 
REMARK    7  A    between atoms: C_15  and  C_16 
ROOT
HETATM    1  C   UNL     1      41.325 -13.244   3.212  1.00  0.00     0.040 C 
HETATM    2  C   UNL     1      40.813 -13.714   2.055  1.00  0.00     0.113 C 
HETATM    3  C   UNL     1      40.319 -12.792   1.090  1.00  0.00     0.105 C 
HETATM    4  N   UNL     1      39.879 -12.056   0.309  1.00  0.00    -0.191 NA
ENDROOT
BRANCH   2   5
HETATM    5  C   UNL     1      40.756 -15.171   1.723  1.00  0.00     0.262 C 
HETATM    6  N   UNL     1      41.927 -15.706   1.227  1.00  0.00    -0.356 N 
HETATM    7  H   UNL     1      42.787 -15.169   1.246  1.00  0.00     0.162 HD
HETATM    8  O   UNL     1      39.733 -15.831   1.864  1.00  0.00    -0.267 OA
BRANCH   6   9
HETATM    9  C   UNL     1      42.021 -17.123   0.914  1.00  0.00     0.127 C 
BRANCH   9  10
HETATM   10  C   UNL     1      43.458 -17.636   1.012  1.00  0.00     0.060 C 
BRANCH  10  11
HETATM   11  C   UNL     1      43.764 -18.225   2.351  1.00  0.00    -0.029 A 
HETATM   12  C   UNL     1      44.020 -19.603   2.645  1.00  0.00    -0.002 A 
HETATM   13  C   UNL     1      44.266 -19.698   4.015  1.00  0.00     0.042 A 
HETATM   14  C   UNL     1      44.069 -20.781   1.871  1.00  0.00     0.014 A 
HETATM   15  C   UNL     1      44.558 -20.911   4.651  1.00  0.00     0.030 A 
HETATM   16  N   UNL     1      44.159 -18.430   4.536  1.00  0.00    -0.365 N 
HETATM   17  C   UNL     1      44.603 -22.063   3.861  1.00  0.00     0.002 A 
HETATM   18  C   UNL     1      44.361 -22.002   2.491  1.00  0.00     0.001 A 
HETATM   19  H   UNL     1      44.287 -18.200   5.511  1.00  0.00     0.165 HD
HETATM   20  C   UNL     1      43.857 -17.536   3.544  1.00  0.00     0.096 A 
ENDBRANCH  10  11
ENDBRANCH   9  10
ENDBRANCH   6   9
ENDBRANCH   2   5
BRANCH   1  21
HETATM   21  C   UNL     1      41.859 -13.994   4.362  1.00  0.00    -0.030 A 
HETATM   22  C   UNL     1      41.084 -15.030   4.902  1.00  0.00     0.033 A 
HETATM   23  C   UNL     1      41.569 -15.803   5.960  1.00  0.00     0.047 A 
HETATM   24  C   UNL     1      42.832 -15.539   6.486  1.00  0.00     0.116 A 
HETATM   25 BR   UNL     1      40.479 -17.194   6.644  1.00  0.00    -0.048 Br
HETATM   26  C   UNL     1      43.616 -14.503   5.964  1.00  0.00     0.103 A 
HETATM   27  C   UNL     1      43.142 -13.758   4.882  1.00  0.00     0.051 A 
BRANCH  24  28
HETATM   28  O   UNL     1      43.326 -16.282   7.526  1.00  0.00    -0.357 OA
HETATM   29  H   UNL     1      43.407 -17.192   7.181  1.00  0.00     0.218 HD
ENDBRANCH  24  28
BRANCH  26  30
HETATM   30  O   UNL     1      44.837 -14.327   6.569  1.00  0.00    -0.353 OA
HETATM   31  C   UNL     1      44.860 -13.376   7.631  1.00  0.00     0.210 C 
ENDBRANCH  26  30
ENDBRANCH   1  21
TORSDOF 7
ENDMDL
MODEL 7
REMARK VINA RESULT:      -8.1      1.701      2.298
REMARK  7 active torsions:
REMARK  status: ('A' for Active; 'I' for Inactive)
REMARK    1  A    between atoms: O_2  and  C_3 
REMARK    2  A    between atoms: C_4  and  O_5 
REMARK    3  A    between atoms: C_9  and  C_10 
REMARK    4  A    between atoms: C_11  and  C_12 
REMARK       I    between atoms: C_12  and  N_13 
REMARK    5  A    between atoms: N_13  and  C_14 
REMARK    6  A    between atoms: C_14  and  C_15 
REMARK    7  A    between atoms: C_15  and  C_16 
ROOT
HETATM    1  C   UNL     1      40.002 -12.479   3.127  1.00  0.00     0.040 C 
HETATM    2  C   UNL     1      40.455 -12.754   4.368  1.00  0.00     0.113 C 
HETATM    3  C   UNL     1      39.705 -12.309   5.494  1.00  0.00     0.105 C 
HETATM    4  N   UNL     1      39.125 -11.922   6.421  1.00  0.00    -0.191 NA
ENDROOT
BRANCH   2   5
HETATM    5  C   UNL     1      41.707 -13.528   4.626  1.00  0.00     0.262 C 
HETATM    6  N   UNL     1      41.520 -14.861   4.931  1.00  0.00    -0.356 N 
HETATM    7  H   UNL     1      40.608 -15.290   4.829  1.00  0.00     0.162 HD
HETATM    8  O   UNL     1      42.815 -13.006   4.585  1.00  0.00    -0.267 OA
BRANCH   6   9
HETATM    9  C   UNL     1      42.659 -15.738   5.153  1.00  0.00     0.127 C 
BRANCH   9  10
HETATM   10  C   UNL     1      42.935 -16.633   3.944  1.00  0.00     0.060 C 
BRANCH  10  11
HETATM   11  C   UNL     1      43.631 -17.900   4.318  1.00  0.00    -0.029 A 
HETATM   12  C   UNL     1      43.749 -19.085   3.521  1.00  0.00    -0.002 A 
HETATM   13  C   UNL     1      44.485 -20.012   4.258  1.00  0.00     0.042 A 
HETATM   14  C   UNL     1      43.299 -19.453   2.237  1.00  0.00     0.014 A 
HETATM   15  C   UNL     1      44.795 -21.290   3.776  1.00  0.00     0.030 A 
HETATM   16  N   UNL     1      44.800 -19.420   5.458  1.00  0.00    -0.365 N 
HETATM   17  C   UNL     1      44.339 -21.630   2.500  1.00  0.00     0.002 A 
HETATM   18  C   UNL     1      43.600 -20.727   1.739  1.00  0.00     0.001 A 
HETATM   19  H   UNL     1      45.331 -19.864   6.194  1.00  0.00     0.165 HD
HETATM   20  C   UNL     1      44.292 -18.149   5.506  1.00  0.00     0.096 A 
ENDBRANCH  10  11
ENDBRANCH   9  10
ENDBRANCH   6   9
ENDBRANCH   2   5
BRANCH   1  21
HETATM   21  C   UNL     1      40.613 -12.801   1.825  1.00  0.00    -0.030 A 
HETATM   22  C   UNL     1      41.298 -11.788   1.140  1.00  0.00     0.033 A 
HETATM   23  C   UNL     1      41.937 -12.058  -0.074  1.00  0.00     0.047 A 
HETATM   24  C   UNL     1      41.890 -13.343  -0.608  1.00  0.00     0.116 A 
HETATM   25 BR   UNL     1      42.852 -10.650  -0.951  1.00  0.00    -0.048 Br
HETATM   26  C   UNL     1      41.203 -14.364   0.059  1.00  0.00     0.103 A 
HETATM   27  C   UNL     1      40.599 -14.099   1.290  1.00  0.00     0.051 A 
BRANCH  24  28
HETATM   28  O   UNL     1      42.506 -13.629  -1.799  1.00  0.00    -0.357 OA
HETATM   29  H   UNL     1      42.455 -14.600  -1.891  1.00  0.00     0.218 HD
ENDBRANCH  24  28
BRANCH  26  30
HETATM   30  O   UNL     1      41.214 -15.587  -0.568  1.00  0.00    -0.353 OA
HETATM   31  C   UNL     1      41.574 -16.692   0.259  1.00  0.00     0.210 C 
ENDBRANCH  26  30
ENDBRANCH   1  21
TORSDOF 7
ENDMDL
MODEL 8
REMARK VINA RESULT:      -8.1      2.361      3.305
REMARK  7 active torsions:
REMARK  status: ('A' for Active; 'I' for Inactive)
REMARK    1  A    between atoms: O_2  and  C_3 
REMARK    2  A    between atoms: C_4  and  O_5 
REMARK    3  A    between atoms: C_9  and  C_10 
REMARK    4  A    between atoms: C_11  and  C_12 
REMARK       I    between atoms: C_12  and  N_13 
REMARK    5  A    between atoms: N_13  and  C_14 
REMARK    6  A    between atoms: C_14  and  C_15 
REMARK    7  A    between atoms: C_15  and  C_16 
ROOT
HETATM    1  C   UNL     1      39.721 -13.221   3.825  1.00  0.00     0.040 C 
HETATM    2  C   UNL     1      40.320 -13.253   5.034  1.00  0.00     0.113 C 
HETATM    3  C   UNL     1      39.652 -12.682   6.154  1.00  0.00     0.105 C 
HETATM    4  N   UNL     1      39.137 -12.189   7.069  1.00  0.00    -0.191 NA
ENDROOT
BRANCH   2   5
HETATM    5  C   UNL     1      41.657 -13.881   5.264  1.00  0.00     0.262 C 
HETATM    6  N   UNL     1      41.640 -15.250   5.436  1.00  0.00    -0.356 N 
HETATM    7  H   UNL     1      40.795 -15.780   5.260  1.00  0.00     0.162 HD
HETATM    8  O   UNL     1      42.688 -13.219   5.314  1.00  0.00    -0.267 OA
BRANCH   6   9
HETATM    9  C   UNL     1      42.879 -15.991   5.617  1.00  0.00     0.127 C 
BRANCH   9  10
HETATM   10  C   UNL     1      43.270 -16.764   4.357  1.00  0.00     0.060 C 
BRANCH  10  11
HETATM   11  C   UNL     1      43.833 -18.113   4.668  1.00  0.00    -0.029 A 
HETATM   12  C   UNL     1      43.914 -19.236   3.782  1.00  0.00    -0.002 A 
HETATM   13  C   UNL     1      44.517 -20.279   4.484  1.00  0.00     0.042 A 
HETATM   14  C   UNL     1      43.532 -19.461   2.443  1.00  0.00     0.014 A 
HETATM   15  C   UNL     1      44.759 -21.536   3.917  1.00  0.00     0.030 A 
HETATM   16  N   UNL     1      44.789 -19.813   5.749  1.00  0.00    -0.365 N 
HETATM   17  C   UNL     1      44.372 -21.733   2.588  1.00  0.00     0.002 A 
HETATM   18  C   UNL     1      43.767 -20.712   1.860  1.00  0.00     0.001 A 
HETATM   19  H   UNL     1      45.227 -20.359   6.478  1.00  0.00     0.165 HD
HETATM   20  C   UNL     1      44.382 -18.512   5.872  1.00  0.00     0.096 A 
ENDBRANCH  10  11
ENDBRANCH   9  10
ENDBRANCH   6   9
ENDBRANCH   2   5
BRANCH   1  21
HETATM   21  C   UNL     1      40.223 -13.710   2.529  1.00  0.00    -0.030 A 
HETATM   22  C   UNL     1      40.382 -15.092   2.353  1.00  0.00     0.033 A 
HETATM   23  C   UNL     1      40.806 -15.607   1.125  1.00  0.00     0.047 A 
HETATM   24  C   UNL     1      41.076 -14.740   0.068  1.00  0.00     0.116 A 
HETATM   25 BR   UNL     1      40.998 -17.483   0.944  1.00  0.00    -0.048 Br
HETATM   26  C   UNL     1      40.930 -13.357   0.229  1.00  0.00     0.103 A 
HETATM   27  C   UNL     1      40.470 -12.850   1.447  1.00  0.00     0.051 A 
BRANCH  24  28
HETATM   28  O   UNL     1      41.497 -15.224  -1.144  1.00  0.00    -0.357 OA
HETATM   29  H   UNL     1      41.515 -16.195  -1.044  1.00  0.00     0.218 HD
ENDBRANCH  24  28
BRANCH  26  30
HETATM   30  O   UNL     1      41.236 -12.600  -0.876  1.00  0.00    -0.353 OA
HETATM   31  C   UNL     1      42.437 -11.837  -0.778  1.00  0.00     0.210 C 
ENDBRANCH  26  30
ENDBRANCH   1  21
TORSDOF 7
ENDMDL
MODEL 9
REMARK VINA RESULT:      -8.0      1.879      2.846
REMARK  7 active torsions:
REMARK  status: ('A' for Active; 'I' for Inactive)
REMARK    1  A    between atoms: O_2  and  C_3 
REMARK    2  A    between atoms: C_4  and  O_5 
REMARK    3  A    between atoms: C_9  and  C_10 
REMARK    4  A    between atoms: C_11  and  C_12 
REMARK       I    between atoms: C_12  and  N_13 
REMARK    5  A    between atoms: N_13  and  C_14 
REMARK    6  A    between atoms: C_14  and  C_15 
REMARK    7  A    between atoms: C_15  and  C_16 
ROOT
HETATM    1  C   UNL     1      39.992 -12.039   1.669  1.00  0.00     0.040 C 
HETATM    2  C   UNL     1      40.149 -12.355   2.972  1.00  0.00     0.113 C 
HETATM    3  C   UNL     1      39.189 -11.894   3.917  1.00  0.00     0.105 C 
HETATM    4  N   UNL     1      38.436 -11.495   4.704  1.00  0.00    -0.191 NA
ENDROOT
BRANCH   2   5
HETATM    5  C   UNL     1      41.282 -13.190   3.477  1.00  0.00     0.262 C 
HETATM    6  N   UNL     1      40.920 -14.421   3.984  1.00  0.00    -0.356 N 
HETATM    7  H   UNL     1      39.976 -14.770   3.867  1.00  0.00     0.162 HD
HETATM    8  O   UNL     1      42.441 -12.795   3.457  1.00  0.00    -0.267 OA
BRANCH   6   9
HETATM    9  C   UNL     1      41.932 -15.353   4.460  1.00  0.00     0.127 C 
BRANCH   9  10
HETATM   10  C   UNL     1      42.292 -16.396   3.402  1.00  0.00     0.060 C 
BRANCH  10  11
HETATM   11  C   UNL     1      43.151 -17.490   3.947  1.00  0.00    -0.029 A 
HETATM   12  C   UNL     1      43.444 -18.745   3.322  1.00  0.00    -0.002 A 
HETATM   13  C   UNL     1      44.290 -19.450   4.179  1.00  0.00     0.042 A 
HETATM   14  C   UNL     1      43.069 -19.348   2.104  1.00  0.00     0.014 A 
HETATM   15  C   UNL     1      44.781 -20.726   3.879  1.00  0.00     0.030 A 
HETATM   16  N   UNL     1      44.501 -18.658   5.283  1.00  0.00    -0.365 N 
HETATM   17  C   UNL     1      44.396 -21.300   2.665  1.00  0.00     0.002 A 
HETATM   18  C   UNL     1      43.551 -20.624   1.788  1.00  0.00     0.001 A 
HETATM   19  H   UNL     1      45.077 -18.918   6.071  1.00  0.00     0.165 HD
HETATM   20  C   UNL     1      43.821 -17.477   5.155  1.00  0.00     0.096 A 
ENDBRANCH  10  11
ENDBRANCH   9  10
ENDBRANCH   6   9
ENDBRANCH   2   5
BRANCH   1  21
HETATM   21  C   UNL     1      40.860 -12.368   0.525  1.00  0.00    -0.030 A 
HETATM   22  C   UNL     1      40.571 -13.517  -0.224  1.00  0.00     0.033 A 
HETATM   23  C   UNL     1      41.334 -13.843  -1.349  1.00  0.00     0.047 A 
HETATM   24  C   UNL     1      42.394 -13.021  -1.726  1.00  0.00     0.116 A 
HETATM   25 BR   UNL     1      40.892 -15.404  -2.326  1.00  0.00    -0.048 Br
HETATM   26  C   UNL     1      42.702 -11.874  -0.984  1.00  0.00     0.103 A 
HETATM   27  C   UNL     1      41.912 -11.533   0.116  1.00  0.00     0.051 A 
BRANCH  24  28
HETATM   28  O   UNL     1      43.158 -13.323  -2.823  1.00  0.00    -0.357 OA
HETATM   29  H   UNL     1      43.453 -14.245  -2.689  1.00  0.00     0.218 HD
ENDBRANCH  24  28
BRANCH  26  30
HETATM   30  O   UNL     1      43.774 -11.147  -1.443  1.00  0.00    -0.353 OA
HETATM   31  C   UNL     1      43.538  -9.750  -1.606  1.00  0.00     0.210 C 
ENDBRANCH  26  30
ENDBRANCH   1  21
TORSDOF 7
ENDMDL
MODEL 10
REMARK VINA RESULT:      -8.0      8.267     11.654
REMARK  7 active torsions:
REMARK  status: ('A' for Active; 'I' for Inactive)
REMARK    1  A    between atoms: O_2  and  C_3 
REMARK    2  A    between atoms: C_4  and  O_5 
REMARK    3  A    between atoms: C_9  and  C_10 
REMARK    4  A    between atoms: C_11  and  C_12 
REMARK       I    between atoms: C_12  and  N_13 
REMARK    5  A    between atoms: N_13  and  C_14 
REMARK    6  A    between atoms: C_14  and  C_15 
REMARK    7  A    between atoms: C_15  and  C_16 
ROOT
HETATM    1  C   UNL     1      45.187 -13.609   7.047  1.00  0.00     0.040 C 
HETATM    2  C   UNL     1      45.432 -12.738   8.049  1.00  0.00     0.113 C 
HETATM    3  C   UNL     1      46.635 -11.978   8.028  1.00  0.00     0.105 C 
HETATM    4  N   UNL     1      47.628 -11.378   8.045  1.00  0.00    -0.191 NA
ENDROOT
BRANCH   2   5
HETATM    5  C   UNL     1      44.483 -12.514   9.183  1.00  0.00     0.262 C 
HETATM    6  N   UNL     1      43.669 -11.407   9.055  1.00  0.00    -0.356 N 
HETATM    7  H   UNL     1      43.628 -10.896   8.181  1.00  0.00     0.162 HD
HETATM    8  O   UNL     1      44.451 -13.252  10.160  1.00  0.00    -0.267 OA
BRANCH   6   9
HETATM    9  C   UNL     1      42.665 -11.105  10.064  1.00  0.00     0.127 C 
BRANCH   9  10
HETATM   10  C   UNL     1      43.295 -10.613  11.367  1.00  0.00     0.060 C 
BRANCH  10  11
HETATM   11  C   UNL     1      42.584  -9.427  11.932  1.00  0.00    -0.029 A 
HETATM   12  C   UNL     1      42.328  -9.157  13.316  1.00  0.00    -0.002 A 
HETATM   13  C   UNL     1      41.648  -7.940  13.385  1.00  0.00     0.042 A 
HETATM   14  C   UNL     1      42.613  -9.835  14.518  1.00  0.00     0.014 A 
HETATM   15  C   UNL     1      41.240  -7.367  14.595  1.00  0.00     0.030 A 
HETATM   16  N   UNL     1      41.492  -7.489  12.095  1.00  0.00    -0.365 N 
HETATM   17  C   UNL     1      41.538  -8.058  15.773  1.00  0.00     0.002 A 
HETATM   18  C   UNL     1      42.213  -9.275  15.738  1.00  0.00     0.001 A 
HETATM   19  H   UNL     1      41.031  -6.626  11.843  1.00  0.00     0.165 HD
HETATM   20  C   UNL     1      42.051  -8.374  11.213  1.00  0.00     0.096 A 
ENDBRANCH  10  11
ENDBRANCH   9  10
ENDBRANCH   6   9
ENDBRANCH   2   5
BRANCH   1  21
HETATM   21  C   UNL     1      44.043 -14.519   6.869  1.00  0.00    -0.030 A 
HETATM   22  C   UNL     1      42.966 -14.091   6.079  1.00  0.00     0.033 A 
HETATM   23  C   UNL     1      41.881 -14.939   5.839  1.00  0.00     0.047 A 
HETATM   24  C   UNL     1      41.866 -16.217   6.392  1.00  0.00     0.116 A 
HETATM   25 BR   UNL     1      40.458 -14.308   4.758  1.00  0.00    -0.048 Br
HETATM   26  C   UNL     1      42.929 -16.657   7.190  1.00  0.00     0.103 A 
HETATM   27  C   UNL     1      44.029 -15.820   7.396  1.00  0.00     0.051 A 
BRANCH  24  28
HETATM   28  O   UNL     1      40.810 -17.063   6.173  1.00  0.00    -0.357 OA
HETATM   29  H   UNL     1      40.967 -17.831   6.755  1.00  0.00     0.218 HD
ENDBRANCH  24  28
BRANCH  26  30
HETATM   30  O   UNL     1      42.801 -17.930   7.692  1.00  0.00    -0.353 OA
HETATM   31  C   UNL     1      44.024 -18.646   7.856  1.00  0.00     0.210 C 
ENDBRANCH  26  30
ENDBRANCH   1  21
TORSDOF 7
ENDMDL
