MODEL 1
REMARK VINA RESULT:     -10.9      0.000      0.000
REMARK  5 active torsions:
REMARK  status: ('A' for Active; 'I' for Inactive)
REMARK    1  A    between atoms: C_5  and  C_6 
REMARK    2  A    between atoms: C_6  and  C_7 
REMARK       I    between atoms: C_7  and  N_8 
REMARK    3  A    between atoms: N_8  and  C_9 
REMARK    4  A    between atoms: N_10  and  C_11 
REMARK    5  A    between atoms: C_23  and  C_24 
ROOT
HETATM    1  C   UNL     1      41.410 -15.266  -0.170  1.00  0.00     0.152 C 
HETATM    2  N   UNL     1      40.656 -14.457   0.677  1.00  0.00    -0.044 N 
HETATM    3  N   UNL     1      39.536 -13.977   0.036  1.00  0.00    -0.148 NA
HETATM    4  C   UNL     1      39.686 -14.380  -1.230  1.00  0.00     0.115 C 
HETATM    5  C   UNL     1      40.875 -15.109  -1.428  1.00  0.00     0.087 C 
ENDROOT
BRANCH   1   6
HETATM    6  N   UNL     1      42.484 -16.068   0.189  1.00  0.00    -0.311 N 
HETATM    7  C   UNL     1      42.235 -17.286   0.813  1.00  0.00     0.227 C 
HETATM    8  O   UNL     1      41.109 -17.712   1.080  1.00  0.00    -0.273 OA
HETATM    9  H   UNL     1      43.304 -16.036  -0.409  1.00  0.00     0.170 HD
BRANCH   7  10
HETATM   10  C   UNL     1      43.468 -18.109   1.150  1.00  0.00     0.142 C 
BRANCH  10  11
HETATM   11  C   UNL     1      43.692 -18.396   2.625  1.00  0.00    -0.038 A 
HETATM   12  C   UNL     1      44.020 -19.694   3.112  1.00  0.00    -0.019 A 
HETATM   13  C   UNL     1      44.264 -19.858   4.499  1.00  0.00    -0.025 A 
HETATM   14  C   UNL     1      44.132 -20.841   2.289  1.00  0.00     0.013 A 
HETATM   15  C   UNL     1      44.627 -21.116   5.007  1.00  0.00     0.012 A 
HETATM   16  C   UNL     1      44.146 -18.763   5.365  1.00  0.00     0.012 A 
HETATM   17  C   UNL     1      44.752 -22.221   4.166  1.00  0.00     0.001 A 
HETATM   18  C   UNL     1      44.503 -22.084   2.809  1.00  0.00     0.001 A 
HETATM   19  C   UNL     1      43.799 -17.504   4.883  1.00  0.00     0.001 A 
HETATM   20  C   UNL     1      43.578 -17.320   3.524  1.00  0.00     0.008 A 
ENDBRANCH  10  11
ENDBRANCH   7  10
ENDBRANCH   1   6
BRANCH   2  21
HETATM   21  C   UNL     1      40.934 -13.996   1.984  1.00  0.00     0.732 A 
HETATM   22  N   UNL     1      40.038 -13.744   2.885  1.00  0.00    -0.067 NA
HETATM   23  C   UNL     1      40.497 -13.257   4.089  1.00  0.00     0.065 A 
HETATM   24  C   UNL     1      41.799 -13.123   4.405  1.00  0.00     0.036 A 
HETATM   25  C   UNL     1      39.413 -12.838   5.056  1.00  0.00     0.060 C 
HETATM   26  C   UNL     1      42.303 -12.547   5.693  1.00  0.00     0.046 C 
HETATM   27  C   UNL     1      42.801 -13.529   3.392  1.00  0.00     0.268 A 
HETATM   28  C   UNL     1      41.222 -11.779   6.455  1.00  0.00     0.005 C 
HETATM   29  C   UNL     1      39.913 -12.559   6.475  1.00  0.00     0.006 C 
HETATM   30  O   UNL     1      44.005 -13.532   3.623  1.00  0.00    -0.267 OA
HETATM   31  N   UNL     1      42.284 -13.895   2.190  1.00  0.00    -0.152 N 
HETATM   32  H   UNL     1      42.914 -14.181   1.448  1.00  0.00     0.188 HD
ENDBRANCH   2  21
BRANCH   4  33
HETATM   33  C   UNL     1      38.667 -14.117  -2.289  1.00  0.00     0.105 A 
HETATM   34  O   UNL     1      38.142 -15.077  -3.111  1.00  0.00    -0.320 OA
HETATM   35  C   UNL     1      37.223 -14.469  -3.905  1.00  0.00     0.142 A 
HETATM   36  C   UNL     1      37.148 -13.128  -3.617  1.00  0.00     0.027 A 
HETATM   37  C   UNL     1      38.083 -12.899  -2.577  1.00  0.00     0.041 A 
ENDBRANCH   4  33
TORSDOF 5
ENDMDL
MODEL 2
REMARK VINA RESULT:     -10.6      1.856      6.069
REMARK  5 active torsions:
REMARK  status: ('A' for Active; 'I' for Inactive)
REMARK    1  A    between atoms: C_5  and  C_6 
REMARK    2  A    between atoms: C_6  and  C_7 
REMARK       I    between atoms: C_7  and  N_8 
REMARK    3  A    between atoms: N_8  and  C_9 
REMARK    4  A    between atoms: N_10  and  C_11 
REMARK    5  A    between atoms: C_23  and  C_24 
ROOT
HETATM    1  C   UNL     1      40.726 -14.836   3.918  1.00  0.00     0.152 C 
HETATM    2  N   UNL     1      40.121 -13.812   3.193  1.00  0.00    -0.044 N 
HETATM    3  N   UNL     1      39.857 -12.726   3.998  1.00  0.00    -0.148 NA
HETATM    4  C   UNL     1      40.175 -13.145   5.228  1.00  0.00     0.115 C 
HETATM    5  C   UNL     1      40.636 -14.476   5.243  1.00  0.00     0.087 C 
ENDROOT
BRANCH   1   6
HETATM    6  N   UNL     1      41.304 -15.987   3.400  1.00  0.00    -0.311 N 
HETATM    7  C   UNL     1      42.608 -15.928   2.921  1.00  0.00     0.227 C 
HETATM    8  O   UNL     1      43.301 -14.908   2.916  1.00  0.00    -0.273 OA
HETATM    9  H   UNL     1      41.024 -16.870   3.816  1.00  0.00     0.170 HD
BRANCH   7  10
HETATM   10  C   UNL     1      43.168 -17.240   2.394  1.00  0.00     0.142 C 
BRANCH  10  11
HETATM   11  C   UNL     1      43.716 -18.196   3.439  1.00  0.00    -0.038 A 
HETATM   12  C   UNL     1      43.925 -19.581   3.176  1.00  0.00    -0.019 A 
HETATM   13  C   UNL     1      44.490 -20.388   4.195  1.00  0.00    -0.025 A 
HETATM   14  C   UNL     1      43.613 -20.207   1.946  1.00  0.00     0.013 A 
HETATM   15  C   UNL     1      44.745 -21.749   3.957  1.00  0.00     0.012 A 
HETATM   16  C   UNL     1      44.799 -19.828   5.442  1.00  0.00     0.012 A 
HETATM   17  C   UNL     1      44.448 -22.330   2.725  1.00  0.00     0.001 A 
HETATM   18  C   UNL     1      43.880 -21.560   1.721  1.00  0.00     0.001 A 
HETATM   19  C   UNL     1      44.567 -18.479   5.698  1.00  0.00     0.001 A 
HETATM   20  C   UNL     1      44.034 -17.669   4.704  1.00  0.00     0.008 A 
ENDBRANCH  10  11
ENDBRANCH   7  10
ENDBRANCH   1   6
BRANCH   2  21
HETATM   21  C   UNL     1      39.661 -13.788   1.857  1.00  0.00     0.732 A 
HETATM   22  N   UNL     1      40.264 -14.350   0.858  1.00  0.00    -0.067 NA
HETATM   23  C   UNL     1      39.689 -14.181  -0.381  1.00  0.00     0.065 A 
HETATM   24  C   UNL     1      38.514 -13.558  -0.592  1.00  0.00     0.036 A 
HETATM   25  C   UNL     1      40.501 -14.727  -1.535  1.00  0.00     0.060 C 
HETATM   26  C   UNL     1      37.909 -13.326  -1.944  1.00  0.00     0.046 C 
HETATM   27  C   UNL     1      37.793 -13.025   0.587  1.00  0.00     0.268 A 
HETATM   28  C   UNL     1      38.916 -13.518  -3.078  1.00  0.00     0.005 C 
HETATM   29  C   UNL     1      39.743 -14.780  -2.863  1.00  0.00     0.006 C 
HETATM   30  O   UNL     1      36.676 -12.527   0.505  1.00  0.00    -0.267 OA
HETATM   31  N   UNL     1      38.465 -13.127   1.763  1.00  0.00    -0.152 N 
HETATM   32  H   UNL     1      38.033 -12.778   2.611  1.00  0.00     0.188 HD
ENDBRANCH   2  21
BRANCH   4  33
HETATM   33  C   UNL     1      40.087 -12.265   6.430  1.00  0.00     0.105 A 
HETATM   34  O   UNL     1      39.051 -12.278   7.324  1.00  0.00    -0.320 OA
HETATM   35  C   UNL     1      39.346 -11.378   8.297  1.00  0.00     0.142 A 
HETATM   36  C   UNL     1      40.554 -10.774   8.045  1.00  0.00     0.027 A 
HETATM   37  C   UNL     1      41.031 -11.342   6.839  1.00  0.00     0.041 A 
ENDBRANCH   4  33
TORSDOF 5
ENDMDL
MODEL 3
REMARK VINA RESULT:     -10.4      2.513      6.691
REMARK  5 active torsions:
REMARK  status: ('A' for Active; 'I' for Inactive)
REMARK    1  A    between atoms: C_5  and  C_6 
REMARK    2  A    between atoms: C_6  and  C_7 
REMARK       I    between atoms: C_7  and  N_8 
REMARK    3  A    between atoms: N_8  and  C_9 
REMARK    4  A    between atoms: N_10  and  C_11 
REMARK    5  A    between atoms: C_23  and  C_24 
ROOT
HETATM    1  C   UNL     1      39.668 -13.509   5.622  1.00  0.00     0.152 C 
HETATM    2  N   UNL     1      39.926 -12.596   4.602  1.00  0.00    -0.044 N 
HETATM    3  N   UNL     1      40.016 -11.314   5.096  1.00  0.00    -0.148 NA
HETATM    4  C   UNL     1      39.678 -11.435   6.384  1.00  0.00     0.115 C 
HETATM    5  C   UNL     1      39.368 -12.763   6.738  1.00  0.00     0.087 C 
ENDROOT
BRANCH   1   6
HETATM    6  N   UNL     1      39.708 -14.893   5.525  1.00  0.00    -0.311 N 
HETATM    7  C   UNL     1      40.912 -15.549   5.760  1.00  0.00     0.227 C 
HETATM    8  O   UNL     1      41.967 -14.981   6.049  1.00  0.00    -0.273 OA
HETATM    9  H   UNL     1      38.869 -15.398   5.791  1.00  0.00     0.170 HD
BRANCH   7  10
HETATM   10  C   UNL     1      40.859 -17.065   5.654  1.00  0.00     0.142 C 
BRANCH  10  11
HETATM   11  C   UNL     1      41.920 -17.707   4.777  1.00  0.00    -0.038 A 
HETATM   12  C   UNL     1      41.993 -17.480   3.373  1.00  0.00    -0.019 A 
HETATM   13  C   UNL     1      43.050 -18.079   2.642  1.00  0.00    -0.025 A 
HETATM   14  C   UNL     1      41.076 -16.676   2.654  1.00  0.00     0.013 A 
HETATM   15  C   UNL     1      43.174 -17.845   1.262  1.00  0.00     0.012 A 
HETATM   16  C   UNL     1      43.974 -18.904   3.296  1.00  0.00     0.012 A 
HETATM   17  C   UNL     1      42.268 -17.028   0.588  1.00  0.00     0.001 A 
HETATM   18  C   UNL     1      41.219 -16.446   1.283  1.00  0.00     0.001 A 
HETATM   19  C   UNL     1      43.879 -19.141   4.664  1.00  0.00     0.001 A 
HETATM   20  C   UNL     1      42.863 -18.545   5.401  1.00  0.00     0.008 A 
ENDBRANCH  10  11
ENDBRANCH   7  10
ENDBRANCH   1   6
BRANCH   2  21
HETATM   21  C   UNL     1      39.983 -12.784   3.202  1.00  0.00     0.732 A 
HETATM   22  N   UNL     1      38.988 -13.172   2.468  1.00  0.00    -0.067 NA
HETATM   23  C   UNL     1      39.246 -13.344   1.126  1.00  0.00     0.065 A 
HETATM   24  C   UNL     1      40.419 -13.048   0.536  1.00  0.00     0.036 A 
HETATM   25  C   UNL     1      38.101 -13.937   0.334  1.00  0.00     0.060 C 
HETATM   26  C   UNL     1      40.721 -13.282  -0.914  1.00  0.00     0.046 C 
HETATM   27  C   UNL     1      41.501 -12.498   1.386  1.00  0.00     0.268 A 
HETATM   28  C   UNL     1      39.720 -14.230  -1.576  1.00  0.00     0.005 C 
HETATM   29  C   UNL     1      38.291 -13.874  -1.183  1.00  0.00     0.006 C 
HETATM   30  O   UNL     1      42.568 -12.113   0.923  1.00  0.00    -0.267 OA
HETATM   31  N   UNL     1      41.220 -12.457   2.714  1.00  0.00    -0.152 N 
HETATM   32  H   UNL     1      41.917 -12.096   3.355  1.00  0.00     0.188 HD
ENDBRANCH   2  21
BRANCH   4  33
HETATM   33  C   UNL     1      39.682 -10.284   7.334  1.00  0.00     0.105 A 
HETATM   34  O   UNL     1      38.591  -9.865   8.045  1.00  0.00    -0.320 OA
HETATM   35  C   UNL     1      38.991  -8.828   8.826  1.00  0.00     0.142 A 
HETATM   36  C   UNL     1      40.324  -8.562   8.627  1.00  0.00     0.027 A 
HETATM   37  C   UNL     1      40.770  -9.497   7.661  1.00  0.00     0.041 A 
ENDBRANCH   4  33
TORSDOF 5
ENDMDL
MODEL 4
REMARK VINA RESULT:     -10.4      1.924      2.778
REMARK  5 active torsions:
REMARK  status: ('A' for Active; 'I' for Inactive)
REMARK    1  A    between atoms: C_5  and  C_6 
REMARK    2  A    between atoms: C_6  and  C_7 
REMARK       I    between atoms: C_7  and  N_8 
REMARK    3  A    between atoms: N_8  and  C_9 
REMARK    4  A    between atoms: N_10  and  C_11 
REMARK    5  A    between atoms: C_23  and  C_24 
ROOT
HETATM    1  C   UNL     1      41.100 -14.759  -0.294  1.00  0.00     0.152 C 
HETATM    2  N   UNL     1      41.091 -13.565   0.423  1.00  0.00    -0.044 N 
HETATM    3  N   UNL     1      41.106 -12.479  -0.423  1.00  0.00    -0.148 NA
HETATM    4  C   UNL     1      41.262 -13.014  -1.640  1.00  0.00     0.115 C 
HETATM    5  C   UNL     1      41.351 -14.419  -1.603  1.00  0.00     0.087 C 
ENDROOT
BRANCH   1   6
HETATM    6  N   UNL     1      40.894 -16.033   0.216  1.00  0.00    -0.311 N 
HETATM    7  C   UNL     1      41.944 -16.677   0.861  1.00  0.00     0.227 C 
HETATM    8  O   UNL     1      43.068 -16.194   1.011  1.00  0.00    -0.273 OA
HETATM    9  H   UNL     1      39.964 -16.245   0.563  1.00  0.00     0.170 HD
BRANCH   7  10
HETATM   10  C   UNL     1      41.623 -18.060   1.407  1.00  0.00     0.142 C 
BRANCH  10  11
HETATM   11  C   UNL     1      42.540 -18.569   2.506  1.00  0.00    -0.038 A 
HETATM   12  C   UNL     1      42.435 -18.126   3.857  1.00  0.00    -0.019 A 
HETATM   13  C   UNL     1      43.299 -18.696   4.827  1.00  0.00    -0.025 A 
HETATM   14  C   UNL     1      41.506 -17.155   4.300  1.00  0.00     0.013 A 
HETATM   15  C   UNL     1      43.196 -18.311   6.174  1.00  0.00     0.012 A 
HETATM   16  C   UNL     1      44.254 -19.647   4.443  1.00  0.00     0.012 A 
HETATM   17  C   UNL     1      42.254 -17.369   6.582  1.00  0.00     0.001 A 
HETATM   18  C   UNL     1      41.412 -16.789   5.645  1.00  0.00     0.001 A 
HETATM   19  C   UNL     1      44.366 -20.052   3.116  1.00  0.00     0.001 A 
HETATM   20  C   UNL     1      43.513 -19.521   2.156  1.00  0.00     0.008 A 
ENDBRANCH  10  11
ENDBRANCH   7  10
ENDBRANCH   1   6
BRANCH   2  21
HETATM   21  C   UNL     1      41.186 -13.335   1.815  1.00  0.00     0.732 A 
HETATM   22  N   UNL     1      40.182 -13.079   2.592  1.00  0.00    -0.067 NA
HETATM   23  C   UNL     1      40.475 -12.838   3.915  1.00  0.00     0.065 A 
HETATM   24  C   UNL     1      41.706 -12.944   4.450  1.00  0.00     0.036 A 
HETATM   25  C   UNL     1      39.295 -12.399   4.754  1.00  0.00     0.060 C 
HETATM   26  C   UNL     1      42.040 -12.633   5.878  1.00  0.00     0.046 C 
HETATM   27  C   UNL     1      42.815 -13.351   3.555  1.00  0.00     0.268 A 
HETATM   28  C   UNL     1      40.943 -11.825   6.573  1.00  0.00     0.005 C 
HETATM   29  C   UNL     1      39.565 -12.397   6.260  1.00  0.00     0.006 C 
HETATM   30  O   UNL     1      43.948 -13.565   3.969  1.00  0.00    -0.267 OA
HETATM   31  N   UNL     1      42.480 -13.466   2.244  1.00  0.00    -0.152 N 
HETATM   32  H   UNL     1      43.192 -13.737   1.574  1.00  0.00     0.188 HD
ENDBRANCH   2  21
BRANCH   4  33
HETATM   33  C   UNL     1      41.287 -12.194  -2.887  1.00  0.00     0.105 A 
HETATM   34  O   UNL     1      40.181 -11.888  -3.632  1.00  0.00    -0.320 OA
HETATM   35  C   UNL     1      40.592 -11.098  -4.657  1.00  0.00     0.142 A 
HETATM   36  C   UNL     1      41.949 -10.892  -4.594  1.00  0.00     0.027 A 
HETATM   37  C   UNL     1      42.399 -11.603  -3.455  1.00  0.00     0.041 A 
ENDBRANCH   4  33
TORSDOF 5
ENDMDL
MODEL 5
REMARK VINA RESULT:     -10.3      2.350      6.400
REMARK  5 active torsions:
REMARK  status: ('A' for Active; 'I' for Inactive)
REMARK    1  A    between atoms: C_5  and  C_6 
REMARK    2  A    between atoms: C_6  and  C_7 
REMARK       I    between atoms: C_7  and  N_8 
REMARK    3  A    between atoms: N_8  and  C_9 
REMARK    4  A    between atoms: N_10  and  C_11 
REMARK    5  A    between atoms: C_23  and  C_24 
ROOT
HETATM    1  C   UNL     1      39.722 -13.766   5.150  1.00  0.00     0.152 C 
HETATM    2  N   UNL     1      39.711 -12.943   4.027  1.00  0.00    -0.044 N 
HETATM    3  N   UNL     1      39.686 -11.614   4.387  1.00  0.00    -0.148 NA
HETATM    4  C   UNL     1      39.544 -11.639   5.717  1.00  0.00     0.115 C 
HETATM    5  C   UNL     1      39.473 -12.949   6.229  1.00  0.00     0.087 C 
ENDROOT
BRANCH   1   6
HETATM    6  N   UNL     1      39.942 -15.137   5.171  1.00  0.00    -0.311 N 
HETATM    7  C   UNL     1      41.249 -15.608   5.233  1.00  0.00     0.227 C 
HETATM    8  O   UNL     1      42.246 -14.884   5.266  1.00  0.00    -0.273 OA
HETATM    9  H   UNL     1      39.242 -15.709   5.634  1.00  0.00     0.170 HD
BRANCH   7  10
HETATM   10  C   UNL     1      41.395 -17.121   5.274  1.00  0.00     0.142 C 
BRANCH  10  11
HETATM   11  C   UNL     1      42.080 -17.755   4.076  1.00  0.00    -0.038 A 
HETATM   12  C   UNL     1      43.110 -18.731   4.210  1.00  0.00    -0.019 A 
HETATM   13  C   UNL     1      43.656 -19.308   3.036  1.00  0.00    -0.025 A 
HETATM   14  C   UNL     1      43.618 -19.176   5.454  1.00  0.00     0.013 A 
HETATM   15  C   UNL     1      44.645 -20.301   3.133  1.00  0.00     0.012 A 
HETATM   16  C   UNL     1      43.207 -18.890   1.776  1.00  0.00     0.012 A 
HETATM   17  C   UNL     1      45.107 -20.735   4.374  1.00  0.00     0.001 A 
HETATM   18  C   UNL     1      44.596 -20.171   5.533  1.00  0.00     0.001 A 
HETATM   19  C   UNL     1      42.219 -17.916   1.655  1.00  0.00     0.001 A 
HETATM   20  C   UNL     1      41.657 -17.356   2.795  1.00  0.00     0.008 A 
ENDBRANCH  10  11
ENDBRANCH   7  10
ENDBRANCH   1   6
BRANCH   2  21
HETATM   21  C   UNL     1      39.605 -13.272   2.656  1.00  0.00     0.732 A 
HETATM   22  N   UNL     1      40.464 -13.982   1.998  1.00  0.00    -0.067 NA
HETATM   23  C   UNL     1      40.216 -14.159   0.655  1.00  0.00     0.065 A 
HETATM   24  C   UNL     1      39.108 -13.725   0.026  1.00  0.00     0.036 A 
HETATM   25  C   UNL     1      41.316 -14.868  -0.103  1.00  0.00     0.060 C 
HETATM   26  C   UNL     1      38.856 -13.870  -1.444  1.00  0.00     0.046 C 
HETATM   27  C   UNL     1      38.089 -13.013   0.834  1.00  0.00     0.268 A 
HETATM   28  C   UNL     1      40.125 -14.212  -2.225  1.00  0.00     0.005 C 
HETATM   29  C   UNL     1      40.923 -15.300  -1.518  1.00  0.00     0.006 C 
HETATM   30  O   UNL     1      37.010 -12.665   0.370  1.00  0.00    -0.267 OA
HETATM   31  N   UNL     1      38.445 -12.776   2.123  1.00  0.00    -0.152 N 
HETATM   32  H   UNL     1      37.797 -12.289   2.732  1.00  0.00     0.188 HD
ENDBRANCH   2  21
BRANCH   4  33
HETATM   33  C   UNL     1      39.515 -10.401   6.550  1.00  0.00     0.105 A 
HETATM   34  O   UNL     1      38.961 -10.323   7.799  1.00  0.00    -0.320 OA
HETATM   35  C   UNL     1      39.164  -9.059   8.253  1.00  0.00     0.142 A 
HETATM   36  C   UNL     1      39.835  -8.313   7.315  1.00  0.00     0.027 A 
HETATM   37  C   UNL     1      40.058  -9.175   6.214  1.00  0.00     0.041 A 
ENDBRANCH   4  33
TORSDOF 5
ENDMDL
MODEL 6
REMARK VINA RESULT:     -10.3      2.484      6.456
REMARK  5 active torsions:
REMARK  status: ('A' for Active; 'I' for Inactive)
REMARK    1  A    between atoms: C_5  and  C_6 
REMARK    2  A    between atoms: C_6  and  C_7 
REMARK       I    between atoms: C_7  and  N_8 
REMARK    3  A    between atoms: N_8  and  C_9 
REMARK    4  A    between atoms: N_10  and  C_11 
REMARK    5  A    between atoms: C_23  and  C_24 
ROOT
HETATM    1  C   UNL     1      39.736 -13.537   5.598  1.00  0.00     0.152 C 
HETATM    2  N   UNL     1      39.927 -12.605   4.580  1.00  0.00    -0.044 N 
HETATM    3  N   UNL     1      39.971 -11.325   5.084  1.00  0.00    -0.148 NA
HETATM    4  C   UNL     1      39.671 -11.472   6.380  1.00  0.00     0.115 C 
HETATM    5  C   UNL     1      39.431 -12.816   6.728  1.00  0.00     0.087 C 
ENDROOT
BRANCH   1   6
HETATM    6  N   UNL     1      39.836 -14.917   5.486  1.00  0.00    -0.311 N 
HETATM    7  C   UNL     1      41.091 -15.510   5.574  1.00  0.00     0.227 C 
HETATM    8  O   UNL     1      42.142 -14.888   5.741  1.00  0.00    -0.273 OA
HETATM    9  H   UNL     1      39.060 -15.466   5.845  1.00  0.00     0.170 HD
BRANCH   7  10
HETATM   10  C   UNL     1      41.104 -17.027   5.464  1.00  0.00     0.142 C 
BRANCH  10  11
HETATM   11  C   UNL     1      41.769 -17.597   4.223  1.00  0.00    -0.038 A 
HETATM   12  C   UNL     1      42.858 -18.513   4.290  1.00  0.00    -0.019 A 
HETATM   13  C   UNL     1      43.381 -19.035   3.080  1.00  0.00    -0.025 A 
HETATM   14  C   UNL     1      43.448 -18.951   5.499  1.00  0.00     0.013 A 
HETATM   15  C   UNL     1      44.429 -19.970   3.111  1.00  0.00     0.012 A 
HETATM   16  C   UNL     1      42.852 -18.620   1.850  1.00  0.00     0.012 A 
HETATM   17  C   UNL     1      44.973 -20.399   4.320  1.00  0.00     0.001 A 
HETATM   18  C   UNL     1      44.485 -19.888   5.513  1.00  0.00     0.001 A 
HETATM   19  C   UNL     1      41.805 -17.704   1.795  1.00  0.00     0.001 A 
HETATM   20  C   UNL     1      41.265 -17.199   2.971  1.00  0.00     0.008 A 
ENDBRANCH  10  11
ENDBRANCH   7  10
ENDBRANCH   1   6
BRANCH   2  21
HETATM   21  C   UNL     1      39.956 -12.779   3.178  1.00  0.00     0.732 A 
HETATM   22  N   UNL     1      38.942 -13.137   2.456  1.00  0.00    -0.067 NA
HETATM   23  C   UNL     1      39.174 -13.300   1.109  1.00  0.00     0.065 A 
HETATM   24  C   UNL     1      40.343 -13.022   0.502  1.00  0.00     0.036 A 
HETATM   25  C   UNL     1      38.005 -13.860   0.329  1.00  0.00     0.060 C 
HETATM   26  C   UNL     1      40.617 -13.245  -0.955  1.00  0.00     0.046 C 
HETATM   27  C   UNL     1      41.450 -12.504   1.340  1.00  0.00     0.268 A 
HETATM   28  C   UNL     1      39.585 -14.165  -1.610  1.00  0.00     0.005 C 
HETATM   29  C   UNL     1      38.171 -13.783  -1.190  1.00  0.00     0.006 C 
HETATM   30  O   UNL     1      42.518 -12.136   0.864  1.00  0.00    -0.267 OA
HETATM   31  N   UNL     1      41.192 -12.472   2.674  1.00  0.00    -0.152 N 
HETATM   32  H   UNL     1      41.908 -12.133   3.307  1.00  0.00     0.188 HD
ENDBRANCH   2  21
BRANCH   4  33
HETATM   33  C   UNL     1      39.648 -10.330   7.340  1.00  0.00     0.105 A 
HETATM   34  O   UNL     1      38.521  -9.868   7.964  1.00  0.00    -0.320 OA
HETATM   35  C   UNL     1      38.900  -8.857   8.787  1.00  0.00     0.142 A 
HETATM   36  C   UNL     1      40.256  -8.649   8.701  1.00  0.00     0.027 A 
HETATM   37  C   UNL     1      40.738  -9.595   7.764  1.00  0.00     0.041 A 
ENDBRANCH   4  33
TORSDOF 5
ENDMDL
MODEL 7
REMARK VINA RESULT:     -10.3      2.189      5.852
REMARK  5 active torsions:
REMARK  status: ('A' for Active; 'I' for Inactive)
REMARK    1  A    between atoms: C_5  and  C_6 
REMARK    2  A    between atoms: C_6  and  C_7 
REMARK       I    between atoms: C_7  and  N_8 
REMARK    3  A    between atoms: N_8  and  C_9 
REMARK    4  A    between atoms: N_10  and  C_11 
REMARK    5  A    between atoms: C_23  and  C_24 
ROOT
HETATM    1  C   UNL     1      42.487 -13.982   3.377  1.00  0.00     0.152 C 
HETATM    2  N   UNL     1      42.058 -12.977   2.513  1.00  0.00    -0.044 N 
HETATM    3  N   UNL     1      41.474 -11.942   3.209  1.00  0.00    -0.148 NA
HETATM    4  C   UNL     1      41.427 -12.382   4.472  1.00  0.00     0.115 C 
HETATM    5  C   UNL     1      41.964 -13.677   4.612  1.00  0.00     0.087 C 
ENDROOT
BRANCH   1   6
HETATM    6  N   UNL     1      43.284 -15.070   3.050  1.00  0.00    -0.311 N 
HETATM    7  C   UNL     1      42.674 -16.275   2.716  1.00  0.00     0.227 C 
HETATM    8  O   UNL     1      41.455 -16.453   2.694  1.00  0.00    -0.273 OA
HETATM    9  H   UNL     1      44.163 -14.873   2.582  1.00  0.00     0.170 HD
BRANCH   7  10
HETATM   10  C   UNL     1      43.623 -17.406   2.351  1.00  0.00     0.142 C 
BRANCH  10  11
HETATM   11  C   UNL     1      43.962 -18.376   3.470  1.00  0.00    -0.038 A 
HETATM   12  C   UNL     1      44.121 -19.774   3.248  1.00  0.00    -0.019 A 
HETATM   13  C   UNL     1      44.490 -20.598   4.342  1.00  0.00    -0.025 A 
HETATM   14  C   UNL     1      43.947 -20.400   1.990  1.00  0.00     0.013 A 
HETATM   15  C   UNL     1      44.693 -21.974   4.151  1.00  0.00     0.012 A 
HETATM   16  C   UNL     1      44.654 -20.038   5.616  1.00  0.00     0.012 A 
HETATM   17  C   UNL     1      44.537 -22.556   2.894  1.00  0.00     0.001 A 
HETATM   18  C   UNL     1      44.162 -21.769   1.815  1.00  0.00     0.001 A 
HETATM   19  C   UNL     1      44.470 -18.674   5.828  1.00  0.00     0.001 A 
HETATM   20  C   UNL     1      44.130 -17.849   4.763  1.00  0.00     0.008 A 
ENDBRANCH  10  11
ENDBRANCH   7  10
ENDBRANCH   1   6
BRANCH   2  21
HETATM   21  C   UNL     1      42.033 -12.937   1.100  1.00  0.00     0.732 A 
HETATM   22  N   UNL     1      42.461 -11.947   0.382  1.00  0.00    -0.067 NA
HETATM   23  C   UNL     1      42.313 -12.069  -0.982  1.00  0.00     0.065 A 
HETATM   24  C   UNL     1      41.847 -13.172  -1.597  1.00  0.00     0.036 A 
HETATM   25  C   UNL     1      42.687 -10.835  -1.771  1.00  0.00     0.060 C 
HETATM   26  C   UNL     1      41.636 -13.292  -3.076  1.00  0.00     0.046 C 
HETATM   27  C   UNL     1      41.474 -14.330  -0.751  1.00  0.00     0.268 A 
HETATM   28  C   UNL     1      41.635 -11.934  -3.780  1.00  0.00     0.005 C 
HETATM   29  C   UNL     1      42.780 -11.062  -3.281  1.00  0.00     0.006 C 
HETATM   30  O   UNL     1      41.130 -15.406  -1.225  1.00  0.00    -0.267 OA
HETATM   31  N   UNL     1      41.539 -14.106   0.587  1.00  0.00    -0.152 N 
HETATM   32  H   UNL     1      41.293 -14.854   1.226  1.00  0.00     0.188 HD
ENDBRANCH   2  21
BRANCH   4  33
HETATM   33  C   UNL     1      40.905 -11.554   5.598  1.00  0.00     0.105 A 
HETATM   34  O   UNL     1      40.140 -12.040   6.624  1.00  0.00    -0.320 OA
HETATM   35  C   UNL     1      39.897 -11.006   7.471  1.00  0.00     0.142 A 
HETATM   36  C   UNL     1      40.483  -9.854   7.006  1.00  0.00     0.027 A 
HETATM   37  C   UNL     1      41.130 -10.205   5.796  1.00  0.00     0.041 A 
ENDBRANCH   4  33
TORSDOF 5
ENDMDL
MODEL 8
REMARK VINA RESULT:     -10.2      2.198      6.310
REMARK  5 active torsions:
REMARK  status: ('A' for Active; 'I' for Inactive)
REMARK    1  A    between atoms: C_5  and  C_6 
REMARK    2  A    between atoms: C_6  and  C_7 
REMARK       I    between atoms: C_7  and  N_8 
REMARK    3  A    between atoms: N_8  and  C_9 
REMARK    4  A    between atoms: N_10  and  C_11 
REMARK    5  A    between atoms: C_23  and  C_24 
ROOT
HETATM    1  C   UNL     1      42.406 -13.023   5.111  1.00  0.00     0.152 C 
HETATM    2  N   UNL     1      41.847 -12.402   3.996  1.00  0.00    -0.044 N 
HETATM    3  N   UNL     1      41.323 -11.173   4.325  1.00  0.00    -0.148 NA
HETATM    4  C   UNL     1      41.441 -11.112   5.656  1.00  0.00     0.115 C 
HETATM    5  C   UNL     1      42.027 -12.272   6.200  1.00  0.00     0.087 C 
ENDROOT
BRANCH   1   6
HETATM    6  N   UNL     1      43.189 -14.169   5.116  1.00  0.00    -0.311 N 
HETATM    7  C   UNL     1      42.565 -15.409   5.204  1.00  0.00     0.227 C 
HETATM    8  O   UNL     1      41.346 -15.569   5.284  1.00  0.00    -0.273 OA
HETATM    9  H   UNL     1      44.048 -14.142   4.576  1.00  0.00     0.170 HD
BRANCH   7  10
HETATM   10  C   UNL     1      43.498 -16.610   5.180  1.00  0.00     0.142 C 
BRANCH  10  11
HETATM   11  C   UNL     1      43.598 -17.347   3.855  1.00  0.00    -0.038 A 
HETATM   12  C   UNL     1      43.986 -18.716   3.768  1.00  0.00    -0.019 A 
HETATM   13  C   UNL     1      43.999 -19.337   2.493  1.00  0.00    -0.025 A 
HETATM   14  C   UNL     1      44.349 -19.507   4.884  1.00  0.00     0.013 A 
HETATM   15  C   UNL     1      44.340 -20.695   2.375  1.00  0.00     0.012 A 
HETATM   16  C   UNL     1      43.671 -18.598   1.349  1.00  0.00     0.012 A 
HETATM   17  C   UNL     1      44.669 -21.453   3.497  1.00  0.00     0.001 A 
HETATM   18  C   UNL     1      44.676 -20.858   4.750  1.00  0.00     0.001 A 
HETATM   19  C   UNL     1      43.319 -17.254   1.442  1.00  0.00     0.001 A 
HETATM   20  C   UNL     1      43.278 -16.634   2.685  1.00  0.00     0.008 A 
ENDBRANCH  10  11
ENDBRANCH   7  10
ENDBRANCH   1   6
BRANCH   2  21
HETATM   21  C   UNL     1      41.652 -12.889   2.684  1.00  0.00     0.732 A 
HETATM   22  N   UNL     1      42.235 -12.420   1.627  1.00  0.00    -0.067 NA
HETATM   23  C   UNL     1      41.884 -12.993   0.425  1.00  0.00     0.065 A 
HETATM   24  C   UNL     1      41.060 -14.050   0.302  1.00  0.00     0.036 A 
HETATM   25  C   UNL     1      42.475 -12.319  -0.793  1.00  0.00     0.060 C 
HETATM   26  C   UNL     1      40.634 -14.645  -1.006  1.00  0.00     0.046 C 
HETATM   27  C   UNL     1      40.498 -14.636   1.542  1.00  0.00     0.268 A 
HETATM   28  C   UNL     1      40.912 -13.717  -2.190  1.00  0.00     0.005 C 
HETATM   29  C   UNL     1      42.306 -13.112  -2.091  1.00  0.00     0.006 C 
HETATM   30  O   UNL     1      39.815 -15.653   1.537  1.00  0.00    -0.267 OA
HETATM   31  N   UNL     1      40.795 -13.957   2.681  1.00  0.00    -0.152 N 
HETATM   32  H   UNL     1      40.439 -14.300   3.567  1.00  0.00     0.188 HD
ENDBRANCH   2  21
BRANCH   4  33
HETATM   33  C   UNL     1      41.034  -9.915   6.451  1.00  0.00     0.105 A 
HETATM   34  O   UNL     1      41.864  -8.870   6.753  1.00  0.00    -0.320 OA
HETATM   35  C   UNL     1      41.131  -7.960   7.445  1.00  0.00     0.142 A 
HETATM   36  C   UNL     1      39.840  -8.402   7.605  1.00  0.00     0.027 A 
HETATM   37  C   UNL     1      39.778  -9.665   6.968  1.00  0.00     0.041 A 
ENDBRANCH   4  33
TORSDOF 5
ENDMDL
MODEL 9
REMARK VINA RESULT:     -10.0      3.139      8.761
REMARK  5 active torsions:
REMARK  status: ('A' for Active; 'I' for Inactive)
REMARK    1  A    between atoms: C_5  and  C_6 
REMARK    2  A    between atoms: C_6  and  C_7 
REMARK       I    between atoms: C_7  and  N_8 
REMARK    3  A    between atoms: N_8  and  C_9 
REMARK    4  A    between atoms: N_10  and  C_11 
REMARK    5  A    between atoms: C_23  and  C_24 
ROOT
HETATM    1  C   UNL     1      43.040 -14.397   5.717  1.00  0.00     0.152 C 
HETATM    2  N   UNL     1      43.674 -15.476   6.328  1.00  0.00    -0.044 N 
HETATM    3  N   UNL     1      44.357 -15.076   7.455  1.00  0.00    -0.148 NA
HETATM    4  C   UNL     1      44.250 -13.742   7.446  1.00  0.00     0.115 C 
HETATM    5  C   UNL     1      43.517 -13.267   6.340  1.00  0.00     0.087 C 
ENDROOT
BRANCH   1   6
HETATM    6  N   UNL     1      42.113 -14.456   4.686  1.00  0.00    -0.311 N 
HETATM    7  C   UNL     1      40.797 -14.792   4.983  1.00  0.00     0.227 C 
HETATM    8  O   UNL     1      40.385 -15.051   6.116  1.00  0.00    -0.273 OA
HETATM    9  H   UNL     1      42.242 -13.811   3.912  1.00  0.00     0.170 HD
BRANCH   7  10
HETATM   10  C   UNL     1      39.845 -14.811   3.797  1.00  0.00     0.142 C 
BRANCH  10  11
HETATM   11  C   UNL     1      40.395 -15.408   2.514  1.00  0.00    -0.038 A 
HETATM   12  C   UNL     1      40.679 -14.620   1.361  1.00  0.00    -0.019 A 
HETATM   13  C   UNL     1      41.241 -15.255   0.225  1.00  0.00    -0.025 A 
HETATM   14  C   UNL     1      40.445 -13.226   1.281  1.00  0.00     0.013 A 
HETATM   15  C   UNL     1      41.568 -14.500  -0.914  1.00  0.00     0.012 A 
HETATM   16  C   UNL     1      41.473 -16.636   0.238  1.00  0.00     0.012 A 
HETATM   17  C   UNL     1      41.348 -13.125  -0.952  1.00  0.00     0.001 A 
HETATM   18  C   UNL     1      40.785 -12.488   0.144  1.00  0.00     0.001 A 
HETATM   19  C   UNL     1      41.168 -17.403   1.359  1.00  0.00     0.001 A 
HETATM   20  C   UNL     1      40.637 -16.794   2.490  1.00  0.00     0.008 A 
ENDBRANCH  10  11
ENDBRANCH   7  10
ENDBRANCH   1   6
BRANCH   2  21
HETATM   21  C   UNL     1      43.801 -16.819   5.905  1.00  0.00     0.732 A 
HETATM   22  N   UNL     1      43.706 -17.851   6.682  1.00  0.00    -0.067 NA
HETATM   23  C   UNL     1      43.905 -19.081   6.096  1.00  0.00     0.065 A 
HETATM   24  C   UNL     1      44.092 -19.271   4.777  1.00  0.00     0.036 A 
HETATM   25  C   UNL     1      43.932 -20.244   7.063  1.00  0.00     0.060 C 
HETATM   26  C   UNL     1      44.360 -20.602   4.142  1.00  0.00     0.046 C 
HETATM   27  C   UNL     1      44.081 -18.077   3.899  1.00  0.00     0.268 A 
HETATM   28  C   UNL     1      44.776 -21.664   5.160  1.00  0.00     0.005 C 
HETATM   29  C   UNL     1      43.880 -21.618   6.391  1.00  0.00     0.006 C 
HETATM   30  O   UNL     1      44.150 -18.159   2.678  1.00  0.00    -0.267 OA
HETATM   31  N   UNL     1      43.991 -16.888   4.551  1.00  0.00    -0.152 N 
HETATM   32  H   UNL     1      43.983 -16.029   4.011  1.00  0.00     0.188 HD
ENDBRANCH   2  21
BRANCH   4  33
HETATM   33  C   UNL     1      44.813 -12.878   8.524  1.00  0.00     0.105 A 
HETATM   34  O   UNL     1      44.389 -12.892   9.825  1.00  0.00    -0.320 OA
HETATM   35  C   UNL     1      45.160 -12.010  10.511  1.00  0.00     0.142 A 
HETATM   36  C   UNL     1      46.074 -11.417   9.674  1.00  0.00     0.027 A 
HETATM   37  C   UNL     1      45.848 -11.973   8.391  1.00  0.00     0.041 A 
ENDBRANCH   4  33
TORSDOF 5
ENDMDL
MODEL 10
REMARK VINA RESULT:      -9.9      2.312      8.053
REMARK  5 active torsions:
REMARK  status: ('A' for Active; 'I' for Inactive)
REMARK    1  A    between atoms: C_5  and  C_6 
REMARK    2  A    between atoms: C_6  and  C_7 
REMARK       I    between atoms: C_7  and  N_8 
REMARK    3  A    between atoms: N_8  and  C_9 
REMARK    4  A    between atoms: N_10  and  C_11 
REMARK    5  A    between atoms: C_23  and  C_24 
ROOT
HETATM    1  C   UNL     1      41.464 -16.910   3.004  1.00  0.00     0.152 C 
HETATM    2  N   UNL     1      41.891 -16.897   1.679  1.00  0.00    -0.044 N 
HETATM    3  N   UNL     1      42.680 -17.991   1.402  1.00  0.00    -0.148 NA
HETATM    4  C   UNL     1      42.841 -18.587   2.589  1.00  0.00     0.115 C 
HETATM    5  C   UNL     1      42.178 -17.906   3.629  1.00  0.00     0.087 C 
ENDROOT
BRANCH   1   6
HETATM    6  N   UNL     1      40.508 -16.082   3.575  1.00  0.00    -0.311 N 
HETATM    7  C   UNL     1      40.903 -14.851   4.089  1.00  0.00     0.227 C 
HETATM    8  O   UNL     1      42.064 -14.436   4.081  1.00  0.00    -0.273 OA
HETATM    9  H   UNL     1      39.573 -16.117   3.180  1.00  0.00     0.170 HD
BRANCH   7  10
HETATM   10  C   UNL     1      39.787 -14.001   4.674  1.00  0.00     0.142 C 
BRANCH  10  11
HETATM   11  C   UNL     1      39.435 -12.742   3.900  1.00  0.00    -0.038 A 
HETATM   12  C   UNL     1      38.929 -12.778   2.568  1.00  0.00    -0.019 A 
HETATM   13  C   UNL     1      38.578 -11.555   1.942  1.00  0.00    -0.025 A 
HETATM   14  C   UNL     1      38.739 -13.969   1.828  1.00  0.00     0.013 A 
HETATM   15  C   UNL     1      38.040 -11.557   0.645  1.00  0.00     0.012 A 
HETATM   16  C   UNL     1      38.765 -10.342   2.618  1.00  0.00     0.012 A 
HETATM   17  C   UNL     1      37.842 -12.750  -0.049  1.00  0.00     0.001 A 
HETATM   18  C   UNL     1      38.194 -13.954   0.541  1.00  0.00     0.001 A 
HETATM   19  C   UNL     1      39.286 -10.316   3.909  1.00  0.00     0.001 A 
HETATM   20  C   UNL     1      39.615 -11.506   4.547  1.00  0.00     0.008 A 
ENDBRANCH  10  11
ENDBRANCH   7  10
ENDBRANCH   1   6
BRANCH   2  21
HETATM   21  C   UNL     1      41.733 -15.910   0.679  1.00  0.00     0.732 A 
HETATM   22  N   UNL     1      41.204 -16.115  -0.485  1.00  0.00    -0.067 NA
HETATM   23  C   UNL     1      41.178 -15.041  -1.346  1.00  0.00     0.065 A 
HETATM   24  C   UNL     1      41.575 -13.797  -1.018  1.00  0.00     0.036 A 
HETATM   25  C   UNL     1      40.689 -15.361  -2.741  1.00  0.00     0.060 C 
HETATM   26  C   UNL     1      41.596 -12.637  -1.966  1.00  0.00     0.046 C 
HETATM   27  C   UNL     1      42.069 -13.571   0.360  1.00  0.00     0.268 A 
HETATM   28  C   UNL     1      41.489 -13.072  -3.429  1.00  0.00     0.005 C 
HETATM   29  C   UNL     1      40.405 -14.129  -3.603  1.00  0.00     0.006 C 
HETATM   30  O   UNL     1      42.363 -12.457   0.778  1.00  0.00    -0.267 OA
HETATM   31  N   UNL     1      42.173 -14.691   1.122  1.00  0.00    -0.152 N 
HETATM   32  H   UNL     1      42.509 -14.610   2.075  1.00  0.00     0.188 HD
ENDBRANCH   2  21
BRANCH   4  33
HETATM   33  C   UNL     1      43.602 -19.860   2.758  1.00  0.00     0.105 A 
HETATM   34  O   UNL     1      44.357 -20.168   3.857  1.00  0.00    -0.320 OA
HETATM   35  C   UNL     1      44.856 -21.416   3.667  1.00  0.00     0.142 A 
HETATM   36  C   UNL     1      44.444 -21.921   2.457  1.00  0.00     0.027 A 
HETATM   37  C   UNL     1      43.639 -20.916   1.868  1.00  0.00     0.041 A 
ENDBRANCH   4  33
TORSDOF 5
ENDMDL
