MODEL 1
REMARK VINA RESULT:      -9.9      0.000      0.000
REMARK  4 active torsions:
REMARK  status: ('A' for Active; 'I' for Inactive)
REMARK       I    between atoms: N_10  and  C_11 
REMARK    1  A    between atoms: C_11  and  C_12 
REMARK    2  A    between atoms: C_14  and  O_15 
REMARK    3  A    between atoms: O_15  and  C_16 
REMARK    4  A    between atoms: C_16  and  C_17 
ROOT
HETATM    1  C   UNL     1      41.141 -12.897   5.046  1.00  0.00     0.034 A 
HETATM    2  C   UNL     1      41.190 -14.210   5.531  1.00  0.00     0.053 A 
HETATM    3  C   UNL     1      42.142 -15.096   5.026  1.00  0.00     0.070 A 
HETATM    4  C   UNL     1      43.023 -14.660   4.030  1.00  0.00     0.037 A 
HETATM    5  C   UNL     1      42.953 -13.361   3.525  1.00  0.00     0.004 A 
HETATM    6  C   UNL     1      42.002 -12.477   4.027  1.00  0.00     0.017 A 
ENDROOT
BRANCH   1   7
HETATM    7  C   UNL     1      40.104 -11.985   5.577  1.00  0.00     0.254 C 
HETATM    8  N   UNL     1      40.427 -11.121   6.618  1.00  0.00    -0.343 N 
HETATM    9  C   UNL     1      41.721 -11.136   7.336  1.00  0.00     0.167 C 
HETATM   10  C   UNL     1      39.466 -10.054   6.963  1.00  0.00     0.132 C 
HETATM   11  C   UNL     1      41.556 -10.642   8.738  1.00  0.00    -0.005 A 
HETATM   12  C   UNL     1      42.517 -10.558   9.787  1.00  0.00     0.000 A 
HETATM   13  C   UNL     1      40.372 -10.144   9.237  1.00  0.00     0.020 A 
HETATM   14  C   UNL     1      43.882 -10.892   9.901  1.00  0.00     0.014 A 
HETATM   15  C   UNL     1      41.868 -10.006  10.896  1.00  0.00     0.043 A 
HETATM   16  C   UNL     1      44.547 -10.662  11.111  1.00  0.00     0.001 A 
HETATM   17  C   UNL     1      43.876 -10.108  12.198  1.00  0.00     0.002 A 
HETATM   18  C   UNL     1      42.522  -9.770  12.113  1.00  0.00     0.030 A 
HETATM   19  N   UNL     1      40.557  -9.774  10.536  1.00  0.00    -0.358 N 
HETATM   20  H   UNL     1      39.855  -9.382  11.148  1.00  0.00     0.166 HD
HETATM   21  C   UNL     1      39.109 -10.040   8.463  1.00  0.00     0.077 C 
HETATM   22  O   UNL     1      38.991 -12.042   5.056  1.00  0.00    -0.267 OA
ENDBRANCH   1   7
BRANCH   3  23
HETATM   23  O   UNL     1      42.318 -16.396   5.406  1.00  0.00    -0.345 OA
BRANCH  23  24
HETATM   24  C   UNL     1      43.665 -16.869   5.530  1.00  0.00     0.236 C 
BRANCH  24  25
HETATM   25  C   UNL     1      43.857 -18.145   4.774  1.00  0.00     0.077 A 
HETATM   26  N   UNL     1      43.397 -18.270   3.476  1.00  0.00    -0.232 NA
HETATM   27  C   UNL     1      43.696 -19.499   3.112  1.00  0.00     0.134 A 
HETATM   28  N   UNL     1      44.350 -20.186   4.128  1.00  0.00    -0.316 N 
HETATM   29  C   UNL     1      43.457 -20.209   1.900  1.00  0.00     0.051 A 
HETATM   30  C   UNL     1      44.465 -19.318   5.181  1.00  0.00     0.127 A 
HETATM   31  C   UNL     1      44.772 -21.509   4.017  1.00  0.00     0.098 A 
HETATM   32  C   UNL     1      44.541 -22.175   2.873  1.00  0.00     0.018 A 
HETATM   33  C   UNL     1      43.859 -21.490   1.784  1.00  0.00     0.005 A 
ENDBRANCH  24  25
ENDBRANCH  23  24
ENDBRANCH   3  23
TORSDOF 4
ENDMDL
MODEL 2
REMARK VINA RESULT:      -9.8      4.646      9.145
REMARK  4 active torsions:
REMARK  status: ('A' for Active; 'I' for Inactive)
REMARK       I    between atoms: N_10  and  C_11 
REMARK    1  A    between atoms: C_11  and  C_12 
REMARK    2  A    between atoms: C_14  and  O_15 
REMARK    3  A    between atoms: O_15  and  C_16 
REMARK    4  A    between atoms: C_16  and  C_17 
ROOT
HETATM    1  C   UNL     1      41.990 -14.771   4.465  1.00  0.00     0.034 A 
HETATM    2  C   UNL     1      42.579 -14.248   3.306  1.00  0.00     0.053 A 
HETATM    3  C   UNL     1      41.768 -13.820   2.256  1.00  0.00     0.070 A 
HETATM    4  C   UNL     1      40.378 -13.933   2.371  1.00  0.00     0.037 A 
HETATM    5  C   UNL     1      39.794 -14.483   3.513  1.00  0.00     0.004 A 
HETATM    6  C   UNL     1      40.602 -14.914   4.562  1.00  0.00     0.017 A 
ENDROOT
BRANCH   1   7
HETATM    7  C   UNL     1      42.872 -15.246   5.554  1.00  0.00     0.254 C 
HETATM    8  N   UNL     1      43.676 -16.361   5.339  1.00  0.00    -0.343 N 
HETATM    9  C   UNL     1      43.619 -17.203   4.123  1.00  0.00     0.167 C 
HETATM   10  C   UNL     1      44.723 -16.669   6.335  1.00  0.00     0.132 C 
HETATM   11  C   UNL     1      44.033 -18.606   4.429  1.00  0.00    -0.005 A 
HETATM   12  C   UNL     1      44.057 -19.749   3.577  1.00  0.00     0.000 A 
HETATM   13  C   UNL     1      44.504 -19.013   5.659  1.00  0.00     0.020 A 
HETATM   14  C   UNL     1      43.715 -19.979   2.229  1.00  0.00     0.014 A 
HETATM   15  C   UNL     1      44.546 -20.817   4.336  1.00  0.00     0.043 A 
HETATM   16  C   UNL     1      43.876 -21.260   1.689  1.00  0.00     0.001 A 
HETATM   17  C   UNL     1      44.369 -22.305   2.468  1.00  0.00     0.002 A 
HETATM   18  C   UNL     1      44.713 -22.104   3.808  1.00  0.00     0.030 A 
HETATM   19  N   UNL     1      44.800 -20.342   5.606  1.00  0.00    -0.358 N 
HETATM   20  H   UNL     1      45.158 -20.902   6.368  1.00  0.00     0.166 HD
HETATM   21  C   UNL     1      44.652 -18.123   6.839  1.00  0.00     0.077 C 
HETATM   22  O   UNL     1      42.845 -14.615   6.609  1.00  0.00    -0.267 OA
ENDBRANCH   1   7
BRANCH   3  23
HETATM   23  O   UNL     1      42.194 -13.281   1.074  1.00  0.00    -0.345 OA
BRANCH  23  24
HETATM   24  C   UNL     1      41.259 -12.479   0.341  1.00  0.00     0.236 C 
BRANCH  24  25
HETATM   25  C   UNL     1      40.551 -13.295  -0.694  1.00  0.00     0.077 A 
HETATM   26  N   UNL     1      41.200 -14.332  -1.338  1.00  0.00    -0.232 NA
HETATM   27  C   UNL     1      40.324 -14.822  -2.190  1.00  0.00     0.134 A 
HETATM   28  N   UNL     1      39.112 -14.144  -2.120  1.00  0.00    -0.316 N 
HETATM   29  C   UNL     1      40.420 -15.881  -3.138  1.00  0.00     0.051 A 
HETATM   30  C   UNL     1      39.253 -13.181  -1.156  1.00  0.00     0.127 A 
HETATM   31  C   UNL     1      38.012 -14.447  -2.919  1.00  0.00     0.098 A 
HETATM   32  C   UNL     1      38.109 -15.445  -3.814  1.00  0.00     0.018 A 
HETATM   33  C   UNL     1      39.361 -16.180  -3.917  1.00  0.00     0.005 A 
ENDBRANCH  24  25
ENDBRANCH  23  24
ENDBRANCH   3  23
TORSDOF 4
ENDMDL
MODEL 3
REMARK VINA RESULT:      -9.6      1.933      9.868
REMARK  4 active torsions:
REMARK  status: ('A' for Active; 'I' for Inactive)
REMARK       I    between atoms: N_10  and  C_11 
REMARK    1  A    between atoms: C_11  and  C_12 
REMARK    2  A    between atoms: C_14  and  O_15 
REMARK    3  A    between atoms: O_15  and  C_16 
REMARK    4  A    between atoms: C_16  and  C_17 
ROOT
HETATM    1  C   UNL     1      41.273 -14.149   3.765  1.00  0.00     0.034 A 
HETATM    2  C   UNL     1      42.105 -13.305   4.512  1.00  0.00     0.053 A 
HETATM    3  C   UNL     1      41.620 -12.720   5.682  1.00  0.00     0.070 A 
HETATM    4  C   UNL     1      40.303 -12.975   6.080  1.00  0.00     0.037 A 
HETATM    5  C   UNL     1      39.465 -13.790   5.318  1.00  0.00     0.004 A 
HETATM    6  C   UNL     1      39.947 -14.373   4.149  1.00  0.00     0.017 A 
ENDROOT
BRANCH   1   7
HETATM    7  C   UNL     1      41.801 -14.735   2.513  1.00  0.00     0.254 C 
HETATM    8  N   UNL     1      42.146 -16.082   2.486  1.00  0.00    -0.343 N 
HETATM    9  C   UNL     1      42.147 -16.962   3.676  1.00  0.00     0.167 C 
HETATM   10  C   UNL     1      42.430 -16.704   1.177  1.00  0.00     0.132 C 
HETATM   11  C   UNL     1      43.147 -18.062   3.523  1.00  0.00    -0.005 A 
HETATM   12  C   UNL     1      43.523 -19.080   4.447  1.00  0.00     0.000 A 
HETATM   13  C   UNL     1      43.880 -18.273   2.374  1.00  0.00     0.020 A 
HETATM   14  C   UNL     1      43.135 -19.407   5.762  1.00  0.00     0.014 A 
HETATM   15  C   UNL     1      44.483 -19.877   3.814  1.00  0.00     0.043 A 
HETATM   16  C   UNL     1      43.714 -20.513   6.395  1.00  0.00     0.001 A 
HETATM   17  C   UNL     1      44.666 -21.291   5.739  1.00  0.00     0.002 A 
HETATM   18  C   UNL     1      45.070 -20.987   4.436  1.00  0.00     0.030 A 
HETATM   19  N   UNL     1      44.690 -19.354   2.555  1.00  0.00    -0.358 N 
HETATM   20  H   UNL     1      45.339 -19.730   1.877  1.00  0.00     0.166 HD
HETATM   21  C   UNL     1      43.786 -17.438   1.150  1.00  0.00     0.077 C 
HETATM   22  O   UNL     1      41.906 -13.983   1.546  1.00  0.00    -0.267 OA
ENDBRANCH   1   7
BRANCH   3  23
HETATM   23  O   UNL     1      42.312 -11.889   6.517  1.00  0.00    -0.345 OA
BRANCH  23  24
HETATM   24  C   UNL     1      41.616 -10.749   7.036  1.00  0.00     0.236 C 
BRANCH  24  25
HETATM   25  C   UNL     1      41.856 -10.599   8.505  1.00  0.00     0.077 A 
HETATM   26  N   UNL     1      43.134 -10.411   8.995  1.00  0.00    -0.232 NA
HETATM   27  C   UNL     1      43.006 -10.342  10.303  1.00  0.00     0.134 A 
HETATM   28  N   UNL     1      41.677 -10.468  10.691  1.00  0.00    -0.316 N 
HETATM   29  C   UNL     1      43.970 -10.177  11.339  1.00  0.00     0.051 A 
HETATM   30  C   UNL     1      40.943 -10.617   9.544  1.00  0.00     0.127 A 
HETATM   31  C   UNL     1      41.255 -10.442  12.018  1.00  0.00     0.098 A 
HETATM   32  C   UNL     1      42.169 -10.290  12.992  1.00  0.00     0.018 A 
HETATM   33  C   UNL     1      43.571 -10.153  12.626  1.00  0.00     0.005 A 
ENDBRANCH  24  25
ENDBRANCH  23  24
ENDBRANCH   3  23
TORSDOF 4
ENDMDL
MODEL 4
REMARK VINA RESULT:      -9.5      2.337     10.339
REMARK  4 active torsions:
REMARK  status: ('A' for Active; 'I' for Inactive)
REMARK       I    between atoms: N_10  and  C_11 
REMARK    1  A    between atoms: C_11  and  C_12 
REMARK    2  A    between atoms: C_14  and  O_15 
REMARK    3  A    between atoms: O_15  and  C_16 
REMARK    4  A    between atoms: C_16  and  C_17 
ROOT
HETATM    1  C   UNL     1      43.033 -13.692   5.867  1.00  0.00     0.034 A 
HETATM    2  C   UNL     1      42.880 -12.595   6.726  1.00  0.00     0.053 A 
HETATM    3  C   UNL     1      43.822 -12.369   7.728  1.00  0.00     0.070 A 
HETATM    4  C   UNL     1      44.900 -13.251   7.869  1.00  0.00     0.037 A 
HETATM    5  C   UNL     1      45.034 -14.361   7.033  1.00  0.00     0.004 A 
HETATM    6  C   UNL     1      44.093 -14.590   6.034  1.00  0.00     0.017 A 
ENDROOT
BRANCH   1   7
HETATM    7  C   UNL     1      42.004 -13.928   4.830  1.00  0.00     0.254 C 
HETATM    8  N   UNL     1      41.806 -15.220   4.353  1.00  0.00    -0.343 N 
HETATM    9  C   UNL     1      42.653 -16.378   4.717  1.00  0.00     0.167 C 
HETATM   10  C   UNL     1      40.619 -15.479   3.512  1.00  0.00     0.132 C 
HETATM   11  C   UNL     1      42.666 -17.392   3.619  1.00  0.00    -0.005 A 
HETATM   12  C   UNL     1      43.397 -18.612   3.521  1.00  0.00     0.000 A 
HETATM   13  C   UNL     1      41.899 -17.292   2.477  1.00  0.00     0.020 A 
HETATM   14  C   UNL     1      44.326 -19.272   4.351  1.00  0.00     0.014 A 
HETATM   15  C   UNL     1      43.042 -19.209   2.307  1.00  0.00     0.043 A 
HETATM   16  C   UNL     1      44.861 -20.499   3.944  1.00  0.00     0.001 A 
HETATM   17  C   UNL     1      44.486 -21.072   2.731  1.00  0.00     0.002 A 
HETATM   18  C   UNL     1      43.570 -20.437   1.888  1.00  0.00     0.030 A 
HETATM   19  N   UNL     1      42.135 -18.376   1.685  1.00  0.00    -0.358 N 
HETATM   20  H   UNL     1      41.712 -18.558   0.785  1.00  0.00     0.166 HD
HETATM   21  C   UNL     1      40.974 -16.168   2.181  1.00  0.00     0.077 C 
HETATM   22  O   UNL     1      41.368 -12.951   4.442  1.00  0.00    -0.267 OA
ENDBRANCH   1   7
BRANCH   3  23
HETATM   23  O   UNL     1      43.813 -11.341   8.629  1.00  0.00    -0.345 OA
BRANCH  23  24
HETATM   24  C   UNL     1      42.550 -10.729   8.917  1.00  0.00     0.236 C 
BRANCH  24  25
HETATM   25  C   UNL     1      42.391 -10.496  10.386  1.00  0.00     0.077 A 
HETATM   26  N   UNL     1      43.338  -9.779  11.092  1.00  0.00    -0.232 NA
HETATM   27  C   UNL     1      42.921  -9.778  12.341  1.00  0.00     0.134 A 
HETATM   28  N   UNL     1      41.719 -10.463  12.477  1.00  0.00    -0.316 N 
HETATM   29  C   UNL     1      43.486  -9.218  13.524  1.00  0.00     0.051 A 
HETATM   30  C   UNL     1      41.375 -10.908  11.229  1.00  0.00     0.127 A 
HETATM   31  C   UNL     1      41.058 -10.626  13.693  1.00  0.00     0.098 A 
HETATM   32  C   UNL     1      41.597 -10.099  14.805  1.00  0.00     0.018 A 
HETATM   33  C   UNL     1      42.854  -9.373  14.704  1.00  0.00     0.005 A 
ENDBRANCH  24  25
ENDBRANCH  23  24
ENDBRANCH   3  23
TORSDOF 4
ENDMDL
MODEL 5
REMARK VINA RESULT:      -9.4      5.178      9.962
REMARK  4 active torsions:
REMARK  status: ('A' for Active; 'I' for Inactive)
REMARK       I    between atoms: N_10  and  C_11 
REMARK    1  A    between atoms: C_11  and  C_12 
REMARK    2  A    between atoms: C_14  and  O_15 
REMARK    3  A    between atoms: O_15  and  C_16 
REMARK    4  A    between atoms: C_16  and  C_17 
ROOT
HETATM    1  C   UNL     1      41.289 -14.882   3.078  1.00  0.00     0.034 A 
HETATM    2  C   UNL     1      41.973 -14.534   1.906  1.00  0.00     0.053 A 
HETATM    3  C   UNL     1      41.274 -14.438   0.703  1.00  0.00     0.070 A 
HETATM    4  C   UNL     1      39.900 -14.706   0.685  1.00  0.00     0.037 A 
HETATM    5  C   UNL     1      39.226 -15.083   1.847  1.00  0.00     0.004 A 
HETATM    6  C   UNL     1      39.923 -15.181   3.048  1.00  0.00     0.017 A 
ENDROOT
BRANCH   1   7
HETATM    7  C   UNL     1      42.058 -15.006   4.336  1.00  0.00     0.254 C 
HETATM    8  N   UNL     1      42.989 -16.031   4.464  1.00  0.00    -0.343 N 
HETATM    9  C   UNL     1      43.181 -17.107   3.466  1.00  0.00     0.167 C 
HETATM   10  C   UNL     1      43.917 -15.991   5.613  1.00  0.00     0.132 C 
HETATM   11  C   UNL     1      43.685 -18.353   4.120  1.00  0.00    -0.005 A 
HETATM   12  C   UNL     1      43.937 -19.636   3.551  1.00  0.00     0.000 A 
HETATM   13  C   UNL     1      44.024 -18.433   5.454  1.00  0.00     0.020 A 
HETATM   14  C   UNL     1      43.805 -20.183   2.258  1.00  0.00     0.014 A 
HETATM   15  C   UNL     1      44.422 -20.453   4.577  1.00  0.00     0.043 A 
HETATM   16  C   UNL     1      44.163 -21.517   2.036  1.00  0.00     0.001 A 
HETATM   17  C   UNL     1      44.646 -22.307   3.077  1.00  0.00     0.002 A 
HETATM   18  C   UNL     1      44.784 -21.791   4.369  1.00  0.00     0.030 A 
HETATM   19  N   UNL     1      44.454 -19.697   5.730  1.00  0.00    -0.358 N 
HETATM   20  H   UNL     1      44.759 -20.037   6.632  1.00  0.00     0.166 HD
HETATM   21  C   UNL     1      43.923 -17.306   6.416  1.00  0.00     0.077 C 
HETATM   22  O   UNL     1      41.827 -14.178   5.215  1.00  0.00    -0.267 OA
ENDBRANCH   1   7
BRANCH   3  23
HETATM   23  O   UNL     1      41.799 -14.101  -0.512  1.00  0.00    -0.345 OA
BRANCH  23  24
HETATM   24  C   UNL     1      41.051 -14.468  -1.678  1.00  0.00     0.236 C 
BRANCH  24  25
HETATM   25  C   UNL     1      41.012 -13.345  -2.666  1.00  0.00     0.077 A 
HETATM   26  N   UNL     1      42.183 -12.801  -3.159  1.00  0.00    -0.232 NA
HETATM   27  C   UNL     1      41.809 -11.835  -3.971  1.00  0.00     0.134 A 
HETATM   28  N   UNL     1      40.424 -11.733  -4.037  1.00  0.00    -0.316 N 
HETATM   29  C   UNL     1      42.564 -10.912  -4.750  1.00  0.00     0.051 A 
HETATM   30  C   UNL     1      39.917 -12.705  -3.216  1.00  0.00     0.127 A 
HETATM   31  C   UNL     1      39.757 -10.788  -4.813  1.00  0.00     0.098 A 
HETATM   32  C   UNL     1      40.474  -9.917  -5.543  1.00  0.00     0.018 A 
HETATM   33  C   UNL     1      41.927  -9.992  -5.502  1.00  0.00     0.005 A 
ENDBRANCH  24  25
ENDBRANCH  23  24
ENDBRANCH   3  23
TORSDOF 4
ENDMDL
MODEL 6
REMARK VINA RESULT:      -9.1      1.257      1.874
REMARK  4 active torsions:
REMARK  status: ('A' for Active; 'I' for Inactive)
REMARK       I    between atoms: N_10  and  C_11 
REMARK    1  A    between atoms: C_11  and  C_12 
REMARK    2  A    between atoms: C_14  and  O_15 
REMARK    3  A    between atoms: O_15  and  C_16 
REMARK    4  A    between atoms: C_16  and  C_17 
ROOT
HETATM    1  C   UNL     1      41.029 -13.024   5.217  1.00  0.00     0.034 A 
HETATM    2  C   UNL     1      42.171 -13.494   4.554  1.00  0.00     0.053 A 
HETATM    3  C   UNL     1      42.456 -14.859   4.558  1.00  0.00     0.070 A 
HETATM    4  C   UNL     1      41.603 -15.736   5.237  1.00  0.00     0.037 A 
HETATM    5  C   UNL     1      40.484 -15.264   5.923  1.00  0.00     0.004 A 
HETATM    6  C   UNL     1      40.199 -13.901   5.923  1.00  0.00     0.017 A 
ENDROOT
BRANCH   1   7
HETATM    7  C   UNL     1      40.763 -11.569   5.224  1.00  0.00     0.254 C 
HETATM    8  N   UNL     1      41.338 -10.778   6.214  1.00  0.00    -0.343 N 
HETATM    9  C   UNL     1      42.107 -11.313   7.360  1.00  0.00     0.167 C 
HETATM   10  C   UNL     1      41.269  -9.311   6.062  1.00  0.00     0.132 C 
HETATM   11  C   UNL     1      42.007 -10.399   8.539  1.00  0.00    -0.005 A 
HETATM   12  C   UNL     1      42.528 -10.560   9.856  1.00  0.00     0.000 A 
HETATM   13  C   UNL     1      41.370  -9.177   8.506  1.00  0.00     0.020 A 
HETATM   14  C   UNL     1      43.269 -11.568  10.505  1.00  0.00     0.014 A 
HETATM   15  C   UNL     1      42.181  -9.414  10.578  1.00  0.00     0.043 A 
HETATM   16  C   UNL     1      43.638 -11.396  11.844  1.00  0.00     0.001 A 
HETATM   17  C   UNL     1      43.281 -10.242  12.538  1.00  0.00     0.002 A 
HETATM   18  C   UNL     1      42.544  -9.229  11.919  1.00  0.00     0.030 A 
HETATM   19  N   UNL     1      41.464  -8.592   9.733  1.00  0.00    -0.358 N 
HETATM   20  H   UNL     1      41.082  -7.694   9.994  1.00  0.00     0.166 HD
HETATM   21  C   UNL     1      40.694  -8.612   7.310  1.00  0.00     0.077 C 
HETATM   22  O   UNL     1      40.035 -11.130   4.335  1.00  0.00    -0.267 OA
ENDBRANCH   1   7
BRANCH   3  23
HETATM   23  O   UNL     1      43.520 -15.463   3.950  1.00  0.00    -0.345 OA
BRANCH  23  24
HETATM   24  C   UNL     1      43.285 -16.097   2.686  1.00  0.00     0.236 C 
BRANCH  24  25
HETATM   25  C   UNL     1      43.546 -17.567   2.767  1.00  0.00     0.077 A 
HETATM   26  N   UNL     1      44.064 -18.128   3.920  1.00  0.00    -0.232 NA
HETATM   27  C   UNL     1      44.196 -19.412   3.659  1.00  0.00     0.134 A 
HETATM   28  N   UNL     1      43.770 -19.717   2.372  1.00  0.00    -0.316 N 
HETATM   29  C   UNL     1      44.694 -20.488   4.449  1.00  0.00     0.051 A 
HETATM   30  C   UNL     1      43.342 -18.543   1.809  1.00  0.00     0.127 A 
HETATM   31  C   UNL     1      43.809 -20.999   1.830  1.00  0.00     0.098 A 
HETATM   32  C   UNL     1      44.282 -22.010   2.578  1.00  0.00     0.018 A 
HETATM   33  C   UNL     1      44.737 -21.732   3.932  1.00  0.00     0.005 A 
ENDBRANCH  24  25
ENDBRANCH  23  24
ENDBRANCH   3  23
TORSDOF 4
ENDMDL
MODEL 7
REMARK VINA RESULT:      -8.9      4.080      7.118
REMARK  4 active torsions:
REMARK  status: ('A' for Active; 'I' for Inactive)
REMARK       I    between atoms: N_10  and  C_11 
REMARK    1  A    between atoms: C_11  and  C_12 
REMARK    2  A    between atoms: C_14  and  O_15 
REMARK    3  A    between atoms: O_15  and  C_16 
REMARK    4  A    between atoms: C_16  and  C_17 
ROOT
HETATM    1  C   UNL     1      41.383 -14.003   4.990  1.00  0.00     0.034 A 
HETATM    2  C   UNL     1      42.677 -14.534   5.068  1.00  0.00     0.053 A 
HETATM    3  C   UNL     1      42.870 -15.796   5.629  1.00  0.00     0.070 A 
HETATM    4  C   UNL     1      41.767 -16.505   6.119  1.00  0.00     0.037 A 
HETATM    5  C   UNL     1      40.483 -15.961   6.070  1.00  0.00     0.004 A 
HETATM    6  C   UNL     1      40.289 -14.701   5.513  1.00  0.00     0.017 A 
ENDROOT
BRANCH   1   7
HETATM    7  C   UNL     1      41.207 -12.650   4.417  1.00  0.00     0.254 C 
HETATM    8  N   UNL     1      40.840 -12.521   3.081  1.00  0.00    -0.343 N 
HETATM    9  C   UNL     1      40.736 -13.655   2.136  1.00  0.00     0.167 C 
HETATM   10  C   UNL     1      40.428 -11.188   2.597  1.00  0.00     0.132 C 
HETATM   11  C   UNL     1      41.001 -13.205   0.736  1.00  0.00    -0.005 A 
HETATM   12  C   UNL     1      41.072 -13.972  -0.464  1.00  0.00     0.000 A 
HETATM   13  C   UNL     1      41.204 -11.888   0.382  1.00  0.00     0.020 A 
HETATM   14  C   UNL     1      40.943 -15.343  -0.764  1.00  0.00     0.014 A 
HETATM   15  C   UNL     1      41.321 -13.077  -1.510  1.00  0.00     0.043 A 
HETATM   16  C   UNL     1      41.063 -15.770  -2.092  1.00  0.00     0.001 A 
HETATM   17  C   UNL     1      41.308 -14.856  -3.114  1.00  0.00     0.002 A 
HETATM   18  C   UNL     1      41.444 -13.491  -2.843  1.00  0.00     0.030 A 
HETATM   19  N   UNL     1      41.409 -11.814  -0.964  1.00  0.00    -0.358 N 
HETATM   20  H   UNL     1      41.589 -10.971  -1.492  1.00  0.00     0.166 HD
HETATM   21  C   UNL     1      41.199 -10.750   1.337  1.00  0.00     0.077 C 
HETATM   22  O   UNL     1      41.398 -11.697   5.169  1.00  0.00    -0.267 OA
ENDBRANCH   1   7
BRANCH   3  23
HETATM   23  O   UNL     1      44.064 -16.447   5.763  1.00  0.00    -0.345 OA
BRANCH  23  24
HETATM   24  C   UNL     1      44.065 -17.675   6.502  1.00  0.00     0.236 C 
BRANCH  24  25
HETATM   25  C   UNL     1      44.224 -18.849   5.588  1.00  0.00     0.077 A 
HETATM   26  N   UNL     1      44.140 -18.692   4.218  1.00  0.00    -0.232 NA
HETATM   27  C   UNL     1      44.296 -19.897   3.713  1.00  0.00     0.134 A 
HETATM   28  N   UNL     1      44.491 -20.846   4.710  1.00  0.00    -0.316 N 
HETATM   29  C   UNL     1      44.286 -20.365   2.367  1.00  0.00     0.051 A 
HETATM   30  C   UNL     1      44.459 -20.175   5.904  1.00  0.00     0.127 A 
HETATM   31  C   UNL     1      44.671 -22.204   4.459  1.00  0.00     0.098 A 
HETATM   32  C   UNL     1      44.657 -22.640   3.188  1.00  0.00     0.018 A 
HETATM   33  C   UNL     1      44.457 -21.678   2.114  1.00  0.00     0.005 A 
ENDBRANCH  24  25
ENDBRANCH  23  24
ENDBRANCH   3  23
TORSDOF 4
ENDMDL
MODEL 8
REMARK VINA RESULT:      -8.7      4.536      7.429
REMARK  4 active torsions:
REMARK  status: ('A' for Active; 'I' for Inactive)
REMARK       I    between atoms: N_10  and  C_11 
REMARK    1  A    between atoms: C_11  and  C_12 
REMARK    2  A    between atoms: C_14  and  O_15 
REMARK    3  A    between atoms: O_15  and  C_16 
REMARK    4  A    between atoms: C_16  and  C_17 
ROOT
HETATM    1  C   UNL     1      40.210 -14.335   2.622  1.00  0.00     0.034 A 
HETATM    2  C   UNL     1      41.376 -15.113   2.594  1.00  0.00     0.053 A 
HETATM    3  C   UNL     1      42.227 -15.117   3.698  1.00  0.00     0.070 A 
HETATM    4  C   UNL     1      41.911 -14.330   4.811  1.00  0.00     0.037 A 
HETATM    5  C   UNL     1      40.766 -13.531   4.825  1.00  0.00     0.004 A 
HETATM    6  C   UNL     1      39.916 -13.525   3.723  1.00  0.00     0.017 A 
ENDROOT
BRANCH   1   7
HETATM    7  C   UNL     1      39.338 -14.326   1.427  1.00  0.00     0.254 C 
HETATM    8  N   UNL     1      39.771 -13.677   0.275  1.00  0.00    -0.343 N 
HETATM    9  C   UNL     1      41.009 -12.869   0.194  1.00  0.00     0.167 C 
HETATM   10  C   UNL     1      39.010 -13.888  -0.973  1.00  0.00     0.132 C 
HETATM   11  C   UNL     1      40.878 -11.802  -0.845  1.00  0.00    -0.005 A 
HETATM   12  C   UNL     1      41.794 -10.768  -1.201  1.00  0.00     0.000 A 
HETATM   13  C   UNL     1      39.787 -11.675  -1.677  1.00  0.00     0.020 A 
HETATM   14  C   UNL     1      43.067 -10.379  -0.738  1.00  0.00     0.014 A 
HETATM   15  C   UNL     1      41.211 -10.045  -2.247  1.00  0.00     0.043 A 
HETATM   16  C   UNL     1      43.711  -9.289  -1.335  1.00  0.00     0.001 A 
HETATM   17  C   UNL     1      43.108  -8.589  -2.378  1.00  0.00     0.002 A 
HETATM   18  C   UNL     1      41.845  -8.953  -2.853  1.00  0.00     0.030 A 
HETATM   19  N   UNL     1      39.982 -10.613  -2.509  1.00  0.00    -0.358 N 
HETATM   20  H   UNL     1      39.338 -10.287  -3.217  1.00  0.00     0.166 HD
HETATM   21  C   UNL     1      38.598 -12.565  -1.647  1.00  0.00     0.077 C 
HETATM   22  O   UNL     1      38.257 -14.904   1.521  1.00  0.00    -0.267 OA
ENDBRANCH   1   7
BRANCH   3  23
HETATM   23  O   UNL     1      43.387 -15.829   3.822  1.00  0.00    -0.345 OA
BRANCH  23  24
HETATM   24  C   UNL     1      43.464 -16.781   4.890  1.00  0.00     0.236 C 
BRANCH  24  25
HETATM   25  C   UNL     1      43.748 -18.153   4.365  1.00  0.00     0.077 A 
HETATM   26  N   UNL     1      43.414 -18.493   3.068  1.00  0.00    -0.232 NA
HETATM   27  C   UNL     1      43.768 -19.754   2.931  1.00  0.00     0.134 A 
HETATM   28  N   UNL     1      44.336 -20.252   4.098  1.00  0.00    -0.316 N 
HETATM   29  C   UNL     1      43.656 -20.651   1.830  1.00  0.00     0.051 A 
HETATM   30  C   UNL     1      44.337 -19.227   5.006  1.00  0.00     0.127 A 
HETATM   31  C   UNL     1      44.790 -21.562   4.235  1.00  0.00     0.098 A 
HETATM   32  C   UNL     1      44.679 -22.405   3.195  1.00  0.00     0.018 A 
HETATM   33  C   UNL     1      44.090 -21.921   1.955  1.00  0.00     0.005 A 
ENDBRANCH  24  25
ENDBRANCH  23  24
ENDBRANCH   3  23
TORSDOF 4
ENDMDL
MODEL 9
REMARK VINA RESULT:      -8.5      4.026      7.519
REMARK  4 active torsions:
REMARK  status: ('A' for Active; 'I' for Inactive)
REMARK       I    between atoms: N_10  and  C_11 
REMARK    1  A    between atoms: C_11  and  C_12 
REMARK    2  A    between atoms: C_14  and  O_15 
REMARK    3  A    between atoms: O_15  and  C_16 
REMARK    4  A    between atoms: C_16  and  C_17 
ROOT
HETATM    1  C   UNL     1      40.316 -12.877   4.262  1.00  0.00     0.034 A 
HETATM    2  C   UNL     1      40.047 -14.182   4.697  1.00  0.00     0.053 A 
HETATM    3  C   UNL     1      41.048 -14.915   5.333  1.00  0.00     0.070 A 
HETATM    4  C   UNL     1      42.311 -14.341   5.513  1.00  0.00     0.037 A 
HETATM    5  C   UNL     1      42.588 -13.053   5.051  1.00  0.00     0.004 A 
HETATM    6  C   UNL     1      41.590 -12.320   4.413  1.00  0.00     0.017 A 
ENDROOT
BRANCH   1   7
HETATM    7  C   UNL     1      39.248 -12.129   3.564  1.00  0.00     0.254 C 
HETATM    8  N   UNL     1      38.862 -12.528   2.288  1.00  0.00    -0.343 N 
HETATM    9  C   UNL     1      39.544 -13.585   1.508  1.00  0.00     0.167 C 
HETATM   10  C   UNL     1      37.637 -11.937   1.712  1.00  0.00     0.132 C 
HETATM   11  C   UNL     1      39.397 -13.340   0.040  1.00  0.00    -0.005 A 
HETATM   12  C   UNL     1      39.949 -14.062  -1.058  1.00  0.00     0.000 A 
HETATM   13  C   UNL     1      38.633 -12.323  -0.492  1.00  0.00     0.020 A 
HETATM   14  C   UNL     1      40.789 -15.188  -1.173  1.00  0.00     0.014 A 
HETATM   15  C   UNL     1      39.493 -13.444  -2.227  1.00  0.00     0.043 A 
HETATM   16  C   UNL     1      41.140 -15.657  -2.444  1.00  0.00     0.001 A 
HETATM   17  C   UNL     1      40.668 -15.023  -3.592  1.00  0.00     0.002 A 
HETATM   18  C   UNL     1      39.836 -13.903  -3.506  1.00  0.00     0.030 A 
HETATM   19  N   UNL     1      38.701 -12.379  -1.852  1.00  0.00    -0.358 N 
HETATM   20  H   UNL     1      38.242 -11.750  -2.496  1.00  0.00     0.166 HD
HETATM   21  C   UNL     1      37.870 -11.335   0.313  1.00  0.00     0.077 C 
HETATM   22  O   UNL     1      38.749 -11.179   4.163  1.00  0.00    -0.267 OA
ENDBRANCH   1   7
BRANCH   3  23
HETATM   23  O   UNL     1      40.933 -16.187   5.819  1.00  0.00    -0.345 OA
BRANCH  23  24
HETATM   24  C   UNL     1      42.113 -16.796   6.359  1.00  0.00     0.236 C 
BRANCH  24  25
HETATM   25  C   UNL     1      42.697 -17.779   5.395  1.00  0.00     0.077 A 
HETATM   26  N   UNL     1      42.275 -17.810   4.078  1.00  0.00    -0.232 NA
HETATM   27  C   UNL     1      42.954 -18.786   3.513  1.00  0.00     0.134 A 
HETATM   28  N   UNL     1      43.820 -19.393   4.415  1.00  0.00    -0.316 N 
HETATM   29  C   UNL     1      42.935 -19.302   2.185  1.00  0.00     0.051 A 
HETATM   30  C   UNL     1      43.666 -18.742   5.610  1.00  0.00     0.127 A 
HETATM   31  C   UNL     1      44.650 -20.462   4.087  1.00  0.00     0.098 A 
HETATM   32  C   UNL     1      44.626 -20.947   2.834  1.00  0.00     0.018 A 
HETATM   33  C   UNL     1      43.734 -20.338   1.859  1.00  0.00     0.005 A 
ENDBRANCH  24  25
ENDBRANCH  23  24
ENDBRANCH   3  23
TORSDOF 4
ENDMDL
MODEL 10
REMARK VINA RESULT:      -8.4      5.488      8.745
REMARK  4 active torsions:
REMARK  status: ('A' for Active; 'I' for Inactive)
REMARK       I    between atoms: N_10  and  C_11 
REMARK    1  A    between atoms: C_11  and  C_12 
REMARK    2  A    between atoms: C_14  and  O_15 
REMARK    3  A    between atoms: O_15  and  C_16 
REMARK    4  A    between atoms: C_16  and  C_17 
ROOT
HETATM    1  C   UNL     1      39.039 -13.511   1.736  1.00  0.00     0.034 A 
HETATM    2  C   UNL     1      40.130 -14.314   2.096  1.00  0.00     0.053 A 
HETATM    3  C   UNL     1      40.920 -13.952   3.187  1.00  0.00     0.070 A 
HETATM    4  C   UNL     1      40.618 -12.784   3.896  1.00  0.00     0.037 A 
HETATM    5  C   UNL     1      39.550 -11.969   3.517  1.00  0.00     0.004 A 
HETATM    6  C   UNL     1      38.762 -12.327   2.427  1.00  0.00     0.017 A 
ENDROOT
BRANCH   1   7
HETATM    7  C   UNL     1      38.234 -13.899   0.557  1.00  0.00     0.254 C 
HETATM    8  N   UNL     1      38.734 -13.655  -0.718  1.00  0.00    -0.343 N 
HETATM    9  C   UNL     1      39.979 -12.902  -0.990  1.00  0.00     0.167 C 
HETATM   10  C   UNL     1      38.041 -14.268  -1.869  1.00  0.00     0.132 C 
HETATM   11  C   UNL     1      39.913 -12.230  -2.323  1.00  0.00    -0.005 A 
HETATM   12  C   UNL     1      40.853 -11.357  -2.945  1.00  0.00     0.000 A 
HETATM   13  C   UNL     1      38.870 -12.393  -3.209  1.00  0.00     0.020 A 
HETATM   14  C   UNL     1      42.101 -10.824  -2.565  1.00  0.00     0.014 A 
HETATM   15  C   UNL     1      40.333 -11.019  -4.199  1.00  0.00     0.043 A 
HETATM   16  C   UNL     1      42.785  -9.979  -3.448  1.00  0.00     0.001 A 
HETATM   17  C   UNL     1      42.244  -9.662  -4.692  1.00  0.00     0.002 A 
HETATM   18  C   UNL     1      41.007 -10.175  -5.092  1.00  0.00     0.030 A 
HETATM   19  N   UNL     1      39.117 -11.656  -4.329  1.00  0.00    -0.358 N 
HETATM   20  H   UNL     1      38.516 -11.585  -5.138  1.00  0.00     0.166 HD
HETATM   21  C   UNL     1      37.676 -13.240  -2.957  1.00  0.00     0.077 C 
HETATM   22  O   UNL     1      37.146 -14.429   0.775  1.00  0.00    -0.267 OA
ENDBRANCH   1   7
BRANCH   3  23
HETATM   23  O   UNL     1      42.004 -14.636   3.662  1.00  0.00    -0.345 OA
BRANCH  23  24
HETATM   24  C   UNL     1      41.756 -15.699   4.591  1.00  0.00     0.236 C 
BRANCH  24  25
HETATM   25  C   UNL     1      42.344 -16.984   4.102  1.00  0.00     0.077 A 
HETATM   26  N   UNL     1      43.219 -17.705   4.893  1.00  0.00    -0.232 NA
HETATM   27  C   UNL     1      43.566 -18.751   4.175  1.00  0.00     0.134 A 
HETATM   28  N   UNL     1      42.936 -18.749   2.935  1.00  0.00    -0.316 N 
HETATM   29  C   UNL     1      44.453 -19.833   4.449  1.00  0.00     0.051 A 
HETATM   30  C   UNL     1      42.147 -17.631   2.896  1.00  0.00     0.127 A 
HETATM   31  C   UNL     1      43.131 -19.735   1.970  1.00  0.00     0.098 A 
HETATM   32  C   UNL     1      43.971 -20.750   2.233  1.00  0.00     0.018 A 
HETATM   33  C   UNL     1      44.649 -20.789   3.520  1.00  0.00     0.005 A 
ENDBRANCH  24  25
ENDBRANCH  23  24
ENDBRANCH   3  23
TORSDOF 4
ENDMDL
