MODEL 1
REMARK VINA RESULT:      -7.3      0.000      0.000
REMARK  10 active torsions:
REMARK  status: ('A' for Active; 'I' for Inactive)
REMARK    1  A    between atoms: C_2  and  C_3 
REMARK    2  A    between atoms: C_3  and  N_4 
REMARK    3  A    between atoms: C_7  and  C_8 
REMARK       I    between atoms: C_8  and  N_9 
REMARK    4  A    between atoms: N_9  and  C_10 
REMARK    5  A    between atoms: C_10  and  C_11 
REMARK    6  A    between atoms: C_11  and  O_12 
REMARK    7  A    between atoms: C_11  and  C_13 
REMARK    8  A    between atoms: C_13  and  O_14 
REMARK    9  A    between atoms: O_14  and  C_15 
REMARK   10  A    between atoms: C_23  and  C_24 
ROOT
HETATM    1  C   UNL     1      43.181 -14.497   5.680  1.00  0.00     0.255 C 
HETATM    2  N   UNL     1      43.032 -15.760   6.192  1.00  0.00    -0.354 N 
HETATM    3  O   UNL     1      43.768 -13.600   6.275  1.00  0.00    -0.268 OA
HETATM    4  H   UNL     1      42.604 -16.474   5.616  1.00  0.00     0.162 HD
ENDROOT
BRANCH   2   5
HETATM    5  C   UNL     1      43.774 -16.196   7.361  1.00  0.00     0.156 C 
BRANCH   5   6
HETATM    6  C   UNL     1      43.206 -17.482   7.962  1.00  0.00     0.160 C 
BRANCH   6   7
HETATM    7  O   UNL     1      43.628 -17.584   9.333  1.00  0.00    -0.392 OA
HETATM    8  H   UNL     1      42.917 -17.167   9.858  1.00  0.00     0.210 HD
ENDBRANCH   6   7
BRANCH   6   9
HETATM    9  C   UNL     1      43.665 -18.727   7.196  1.00  0.00     0.209 C 
BRANCH   9  10
HETATM   10  O   UNL     1      44.546 -18.286   6.155  1.00  0.00    -0.349 OA
BRANCH  10  11
HETATM   11  C   UNL     1      44.480 -18.964   4.969  1.00  0.00     0.069 A 
HETATM   12  C   UNL     1      44.021 -18.205   3.888  1.00  0.00     0.043 A 
HETATM   13  C   UNL     1      43.897 -18.767   2.611  1.00  0.00    -0.059 A 
HETATM   14  C   UNL     1      43.397 -17.953   1.455  1.00  0.00     0.048 C 
HETATM   15  C   UNL     1      44.218 -20.117   2.431  1.00  0.00     0.007 A 
HETATM   16  C   UNL     1      44.674 -20.880   3.505  1.00  0.00     0.003 A 
HETATM   17  C   UNL     1      44.809 -20.305   4.771  1.00  0.00     0.037 A 
ENDBRANCH  10  11
ENDBRANCH   9  10
ENDBRANCH   6   9
ENDBRANCH   5   6
ENDBRANCH   2   5
BRANCH   1  18
HETATM   18  C   UNL     1      42.515 -14.266   4.417  1.00  0.00     0.075 A 
HETATM   19  C   UNL     1      43.127 -14.483   3.163  1.00  0.00     0.158 A 
HETATM   20  N   UNL     1      42.300 -14.296   2.141  1.00  0.00    -0.183 NA
HETATM   21  N   UNL     1      41.113 -14.042   2.729  1.00  0.00    -0.268 N 
HETATM   22  C   UNL     1      41.197 -13.944   4.109  1.00  0.00     0.052 A 
BRANCH  21  23
HETATM   23  C   UNL     1      39.920 -13.962   1.883  1.00  0.00     0.106 C 
HETATM   24  C   UNL     1      39.113 -15.264   1.904  1.00  0.00     0.034 C 
BRANCH  23  25
HETATM   25  C   UNL     1      40.232 -13.452   0.463  1.00  0.00     0.022 C 
HETATM   26  C   UNL     1      39.111 -13.599  -0.558  1.00  0.00     0.007 C 
ENDBRANCH  23  25
ENDBRANCH  21  23
BRANCH  22  27
HETATM   27  C   UNL     1      40.007 -13.643   5.027  1.00  0.00     0.038 A 
HETATM   28  C   UNL     1      40.095 -12.591   6.107  1.00  0.00     0.011 A 
HETATM   29  C   UNL     1      39.245 -12.346   4.906  1.00  0.00     0.011 A 
ENDBRANCH  22  27
ENDBRANCH   1  18
TORSDOF 10
ENDMDL
MODEL 2
REMARK VINA RESULT:      -7.3      1.663      2.857
REMARK  10 active torsions:
REMARK  status: ('A' for Active; 'I' for Inactive)
REMARK    1  A    between atoms: C_2  and  C_3 
REMARK    2  A    between atoms: C_3  and  N_4 
REMARK    3  A    between atoms: C_7  and  C_8 
REMARK       I    between atoms: C_8  and  N_9 
REMARK    4  A    between atoms: N_9  and  C_10 
REMARK    5  A    between atoms: C_10  and  C_11 
REMARK    6  A    between atoms: C_11  and  O_12 
REMARK    7  A    between atoms: C_11  and  C_13 
REMARK    8  A    between atoms: C_13  and  O_14 
REMARK    9  A    between atoms: O_14  and  C_15 
REMARK   10  A    between atoms: C_23  and  C_24 
ROOT
HETATM    1  C   UNL     1      41.236 -15.429   5.345  1.00  0.00     0.255 C 
HETATM    2  N   UNL     1      42.567 -15.758   5.376  1.00  0.00    -0.354 N 
HETATM    3  O   UNL     1      40.473 -15.650   6.278  1.00  0.00    -0.268 OA
HETATM    4  H   UNL     1      43.157 -15.478   4.602  1.00  0.00     0.162 HD
ENDROOT
BRANCH   2   5
HETATM    5  C   UNL     1      43.221 -16.160   6.608  1.00  0.00     0.156 C 
BRANCH   5   6
HETATM    6  C   UNL     1      43.380 -17.677   6.712  1.00  0.00     0.160 C 
BRANCH   6   7
HETATM    7  O   UNL     1      43.267 -18.065   8.092  1.00  0.00    -0.392 OA
HETATM    8  H   UNL     1      43.296 -17.232   8.602  1.00  0.00     0.210 HD
ENDBRANCH   6   7
BRANCH   6   9
HETATM    9  C   UNL     1      44.727 -18.153   6.159  1.00  0.00     0.209 C 
BRANCH   9  10
HETATM   10  O   UNL     1      44.515 -18.545   4.798  1.00  0.00    -0.349 OA
BRANCH  10  11
HETATM   11  C   UNL     1      44.555 -19.886   4.533  1.00  0.00     0.069 A 
HETATM   12  C   UNL     1      44.341 -20.223   3.192  1.00  0.00     0.043 A 
HETATM   13  C   UNL     1      44.348 -21.559   2.773  1.00  0.00    -0.059 A 
HETATM   14  C   UNL     1      44.111 -21.918   1.337  1.00  0.00     0.048 C 
HETATM   15  C   UNL     1      44.550 -22.566   3.723  1.00  0.00     0.007 A 
HETATM   16  C   UNL     1      44.761 -22.238   5.061  1.00  0.00     0.003 A 
HETATM   17  C   UNL     1      44.768 -20.901   5.466  1.00  0.00     0.037 A 
ENDBRANCH  10  11
ENDBRANCH   9  10
ENDBRANCH   6   9
ENDBRANCH   5   6
ENDBRANCH   2   5
BRANCH   1  18
HETATM   18  C   UNL     1      40.770 -14.882   4.090  1.00  0.00     0.075 A 
HETATM   19  C   UNL     1      40.610 -13.498   3.857  1.00  0.00     0.158 A 
HETATM   20  N   UNL     1      40.261 -13.218   2.606  1.00  0.00    -0.183 NA
HETATM   21  N   UNL     1      40.278 -14.418   1.991  1.00  0.00    -0.268 N 
HETATM   22  C   UNL     1      40.514 -15.473   2.858  1.00  0.00     0.052 A 
BRANCH  21  23
HETATM   23  C   UNL     1      40.112 -14.456   0.536  1.00  0.00     0.106 C 
HETATM   24  C   UNL     1      41.409 -14.102  -0.199  1.00  0.00     0.034 C 
BRANCH  23  25
HETATM   25  C   UNL     1      38.891 -13.650   0.056  1.00  0.00     0.022 C 
HETATM   26  C   UNL     1      37.544 -14.082   0.623  1.00  0.00     0.007 C 
ENDBRANCH  23  25
ENDBRANCH  21  23
BRANCH  22  27
HETATM   27  C   UNL     1      40.569 -16.945   2.432  1.00  0.00     0.038 A 
HETATM   28  C   UNL     1      41.555 -17.426   1.394  1.00  0.00     0.011 A 
HETATM   29  C   UNL     1      41.736 -17.820   2.821  1.00  0.00     0.011 A 
ENDBRANCH  22  27
ENDBRANCH   1  18
TORSDOF 10
ENDMDL
MODEL 3
REMARK VINA RESULT:      -7.2      4.300      6.687
REMARK  10 active torsions:
REMARK  status: ('A' for Active; 'I' for Inactive)
REMARK    1  A    between atoms: C_2  and  C_3 
REMARK    2  A    between atoms: C_3  and  N_4 
REMARK    3  A    between atoms: C_7  and  C_8 
REMARK       I    between atoms: C_8  and  N_9 
REMARK    4  A    between atoms: N_9  and  C_10 
REMARK    5  A    between atoms: C_10  and  C_11 
REMARK    6  A    between atoms: C_11  and  O_12 
REMARK    7  A    between atoms: C_11  and  C_13 
REMARK    8  A    between atoms: C_13  and  O_14 
REMARK    9  A    between atoms: O_14  and  C_15 
REMARK   10  A    between atoms: C_23  and  C_24 
ROOT
HETATM    1  C   UNL     1      44.819 -12.670   8.753  1.00  0.00     0.255 C 
HETATM    2  N   UNL     1      44.215 -13.715   8.103  1.00  0.00    -0.354 N 
HETATM    3  O   UNL     1      45.897 -12.202   8.406  1.00  0.00    -0.268 OA
HETATM    4  H   UNL     1      43.289 -14.003   8.395  1.00  0.00     0.162 HD
ENDROOT
BRANCH   2   5
HETATM    5  C   UNL     1      44.685 -14.178   6.811  1.00  0.00     0.156 C 
BRANCH   5   6
HETATM    6  C   UNL     1      43.860 -15.351   6.279  1.00  0.00     0.160 C 
BRANCH   6   7
HETATM    7  O   UNL     1      42.558 -15.321   6.889  1.00  0.00    -0.392 OA
HETATM    8  H   UNL     1      42.345 -14.375   7.004  1.00  0.00     0.210 HD
ENDBRANCH   6   7
BRANCH   6   9
HETATM    9  C   UNL     1      44.526 -16.700   6.570  1.00  0.00     0.209 C 
BRANCH   9  10
HETATM   10  O   UNL     1      43.563 -17.722   6.283  1.00  0.00    -0.349 OA
BRANCH  10  11
HETATM   11  C   UNL     1      43.860 -18.572   5.254  1.00  0.00     0.069 A 
HETATM   12  C   UNL     1      44.271 -19.848   5.651  1.00  0.00     0.043 A 
HETATM   13  C   UNL     1      44.611 -20.824   4.706  1.00  0.00    -0.059 A 
HETATM   14  C   UNL     1      45.059 -22.190   5.134  1.00  0.00     0.048 C 
HETATM   15  C   UNL     1      44.559 -20.498   3.346  1.00  0.00     0.007 A 
HETATM   16  C   UNL     1      44.153 -19.227   2.944  1.00  0.00     0.003 A 
HETATM   17  C   UNL     1      43.800 -18.266   3.894  1.00  0.00     0.037 A 
ENDBRANCH  10  11
ENDBRANCH   9  10
ENDBRANCH   6   9
ENDBRANCH   5   6
ENDBRANCH   2   5
BRANCH   1  18
HETATM   18  C   UNL     1      44.135 -12.210   9.941  1.00  0.00     0.075 A 
HETATM   19  C   UNL     1      44.429 -12.680  11.240  1.00  0.00     0.158 A 
HETATM   20  N   UNL     1      43.744 -12.052  12.188  1.00  0.00    -0.183 NA
HETATM   21  N   UNL     1      43.061 -11.102  11.517  1.00  0.00    -0.268 N 
HETATM   22  C   UNL     1      43.206 -11.193  10.142  1.00  0.00     0.052 A 
BRANCH  21  23
HETATM   23  C   UNL     1      42.327 -10.096  12.289  1.00  0.00     0.106 C 
HETATM   24  C   UNL     1      43.137  -9.589  13.487  1.00  0.00     0.034 C 
BRANCH  23  25
HETATM   25  C   UNL     1      40.902 -10.551  12.656  1.00  0.00     0.022 C 
HETATM   26  C   UNL     1      39.817  -9.487  12.555  1.00  0.00     0.007 C 
ENDBRANCH  23  25
ENDBRANCH  21  23
BRANCH  22  27
HETATM   27  C   UNL     1      42.527 -10.256   9.138  1.00  0.00     0.038 A 
HETATM   28  C   UNL     1      41.948 -10.777   7.843  1.00  0.00     0.011 A 
HETATM   29  C   UNL     1      41.033 -10.304   8.922  1.00  0.00     0.011 A 
ENDBRANCH  22  27
ENDBRANCH   1  18
TORSDOF 10
ENDMDL
MODEL 4
REMARK VINA RESULT:      -7.2      4.765      7.363
REMARK  10 active torsions:
REMARK  status: ('A' for Active; 'I' for Inactive)
REMARK    1  A    between atoms: C_2  and  C_3 
REMARK    2  A    between atoms: C_3  and  N_4 
REMARK    3  A    between atoms: C_7  and  C_8 
REMARK       I    between atoms: C_8  and  N_9 
REMARK    4  A    between atoms: N_9  and  C_10 
REMARK    5  A    between atoms: C_10  and  C_11 
REMARK    6  A    between atoms: C_11  and  O_12 
REMARK    7  A    between atoms: C_11  and  C_13 
REMARK    8  A    between atoms: C_13  and  O_14 
REMARK    9  A    between atoms: O_14  and  C_15 
REMARK   10  A    between atoms: C_23  and  C_24 
ROOT
HETATM    1  C   UNL     1      41.938 -10.724   7.524  1.00  0.00     0.255 C 
HETATM    2  N   UNL     1      41.887 -12.054   7.195  1.00  0.00    -0.354 N 
HETATM    3  O   UNL     1      42.073  -9.835   6.690  1.00  0.00    -0.268 OA
HETATM    4  H   UNL     1      41.698 -12.731   7.924  1.00  0.00     0.162 HD
ENDROOT
BRANCH   2   5
HETATM    5  C   UNL     1      41.734 -12.490   5.818  1.00  0.00     0.156 C 
BRANCH   5   6
HETATM    6  C   UNL     1      40.663 -13.570   5.667  1.00  0.00     0.160 C 
BRANCH   6   7
HETATM    7  O   UNL     1      39.841 -13.582   6.847  1.00  0.00    -0.392 OA
HETATM    8  H   UNL     1      39.576 -14.514   6.972  1.00  0.00     0.210 HD
ENDBRANCH   6   7
BRANCH   6   9
HETATM    9  C   UNL     1      41.274 -14.960   5.460  1.00  0.00     0.209 C 
BRANCH   9  10
HETATM   10  O   UNL     1      42.664 -14.869   5.794  1.00  0.00    -0.349 OA
BRANCH  10  11
HETATM   11  C   UNL     1      43.382 -16.033   5.751  1.00  0.00     0.069 A 
HETATM   12  C   UNL     1      43.175 -16.804   4.603  1.00  0.00     0.043 A 
HETATM   13  C   UNL     1      43.839 -18.024   4.424  1.00  0.00    -0.059 A 
HETATM   14  C   UNL     1      43.610 -18.853   3.196  1.00  0.00     0.048 C 
HETATM   15  C   UNL     1      44.703 -18.479   5.426  1.00  0.00     0.007 A 
HETATM   16  C   UNL     1      44.912 -17.716   6.574  1.00  0.00     0.003 A 
HETATM   17  C   UNL     1      44.256 -16.493   6.736  1.00  0.00     0.037 A 
ENDBRANCH  10  11
ENDBRANCH   9  10
ENDBRANCH   6   9
ENDBRANCH   5   6
ENDBRANCH   2   5
BRANCH   1  18
HETATM   18  C   UNL     1      41.914 -10.443   8.942  1.00  0.00     0.075 A 
HETATM   19  C   UNL     1      40.880  -9.718   9.574  1.00  0.00     0.158 A 
HETATM   20  N   UNL     1      41.017  -9.661  10.894  1.00  0.00    -0.183 NA
HETATM   21  N   UNL     1      42.098 -10.428  11.139  1.00  0.00    -0.268 N 
HETATM   22  C   UNL     1      42.725 -10.874   9.987  1.00  0.00     0.052 A 
BRANCH  21  23
HETATM   23  C   UNL     1      42.431 -10.734  12.533  1.00  0.00     0.106 C 
HETATM   24  C   UNL     1      41.187 -11.077  13.359  1.00  0.00     0.034 C 
BRANCH  23  25
HETATM   25  C   UNL     1      43.325  -9.659  13.180  1.00  0.00     0.022 C 
HETATM   26  C   UNL     1      42.927  -9.219  14.582  1.00  0.00     0.007 C 
ENDBRANCH  23  25
ENDBRANCH  21  23
BRANCH  22  27
HETATM   27  C   UNL     1      43.985 -11.746   9.972  1.00  0.00     0.038 A 
HETATM   28  C   UNL     1      45.195 -11.364   9.152  1.00  0.00     0.011 A 
HETATM   29  C   UNL     1      45.256 -11.280  10.640  1.00  0.00     0.011 A 
ENDBRANCH  22  27
ENDBRANCH   1  18
TORSDOF 10
ENDMDL
MODEL 5
REMARK VINA RESULT:      -7.1      1.904      2.442
REMARK  10 active torsions:
REMARK  status: ('A' for Active; 'I' for Inactive)
REMARK    1  A    between atoms: C_2  and  C_3 
REMARK    2  A    between atoms: C_3  and  N_4 
REMARK    3  A    between atoms: C_7  and  C_8 
REMARK       I    between atoms: C_8  and  N_9 
REMARK    4  A    between atoms: N_9  and  C_10 
REMARK    5  A    between atoms: C_10  and  C_11 
REMARK    6  A    between atoms: C_11  and  O_12 
REMARK    7  A    between atoms: C_11  and  C_13 
REMARK    8  A    between atoms: C_13  and  O_14 
REMARK    9  A    between atoms: O_14  and  C_15 
REMARK   10  A    between atoms: C_23  and  C_24 
ROOT
HETATM    1  C   UNL     1      41.542 -16.450   5.178  1.00  0.00     0.255 C 
HETATM    2  N   UNL     1      42.656 -17.137   5.587  1.00  0.00    -0.354 N 
HETATM    3  O   UNL     1      40.689 -16.039   5.956  1.00  0.00    -0.268 OA
HETATM    4  H   UNL     1      43.358 -17.381   4.900  1.00  0.00     0.162 HD
ENDROOT
BRANCH   2   5
HETATM    5  C   UNL     1      43.032 -17.206   6.987  1.00  0.00     0.156 C 
BRANCH   5   6
HETATM    6  C   UNL     1      44.007 -18.350   7.269  1.00  0.00     0.160 C 
BRANCH   6   7
HETATM    7  O   UNL     1      45.330 -17.946   6.876  1.00  0.00    -0.392 OA
HETATM    8  H   UNL     1      45.206 -17.372   6.094  1.00  0.00     0.210 HD
ENDBRANCH   6   7
BRANCH   6   9
HETATM    9  C   UNL     1      43.624 -19.630   6.519  1.00  0.00     0.209 C 
BRANCH   9  10
HETATM   10  O   UNL     1      44.770 -20.041   5.763  1.00  0.00    -0.349 OA
BRANCH  10  11
HETATM   11  C   UNL     1      44.547 -20.416   4.467  1.00  0.00     0.069 A 
HETATM   12  C   UNL     1      44.199 -19.368   3.609  1.00  0.00     0.043 A 
HETATM   13  C   UNL     1      43.938 -19.602   2.253  1.00  0.00    -0.059 A 
HETATM   14  C   UNL     1      43.557 -18.478   1.336  1.00  0.00     0.048 C 
HETATM   15  C   UNL     1      44.005 -20.911   1.766  1.00  0.00     0.007 A 
HETATM   16  C   UNL     1      44.348 -21.961   2.617  1.00  0.00     0.003 A 
HETATM   17  C   UNL     1      44.622 -21.715   3.964  1.00  0.00     0.037 A 
ENDBRANCH  10  11
ENDBRANCH   9  10
ENDBRANCH   6   9
ENDBRANCH   5   6
ENDBRANCH   2   5
BRANCH   1  18
HETATM   18  C   UNL     1      41.393 -16.321   3.745  1.00  0.00     0.075 A 
HETATM   19  C   UNL     1      40.486 -17.091   2.985  1.00  0.00     0.158 A 
HETATM   20  N   UNL     1      40.452 -16.740   1.705  1.00  0.00    -0.183 NA
HETATM   21  N   UNL     1      41.275 -15.674   1.641  1.00  0.00    -0.268 N 
HETATM   22  C   UNL     1      41.928 -15.415   2.835  1.00  0.00     0.052 A 
BRANCH  21  23
HETATM   23  C   UNL     1      41.334 -14.914   0.389  1.00  0.00     0.106 C 
HETATM   24  C   UNL     1      40.276 -13.807   0.339  1.00  0.00     0.034 C 
BRANCH  23  25
HETATM   25  C   UNL     1      41.339 -15.820  -0.856  1.00  0.00     0.022 C 
HETATM   26  C   UNL     1      40.727 -15.223  -2.116  1.00  0.00     0.007 C 
ENDBRANCH  23  25
ENDBRANCH  21  23
BRANCH  22  27
HETATM   27  C   UNL     1      42.934 -14.277   3.041  1.00  0.00     0.038 A 
HETATM   28  C   UNL     1      42.477 -12.869   3.340  1.00  0.00     0.011 A 
HETATM   29  C   UNL     1      43.145 -13.669   4.407  1.00  0.00     0.011 A 
ENDBRANCH  22  27
ENDBRANCH   1  18
TORSDOF 10
ENDMDL
MODEL 6
REMARK VINA RESULT:      -7.0      2.676      5.349
REMARK  10 active torsions:
REMARK  status: ('A' for Active; 'I' for Inactive)
REMARK    1  A    between atoms: C_2  and  C_3 
REMARK    2  A    between atoms: C_3  and  N_4 
REMARK    3  A    between atoms: C_7  and  C_8 
REMARK       I    between atoms: C_8  and  N_9 
REMARK    4  A    between atoms: N_9  and  C_10 
REMARK    5  A    between atoms: C_10  and  C_11 
REMARK    6  A    between atoms: C_11  and  O_12 
REMARK    7  A    between atoms: C_11  and  C_13 
REMARK    8  A    between atoms: C_13  and  O_14 
REMARK    9  A    between atoms: O_14  and  C_15 
REMARK   10  A    between atoms: C_23  and  C_24 
ROOT
HETATM    1  C   UNL     1      41.651 -16.243   5.150  1.00  0.00     0.255 C 
HETATM    2  N   UNL     1      41.606 -15.738   3.876  1.00  0.00    -0.354 N 
HETATM    3  O   UNL     1      40.915 -17.144   5.537  1.00  0.00    -0.268 OA
HETATM    4  H   UNL     1      42.292 -15.048   3.600  1.00  0.00     0.162 HD
ENDROOT
BRANCH   2   5
HETATM    5  C   UNL     1      40.860 -16.403   2.823  1.00  0.00     0.156 C 
BRANCH   5   6
HETATM    6  C   UNL     1      41.531 -16.256   1.457  1.00  0.00     0.160 C 
BRANCH   6   7
HETATM    7  O   UNL     1      40.527 -16.343   0.431  1.00  0.00    -0.392 OA
HETATM    8  H   UNL     1      39.672 -16.224   0.891  1.00  0.00     0.210 HD
ENDBRANCH   6   7
BRANCH   6   9
HETATM    9  C   UNL     1      42.592 -17.335   1.220  1.00  0.00     0.209 C 
BRANCH   9  10
HETATM   10  O   UNL     1      43.522 -17.267   2.308  1.00  0.00    -0.349 OA
BRANCH  10  11
HETATM   11  C   UNL     1      43.901 -18.457   2.866  1.00  0.00     0.069 A 
HETATM   12  C   UNL     1      43.841 -19.553   1.999  1.00  0.00     0.043 A 
HETATM   13  C   UNL     1      44.196 -20.836   2.433  1.00  0.00    -0.059 A 
HETATM   14  C   UNL     1      44.123 -22.011   1.504  1.00  0.00     0.048 C 
HETATM   15  C   UNL     1      44.593 -21.017   3.762  1.00  0.00     0.007 A 
HETATM   16  C   UNL     1      44.652 -19.930   4.632  1.00  0.00     0.003 A 
HETATM   17  C   UNL     1      44.311 -18.651   4.185  1.00  0.00     0.037 A 
ENDBRANCH  10  11
ENDBRANCH   9  10
ENDBRANCH   6   9
ENDBRANCH   5   6
ENDBRANCH   2   5
BRANCH   1  18
HETATM   18  C   UNL     1      42.572 -15.574   6.042  1.00  0.00     0.075 A 
HETATM   19  C   UNL     1      43.500 -16.257   6.858  1.00  0.00     0.158 A 
HETATM   20  N   UNL     1      44.307 -15.439   7.524  1.00  0.00    -0.183 NA
HETATM   21  N   UNL     1      43.966 -14.214   7.077  1.00  0.00    -0.268 N 
HETATM   22  C   UNL     1      42.872 -14.228   6.226  1.00  0.00     0.052 A 
BRANCH  21  23
HETATM   23  C   UNL     1      44.792 -13.072   7.478  1.00  0.00     0.106 C 
HETATM   24  C   UNL     1      46.236 -13.207   6.986  1.00  0.00     0.034 C 
BRANCH  23  25
HETATM   25  C   UNL     1      44.678 -12.755   8.980  1.00  0.00     0.022 C 
HETATM   26  C   UNL     1      45.220 -11.400   9.418  1.00  0.00     0.007 C 
ENDBRANCH  23  25
ENDBRANCH  21  23
BRANCH  22  27
HETATM   27  C   UNL     1      42.259 -12.977   5.586  1.00  0.00     0.038 A 
HETATM   28  C   UNL     1      40.777 -12.699   5.669  1.00  0.00     0.011 A 
HETATM   29  C   UNL     1      41.730 -11.851   6.442  1.00  0.00     0.011 A 
ENDBRANCH  22  27
ENDBRANCH   1  18
TORSDOF 10
ENDMDL
MODEL 7
REMARK VINA RESULT:      -7.0      1.461      2.030
REMARK  10 active torsions:
REMARK  status: ('A' for Active; 'I' for Inactive)
REMARK    1  A    between atoms: C_2  and  C_3 
REMARK    2  A    between atoms: C_3  and  N_4 
REMARK    3  A    between atoms: C_7  and  C_8 
REMARK       I    between atoms: C_8  and  N_9 
REMARK    4  A    between atoms: N_9  and  C_10 
REMARK    5  A    between atoms: C_10  and  C_11 
REMARK    6  A    between atoms: C_11  and  O_12 
REMARK    7  A    between atoms: C_11  and  C_13 
REMARK    8  A    between atoms: C_13  and  O_14 
REMARK    9  A    between atoms: O_14  and  C_15 
REMARK   10  A    between atoms: C_23  and  C_24 
ROOT
HETATM    1  C   UNL     1      43.250 -15.580   5.101  1.00  0.00     0.255 C 
HETATM    2  N   UNL     1      42.716 -16.668   5.741  1.00  0.00    -0.354 N 
HETATM    3  O   UNL     1      43.845 -14.684   5.691  1.00  0.00    -0.268 OA
HETATM    4  H   UNL     1      42.305 -17.408   5.186  1.00  0.00     0.162 HD
ENDROOT
BRANCH   2   5
HETATM    5  C   UNL     1      43.035 -16.965   7.126  1.00  0.00     0.156 C 
BRANCH   5   6
HETATM    6  C   UNL     1      43.597 -18.377   7.302  1.00  0.00     0.160 C 
BRANCH   6   7
HETATM    7  O   UNL     1      43.833 -18.615   8.700  1.00  0.00    -0.392 OA
HETATM    8  H   UNL     1      44.272 -17.808   9.033  1.00  0.00     0.210 HD
ENDBRANCH   6   7
BRANCH   6   9
HETATM    9  C   UNL     1      44.902 -18.576   6.525  1.00  0.00     0.209 C 
BRANCH   9  10
HETATM   10  O   UNL     1      44.553 -18.827   5.159  1.00  0.00    -0.349 OA
BRANCH  10  11
HETATM   11  C   UNL     1      44.587 -20.131   4.746  1.00  0.00     0.069 A 
HETATM   12  C   UNL     1      44.366 -20.315   3.378  1.00  0.00     0.043 A 
HETATM   13  C   UNL     1      44.368 -21.597   2.813  1.00  0.00    -0.059 A 
HETATM   14  C   UNL     1      44.122 -21.793   1.347  1.00  0.00     0.048 C 
HETATM   15  C   UNL     1      44.572 -22.704   3.644  1.00  0.00     0.007 A 
HETATM   16  C   UNL     1      44.791 -22.527   5.009  1.00  0.00     0.003 A 
HETATM   17  C   UNL     1      44.802 -21.243   5.560  1.00  0.00     0.037 A 
ENDBRANCH  10  11
ENDBRANCH   9  10
ENDBRANCH   6   9
ENDBRANCH   5   6
ENDBRANCH   2   5
BRANCH   1  18
HETATM   18  C   UNL     1      42.983 -15.512   3.681  1.00  0.00     0.075 A 
HETATM   19  C   UNL     1      43.494 -16.441   2.748  1.00  0.00     0.158 A 
HETATM   20  N   UNL     1      43.044 -16.240   1.515  1.00  0.00    -0.183 NA
HETATM   21  N   UNL     1      42.163 -15.229   1.654  1.00  0.00    -0.268 N 
HETATM   22  C   UNL     1      42.134 -14.701   2.935  1.00  0.00     0.052 A 
BRANCH  21  23
HETATM   23  C   UNL     1      41.336 -14.864   0.501  1.00  0.00     0.106 C 
HETATM   24  C   UNL     1      41.231 -16.007  -0.515  1.00  0.00     0.034 C 
BRANCH  23  25
HETATM   25  C   UNL     1      41.747 -13.518  -0.124  1.00  0.00     0.022 C 
HETATM   26  C   UNL     1      40.605 -12.627  -0.594  1.00  0.00     0.007 C 
ENDBRANCH  23  25
ENDBRANCH  21  23
BRANCH  22  27
HETATM   27  C   UNL     1      41.241 -13.534   3.368  1.00  0.00     0.038 A 
HETATM   28  C   UNL     1      39.737 -13.670   3.410  1.00  0.00     0.011 A 
HETATM   29  C   UNL     1      40.504 -13.571   4.685  1.00  0.00     0.011 A 
ENDBRANCH  22  27
ENDBRANCH   1  18
TORSDOF 10
ENDMDL
MODEL 8
REMARK VINA RESULT:      -7.0      2.414      4.102
REMARK  10 active torsions:
REMARK  status: ('A' for Active; 'I' for Inactive)
REMARK    1  A    between atoms: C_2  and  C_3 
REMARK    2  A    between atoms: C_3  and  N_4 
REMARK    3  A    between atoms: C_7  and  C_8 
REMARK       I    between atoms: C_8  and  N_9 
REMARK    4  A    between atoms: N_9  and  C_10 
REMARK    5  A    between atoms: C_10  and  C_11 
REMARK    6  A    between atoms: C_11  and  O_12 
REMARK    7  A    between atoms: C_11  and  C_13 
REMARK    8  A    between atoms: C_13  and  O_14 
REMARK    9  A    between atoms: O_14  and  C_15 
REMARK   10  A    between atoms: C_23  and  C_24 
ROOT
HETATM    1  C   UNL     1      42.280 -13.729   2.422  1.00  0.00     0.255 C 
HETATM    2  N   UNL     1      41.262 -13.643   3.336  1.00  0.00    -0.354 N 
HETATM    3  O   UNL     1      43.453 -13.887   2.743  1.00  0.00    -0.268 OA
HETATM    4  H   UNL     1      40.308 -13.588   3.001  1.00  0.00     0.162 HD
ENDROOT
BRANCH   2   5
HETATM    5  C   UNL     1      41.465 -13.985   4.732  1.00  0.00     0.156 C 
BRANCH   5   6
HETATM    6  C   UNL     1      40.500 -15.072   5.209  1.00  0.00     0.160 C 
BRANCH   6   7
HETATM    7  O   UNL     1      40.112 -14.790   6.565  1.00  0.00    -0.392 OA
HETATM    8  H   UNL     1      39.843 -15.650   6.944  1.00  0.00     0.210 HD
ENDBRANCH   6   7
BRANCH   6   9
HETATM    9  C   UNL     1      41.127 -16.468   5.140  1.00  0.00     0.209 C 
BRANCH   9  10
HETATM   10  O   UNL     1      42.482 -16.306   4.703  1.00  0.00    -0.349 OA
BRANCH  10  11
HETATM   11  C   UNL     1      43.315 -17.377   4.880  1.00  0.00     0.069 A 
HETATM   12  C   UNL     1      43.362 -18.263   3.799  1.00  0.00     0.043 A 
HETATM   13  C   UNL     1      44.169 -19.407   3.839  1.00  0.00    -0.059 A 
HETATM   14  C   UNL     1      44.212 -20.361   2.683  1.00  0.00     0.048 C 
HETATM   15  C   UNL     1      44.916 -19.670   4.992  1.00  0.00     0.007 A 
HETATM   16  C   UNL     1      44.871 -18.792   6.074  1.00  0.00     0.003 A 
HETATM   17  C   UNL     1      44.075 -17.645   6.018  1.00  0.00     0.037 A 
ENDBRANCH  10  11
ENDBRANCH   9  10
ENDBRANCH   6   9
ENDBRANCH   5   6
ENDBRANCH   2   5
BRANCH   1  18
HETATM   18  C   UNL     1      41.886 -13.526   1.046  1.00  0.00     0.075 A 
HETATM   19  C   UNL     1      41.916 -12.268   0.404  1.00  0.00     0.158 A 
HETATM   20  N   UNL     1      41.601 -12.334  -0.884  1.00  0.00    -0.183 NA
HETATM   21  N   UNL     1      41.451 -13.655  -1.112  1.00  0.00    -0.268 N 
HETATM   22  C   UNL     1      41.545 -14.422   0.037  1.00  0.00     0.052 A 
BRANCH  21  23
HETATM   23  C   UNL     1      41.273 -14.105  -2.495  1.00  0.00     0.106 C 
HETATM   24  C   UNL     1      41.727 -13.048  -3.507  1.00  0.00     0.034 C 
BRANCH  23  25
HETATM   25  C   UNL     1      39.858 -14.651  -2.765  1.00  0.00     0.022 C 
HETATM   26  C   UNL     1      39.787 -15.964  -3.534  1.00  0.00     0.007 C 
ENDBRANCH  23  25
ENDBRANCH  21  23
BRANCH  22  27
HETATM   27  C   UNL     1      41.395 -15.947   0.073  1.00  0.00     0.038 A 
HETATM   28  C   UNL     1      42.463 -16.828   0.676  1.00  0.00     0.011 A 
HETATM   29  C   UNL     1      41.155 -16.671   1.376  1.00  0.00     0.011 A 
ENDBRANCH  22  27
ENDBRANCH   1  18
TORSDOF 10
ENDMDL
MODEL 9
REMARK VINA RESULT:      -6.9      2.001      3.586
REMARK  10 active torsions:
REMARK  status: ('A' for Active; 'I' for Inactive)
REMARK    1  A    between atoms: C_2  and  C_3 
REMARK    2  A    between atoms: C_3  and  N_4 
REMARK    3  A    between atoms: C_7  and  C_8 
REMARK       I    between atoms: C_8  and  N_9 
REMARK    4  A    between atoms: N_9  and  C_10 
REMARK    5  A    between atoms: C_10  and  C_11 
REMARK    6  A    between atoms: C_11  and  O_12 
REMARK    7  A    between atoms: C_11  and  C_13 
REMARK    8  A    between atoms: C_13  and  O_14 
REMARK    9  A    between atoms: O_14  and  C_15 
REMARK   10  A    between atoms: C_23  and  C_24 
ROOT
HETATM    1  C   UNL     1      41.305 -16.284   3.884  1.00  0.00     0.255 C 
HETATM    2  N   UNL     1      42.189 -15.782   4.803  1.00  0.00    -0.354 N 
HETATM    3  O   UNL     1      40.741 -17.364   4.021  1.00  0.00    -0.268 OA
HETATM    4  H   UNL     1      42.561 -14.850   4.666  1.00  0.00     0.162 HD
ENDROOT
BRANCH   2   5
HETATM    5  C   UNL     1      42.330 -16.373   6.122  1.00  0.00     0.156 C 
BRANCH   5   6
HETATM    6  C   UNL     1      43.753 -16.247   6.665  1.00  0.00     0.160 C 
BRANCH   6   7
HETATM    7  O   UNL     1      44.347 -15.044   6.147  1.00  0.00    -0.392 OA
HETATM    8  H   UNL     1      44.881 -14.679   6.879  1.00  0.00     0.210 HD
ENDBRANCH   6   7
BRANCH   6   9
HETATM    9  C   UNL     1      44.623 -17.448   6.282  1.00  0.00     0.209 C 
BRANCH   9  10
HETATM   10  O   UNL     1      43.971 -18.119   5.197  1.00  0.00    -0.349 OA
BRANCH  10  11
HETATM   11  C   UNL     1      44.173 -19.468   5.100  1.00  0.00     0.069 A 
HETATM   12  C   UNL     1      44.307 -19.945   3.793  1.00  0.00     0.043 A 
HETATM   13  C   UNL     1      44.514 -21.307   3.539  1.00  0.00    -0.059 A 
HETATM   14  C   UNL     1      44.650 -21.818   2.136  1.00  0.00     0.048 C 
HETATM   15  C   UNL     1      44.562 -22.198   4.617  1.00  0.00     0.007 A 
HETATM   16  C   UNL     1      44.426 -21.729   5.922  1.00  0.00     0.003 A 
HETATM   17  C   UNL     1      44.236 -20.367   6.166  1.00  0.00     0.037 A 
ENDBRANCH  10  11
ENDBRANCH   9  10
ENDBRANCH   6   9
ENDBRANCH   5   6
ENDBRANCH   2   5
BRANCH   1  18
HETATM   18  C   UNL     1      41.149 -15.488   2.686  1.00  0.00     0.075 A 
HETATM   19  C   UNL     1      40.564 -14.203   2.677  1.00  0.00     0.158 A 
HETATM   20  N   UNL     1      40.610 -13.620   1.485  1.00  0.00    -0.183 NA
HETATM   21  N   UNL     1      41.308 -14.489   0.727  1.00  0.00    -0.268 N 
HETATM   22  C   UNL     1      41.603 -15.673   1.385  1.00  0.00     0.052 A 
BRANCH  21  23
HETATM   23  C   UNL     1      41.705 -14.074  -0.621  1.00  0.00     0.106 C 
HETATM   24  C   UNL     1      42.088 -12.592  -0.676  1.00  0.00     0.034 C 
BRANCH  23  25
HETATM   25  C   UNL     1      40.683 -14.489  -1.696  1.00  0.00     0.022 C 
HETATM   26  C   UNL     1      41.089 -15.658  -2.584  1.00  0.00     0.007 C 
ENDBRANCH  23  25
ENDBRANCH  21  23
BRANCH  22  27
HETATM   27  C   UNL     1      42.369 -16.842   0.756  1.00  0.00     0.038 A 
HETATM   28  C   UNL     1      43.777 -17.181   1.186  1.00  0.00     0.011 A 
HETATM   29  C   UNL     1      42.655 -18.094   1.549  1.00  0.00     0.011 A 
ENDBRANCH  22  27
ENDBRANCH   1  18
TORSDOF 10
ENDMDL
MODEL 10
REMARK VINA RESULT:      -6.8      2.634      4.044
REMARK  10 active torsions:
REMARK  status: ('A' for Active; 'I' for Inactive)
REMARK    1  A    between atoms: C_2  and  C_3 
REMARK    2  A    between atoms: C_3  and  N_4 
REMARK    3  A    between atoms: C_7  and  C_8 
REMARK       I    between atoms: C_8  and  N_9 
REMARK    4  A    between atoms: N_9  and  C_10 
REMARK    5  A    between atoms: C_10  and  C_11 
REMARK    6  A    between atoms: C_11  and  O_12 
REMARK    7  A    between atoms: C_11  and  C_13 
REMARK    8  A    between atoms: C_13  and  O_14 
REMARK    9  A    between atoms: O_14  and  C_15 
REMARK   10  A    between atoms: C_23  and  C_24 
ROOT
HETATM    1  C   UNL     1      40.308 -15.181   2.245  1.00  0.00     0.255 C 
HETATM    2  N   UNL     1      41.398 -15.362   3.058  1.00  0.00    -0.354 N 
HETATM    3  O   UNL     1      39.158 -15.153   2.667  1.00  0.00    -0.268 OA
HETATM    4  H   UNL     1      42.324 -15.298   2.655  1.00  0.00     0.162 HD
ENDROOT
BRANCH   2   5
HETATM    5  C   UNL     1      41.287 -15.280   4.503  1.00  0.00     0.156 C 
BRANCH   5   6
HETATM    6  C   UNL     1      41.050 -16.648   5.144  1.00  0.00     0.160 C 
BRANCH   6   7
HETATM    7  O   UNL     1      40.108 -16.503   6.220  1.00  0.00    -0.392 OA
HETATM    8  H   UNL     1      40.352 -15.672   6.672  1.00  0.00     0.210 HD
ENDBRANCH   6   7
BRANCH   6   9
HETATM    9  C   UNL     1      42.346 -17.262   5.684  1.00  0.00     0.209 C 
BRANCH   9  10
HETATM   10  O   UNL     1      43.337 -17.139   4.656  1.00  0.00    -0.349 OA
BRANCH  10  11
HETATM   11  C   UNL     1      43.596 -18.261   3.917  1.00  0.00     0.069 A 
HETATM   12  C   UNL     1      44.156 -19.319   4.639  1.00  0.00     0.043 A 
HETATM   13  C   UNL     1      44.478 -20.530   4.012  1.00  0.00    -0.059 A 
HETATM   14  C   UNL     1      45.086 -21.661   4.787  1.00  0.00     0.048 C 
HETATM   15  C   UNL     1      44.253 -20.662   2.638  1.00  0.00     0.007 A 
HETATM   16  C   UNL     1      43.698 -19.610   1.912  1.00  0.00     0.003 A 
HETATM   17  C   UNL     1      43.365 -18.412   2.549  1.00  0.00     0.037 A 
ENDBRANCH  10  11
ENDBRANCH   9  10
ENDBRANCH   6   9
ENDBRANCH   5   6
ENDBRANCH   2   5
BRANCH   1  18
HETATM   18  C   UNL     1      40.604 -15.115   0.831  1.00  0.00     0.075 A 
HETATM   19  C   UNL     1      41.276 -16.139   0.128  1.00  0.00     0.158 A 
HETATM   20  N   UNL     1      41.355 -15.908  -1.177  1.00  0.00    -0.183 NA
HETATM   21  N   UNL     1      40.654 -14.769  -1.347  1.00  0.00    -0.268 N 
HETATM   22  C   UNL     1      40.231 -14.206  -0.153  1.00  0.00     0.052 A 
BRANCH  21  23
HETATM   23  C   UNL     1      40.383 -14.316  -2.713  1.00  0.00     0.106 C 
HETATM   24  C   UNL     1      39.525 -15.319  -3.492  1.00  0.00     0.034 C 
BRANCH  23  25
HETATM   25  C   UNL     1      41.659 -13.884  -3.460  1.00  0.00     0.022 C 
HETATM   26  C   UNL     1      42.637 -13.028  -2.665  1.00  0.00     0.007 C 
ENDBRANCH  23  25
ENDBRANCH  21  23
BRANCH  22  27
HETATM   27  C   UNL     1      39.432 -12.902  -0.050  1.00  0.00     0.038 A 
HETATM   28  C   UNL     1      39.864 -11.787   0.874  1.00  0.00     0.011 A 
HETATM   29  C   UNL     1      39.985 -11.610  -0.602  1.00  0.00     0.011 A 
ENDBRANCH  22  27
ENDBRANCH   1  18
TORSDOF 10
ENDMDL
