MODEL 1
REMARK VINA RESULT:      -8.5      0.000      0.000
REMARK  7 active torsions:
REMARK  status: ('A' for Active; 'I' for Inactive)
REMARK    1  A    between atoms: C_3  and  N_4 
REMARK       I    between atoms: N_4  and  C_5 
REMARK    2  A    between atoms: C_5  and  C_6 
REMARK    3  A    between atoms: C_7  and  C_8 
REMARK    4  A    between atoms: C_20  and  C_21 
REMARK    5  A    between atoms: C_21  and  C_22 
REMARK    6  A    between atoms: C_22  and  C_23 
REMARK    7  A    between atoms: C_23  and  O_24 
ROOT
HETATM    1  C   UNL     1      42.832 -15.746   2.010  1.00  0.00     0.062 A 
HETATM    2  C   UNL     1      43.106 -14.723   3.109  1.00  0.00     0.202 A 
HETATM    3  N   UNL     1      42.161 -13.601   3.065  1.00  0.00    -0.083 N 
HETATM    4  C   UNL     1      41.186 -13.460   2.120  1.00  0.00     0.726 A 
HETATM    5  N   UNL     1      41.045 -14.407   1.177  1.00  0.00    -0.192 N 
HETATM    6  N   UNL     1      42.235 -12.514   3.863  1.00  0.00    -0.140 NA
HETATM    7  C   UNL     1      41.205 -11.792   3.395  1.00  0.00     0.166 A 
HETATM    8  N   UNL     1      40.542 -12.340   2.321  1.00  0.00    -0.046 NA
HETATM    9  C   UNL     1      41.838 -15.546   1.104  1.00  0.00     0.037 A 
HETATM   10  C   UNL     1      41.519 -16.480  -0.039  1.00  0.00     0.070 C 
HETATM   11  H   UNL     1      40.310 -14.298   0.484  1.00  0.00     0.184 HD
ENDROOT
BRANCH   1  12
HETATM   12  C   UNL     1      43.593 -17.035   2.007  1.00  0.00     0.256 C 
HETATM   13  N   UNL     1      43.021 -18.062   2.732  1.00  0.00    -0.323 N 
HETATM   14  H   UNL     1      42.047 -17.983   2.982  1.00  0.00     0.169 HD
HETATM   15  O   UNL     1      44.598 -17.133   1.311  1.00  0.00    -0.267 OA
BRANCH  13  16
HETATM   16  C   UNL     1      43.534 -19.379   2.793  1.00  0.00     0.041 A 
HETATM   17  C   UNL     1      44.358 -19.874   3.820  1.00  0.00    -0.035 A 
HETATM   18  C   UNL     1      44.708 -19.110   5.067  1.00  0.00     0.050 C 
HETATM   19  C   UNL     1      44.858 -21.186   3.714  1.00  0.00     0.009 A 
HETATM   20  C   UNL     1      44.505 -22.012   2.646  1.00  0.00     0.001 A 
HETATM   21  C   UNL     1      43.633 -21.541   1.673  1.00  0.00     0.002 A 
HETATM   22  C   UNL     1      43.141 -20.238   1.752  1.00  0.00     0.030 A 
ENDBRANCH  13  16
ENDBRANCH   1  12
BRANCH   2  23
HETATM   23  C   UNL     1      43.150 -15.316   4.516  1.00  0.00    -0.026 A 
HETATM   24  C   UNL     1      42.009 -15.950   5.040  1.00  0.00     0.035 A 
HETATM   25  C   UNL     1      42.011 -16.478   6.337  1.00  0.00     0.056 A 
HETATM   26 CL   UNL     1      40.551 -17.207   6.905  1.00  0.00    -0.083 Cl
HETATM   27  C   UNL     1      43.164 -16.391   7.122  1.00  0.00     0.055 A 
HETATM   28 CL   UNL     1      43.238 -17.013   8.731  1.00  0.00    -0.083 Cl
HETATM   29  C   UNL     1      44.309 -15.781   6.603  1.00  0.00     0.026 A 
HETATM   30  C   UNL     1      44.305 -15.249   5.310  1.00  0.00     0.011 A 
ENDBRANCH   2  23
BRANCH   7  31
HETATM   31  C   UNL     1      40.819 -10.474   3.958  1.00  0.00     0.085 C 
BRANCH  31  32
HETATM   32  C   UNL     1      40.250 -10.566   5.372  1.00  0.00     0.034 C 
BRANCH  32  33
HETATM   33  C   UNL     1      39.149 -11.611   5.509  1.00  0.00     0.164 C 
BRANCH  33  34
HETATM   34  O   UNL     1      38.024 -11.222   4.727  1.00  0.00    -0.401 OA
HETATM   35  H   UNL     1      37.710 -12.011   4.252  1.00  0.00     0.209 HD
ENDBRANCH  33  34
ENDBRANCH  32  33
ENDBRANCH  31  32
ENDBRANCH   7  31
TORSDOF 7
ENDMDL
MODEL 2
REMARK VINA RESULT:      -8.2      2.847      4.407
REMARK  7 active torsions:
REMARK  status: ('A' for Active; 'I' for Inactive)
REMARK    1  A    between atoms: C_3  and  N_4 
REMARK       I    between atoms: N_4  and  C_5 
REMARK    2  A    between atoms: C_5  and  C_6 
REMARK    3  A    between atoms: C_7  and  C_8 
REMARK    4  A    between atoms: C_20  and  C_21 
REMARK    5  A    between atoms: C_21  and  C_22 
REMARK    6  A    between atoms: C_22  and  C_23 
REMARK    7  A    between atoms: C_23  and  O_24 
ROOT
HETATM    1  C   UNL     1      42.121 -15.530   5.321  1.00  0.00     0.062 A 
HETATM    2  C   UNL     1      40.987 -14.612   4.873  1.00  0.00     0.202 A 
HETATM    3  N   UNL     1      41.131 -13.256   5.413  1.00  0.00    -0.083 N 
HETATM    4  C   UNL     1      42.132 -12.872   6.259  1.00  0.00     0.726 A 
HETATM    5  N   UNL     1      43.069 -13.767   6.614  1.00  0.00    -0.192 N 
HETATM    6  N   UNL     1      40.220 -12.272   5.250  1.00  0.00    -0.140 NA
HETATM    7  C   UNL     1      40.789 -11.286   5.961  1.00  0.00     0.166 A 
HETATM    8  N   UNL     1      41.961 -11.621   6.599  1.00  0.00    -0.046 NA
HETATM    9  C   UNL     1      43.091 -15.081   6.161  1.00  0.00     0.037 A 
HETATM   10  C   UNL     1      44.228 -15.925   6.688  1.00  0.00     0.070 C 
HETATM   11  H   UNL     1      43.815 -13.470   7.237  1.00  0.00     0.184 HD
ENDROOT
BRANCH   1  12
HETATM   12  C   UNL     1      42.224 -16.903   4.731  1.00  0.00     0.256 C 
HETATM   13  N   UNL     1      43.431 -17.199   4.128  1.00  0.00    -0.323 N 
HETATM   14  H   UNL     1      44.226 -16.617   4.342  1.00  0.00     0.169 HD
HETATM   15  O   UNL     1      41.299 -17.692   4.893  1.00  0.00    -0.267 OA
BRANCH  13  16
HETATM   16  C   UNL     1      43.762 -18.462   3.583  1.00  0.00     0.041 A 
HETATM   17  C   UNL     1      43.562 -18.837   2.242  1.00  0.00    -0.035 A 
HETATM   18  C   UNL     1      43.083 -17.904   1.165  1.00  0.00     0.050 C 
HETATM   19  C   UNL     1      43.871 -20.155   1.854  1.00  0.00     0.009 A 
HETATM   20  C   UNL     1      44.420 -21.065   2.757  1.00  0.00     0.001 A 
HETATM   21  C   UNL     1      44.683 -20.667   4.061  1.00  0.00     0.002 A 
HETATM   22  C   UNL     1      44.368 -19.370   4.468  1.00  0.00     0.030 A 
ENDBRANCH  13  16
ENDBRANCH   1  12
BRANCH   2  23
HETATM   23  C   UNL     1      40.791 -14.556   3.360  1.00  0.00    -0.026 A 
HETATM   24  C   UNL     1      39.488 -14.519   2.827  1.00  0.00     0.035 A 
HETATM   25  C   UNL     1      39.277 -14.495   1.443  1.00  0.00     0.056 A 
HETATM   26 CL   UNL     1      37.642 -14.486   0.885  1.00  0.00    -0.083 Cl
HETATM   27  C   UNL     1      40.370 -14.493   0.573  1.00  0.00     0.055 A 
HETATM   28 CL   UNL     1      40.186 -14.471  -1.144  1.00  0.00    -0.083 Cl
HETATM   29  C   UNL     1      41.667 -14.509   1.091  1.00  0.00     0.026 A 
HETATM   30  C   UNL     1      41.878 -14.538   2.473  1.00  0.00     0.011 A 
ENDBRANCH   2  23
BRANCH   7  31
HETATM   31  C   UNL     1      40.189  -9.935   6.093  1.00  0.00     0.085 C 
BRANCH  31  32
HETATM   32  C   UNL     1      39.747  -9.338   4.759  1.00  0.00     0.034 C 
BRANCH  32  33
HETATM   33  C   UNL     1      38.231  -9.267   4.608  1.00  0.00     0.164 C 
BRANCH  33  34
HETATM   34  O   UNL     1      37.703 -10.582   4.470  1.00  0.00    -0.401 OA
HETATM   35  H   UNL     1      38.090 -11.128   5.175  1.00  0.00     0.209 HD
ENDBRANCH  33  34
ENDBRANCH  32  33
ENDBRANCH  31  32
ENDBRANCH   7  31
TORSDOF 7
ENDMDL
MODEL 3
REMARK VINA RESULT:      -8.2      3.003      4.532
REMARK  7 active torsions:
REMARK  status: ('A' for Active; 'I' for Inactive)
REMARK    1  A    between atoms: C_3  and  N_4 
REMARK       I    between atoms: N_4  and  C_5 
REMARK    2  A    between atoms: C_5  and  C_6 
REMARK    3  A    between atoms: C_7  and  C_8 
REMARK    4  A    between atoms: C_20  and  C_21 
REMARK    5  A    between atoms: C_21  and  C_22 
REMARK    6  A    between atoms: C_22  and  C_23 
REMARK    7  A    between atoms: C_23  and  O_24 
ROOT
HETATM    1  C   UNL     1      42.160 -15.562   5.364  1.00  0.00     0.062 A 
HETATM    2  C   UNL     1      41.038 -14.614   4.950  1.00  0.00     0.202 A 
HETATM    3  N   UNL     1      41.207 -13.276   5.526  1.00  0.00    -0.083 N 
HETATM    4  C   UNL     1      42.218 -12.933   6.377  1.00  0.00     0.726 A 
HETATM    5  N   UNL     1      43.142 -13.852   6.702  1.00  0.00    -0.192 N 
HETATM    6  N   UNL     1      40.311 -12.274   5.397  1.00  0.00    -0.140 NA
HETATM    7  C   UNL     1      40.900 -11.317   6.132  1.00  0.00     0.166 A 
HETATM    8  N   UNL     1      42.069 -11.689   6.753  1.00  0.00    -0.046 NA
HETATM    9  C   UNL     1      43.141 -15.153   6.211  1.00  0.00     0.037 A 
HETATM   10  C   UNL     1      44.267 -16.029   6.707  1.00  0.00     0.070 C 
HETATM   11  H   UNL     1      43.897 -13.585   7.328  1.00  0.00     0.184 HD
ENDROOT
BRANCH   1  12
HETATM   12  C   UNL     1      42.237 -16.919   4.735  1.00  0.00     0.256 C 
HETATM   13  N   UNL     1      43.429 -17.210   4.101  1.00  0.00    -0.323 N 
HETATM   14  H   UNL     1      44.233 -16.642   4.316  1.00  0.00     0.169 HD
HETATM   15  O   UNL     1      41.307 -17.703   4.893  1.00  0.00    -0.267 OA
BRANCH  13  16
HETATM   16  C   UNL     1      43.737 -18.461   3.516  1.00  0.00     0.041 A 
HETATM   17  C   UNL     1      43.489 -18.804   2.174  1.00  0.00    -0.035 A 
HETATM   18  C   UNL     1      42.977 -17.844   1.137  1.00  0.00     0.050 C 
HETATM   19  C   UNL     1      43.780 -20.113   1.745  1.00  0.00     0.009 A 
HETATM   20  C   UNL     1      44.356 -21.046   2.607  1.00  0.00     0.001 A 
HETATM   21  C   UNL     1      44.665 -20.680   3.910  1.00  0.00     0.002 A 
HETATM   22  C   UNL     1      44.369 -19.392   4.358  1.00  0.00     0.030 A 
ENDBRANCH  13  16
ENDBRANCH   1  12
BRANCH   2  23
HETATM   23  C   UNL     1      40.834 -14.512   3.440  1.00  0.00    -0.026 A 
HETATM   24  C   UNL     1      39.529 -14.511   2.911  1.00  0.00     0.035 A 
HETATM   25  C   UNL     1      39.313 -14.446   1.530  1.00  0.00     0.056 A 
HETATM   26 CL   UNL     1      37.677 -14.487   0.975  1.00  0.00    -0.083 Cl
HETATM   27  C   UNL     1      40.401 -14.366   0.657  1.00  0.00     0.055 A 
HETATM   28 CL   UNL     1      40.211 -14.290  -1.057  1.00  0.00    -0.083 Cl
HETATM   29  C   UNL     1      41.700 -14.345   1.173  1.00  0.00     0.026 A 
HETATM   30  C   UNL     1      41.917 -14.414   2.552  1.00  0.00     0.011 A 
ENDBRANCH   2  23
BRANCH   7  31
HETATM   31  C   UNL     1      40.323  -9.961   6.307  1.00  0.00     0.085 C 
BRANCH  31  32
HETATM   32  C   UNL     1      40.133  -9.570   7.771  1.00  0.00     0.034 C 
BRANCH  32  33
HETATM   33  C   UNL     1      39.336 -10.597   8.567  1.00  0.00     0.164 C 
BRANCH  33  34
HETATM   34  O   UNL     1      40.220 -11.352   9.390  1.00  0.00    -0.401 OA
HETATM   35  H   UNL     1      41.007 -11.561   8.859  1.00  0.00     0.209 HD
ENDBRANCH  33  34
ENDBRANCH  32  33
ENDBRANCH  31  32
ENDBRANCH   7  31
TORSDOF 7
ENDMDL
MODEL 4
REMARK VINA RESULT:      -7.9      3.233      4.812
REMARK  7 active torsions:
REMARK  status: ('A' for Active; 'I' for Inactive)
REMARK    1  A    between atoms: C_3  and  N_4 
REMARK       I    between atoms: N_4  and  C_5 
REMARK    2  A    between atoms: C_5  and  C_6 
REMARK    3  A    between atoms: C_7  and  C_8 
REMARK    4  A    between atoms: C_20  and  C_21 
REMARK    5  A    between atoms: C_21  and  C_22 
REMARK    6  A    between atoms: C_22  and  C_23 
REMARK    7  A    between atoms: C_23  and  O_24 
ROOT
HETATM    1  C   UNL     1      42.227 -14.649   3.665  1.00  0.00     0.062 A 
HETATM    2  C   UNL     1      40.969 -14.324   2.865  1.00  0.00     0.202 A 
HETATM    3  N   UNL     1      40.374 -13.045   3.270  1.00  0.00    -0.083 N 
HETATM    4  C   UNL     1      40.858 -12.264   4.280  1.00  0.00     0.726 A 
HETATM    5  N   UNL     1      41.959 -12.655   4.942  1.00  0.00    -0.192 N 
HETATM    6  N   UNL     1      39.207 -12.564   2.789  1.00  0.00    -0.140 NA
HETATM    7  C   UNL     1      39.094 -11.431   3.501  1.00  0.00     0.166 A 
HETATM    8  N   UNL     1      40.087 -11.218   4.429  1.00  0.00    -0.046 NA
HETATM    9  C   UNL     1      42.657 -13.822   4.655  1.00  0.00     0.037 A 
HETATM   10  C   UNL     1      43.865 -14.080   5.524  1.00  0.00     0.070 C 
HETATM   11  H   UNL     1      42.316 -12.061   5.686  1.00  0.00     0.184 HD
ENDROOT
BRANCH   1  12
HETATM   12  C   UNL     1      43.056 -15.833   3.272  1.00  0.00     0.256 C 
HETATM   13  N   UNL     1      42.638 -17.045   3.785  1.00  0.00    -0.323 N 
HETATM   14  H   UNL     1      41.700 -17.110   4.148  1.00  0.00     0.169 HD
HETATM   15  O   UNL     1      43.971 -15.680   2.470  1.00  0.00    -0.267 OA
BRANCH  13  16
HETATM   16  C   UNL     1      43.231 -18.291   3.473  1.00  0.00     0.041 A 
HETATM   17  C   UNL     1      44.187 -18.949   4.267  1.00  0.00    -0.035 A 
HETATM   18  C   UNL     1      44.622 -18.480   5.628  1.00  0.00     0.050 C 
HETATM   19  C   UNL     1      44.747 -20.152   3.796  1.00  0.00     0.009 A 
HETATM   20  C   UNL     1      44.331 -20.722   2.594  1.00  0.00     0.001 A 
HETATM   21  C   UNL     1      43.334 -20.105   1.849  1.00  0.00     0.002 A 
HETATM   22  C   UNL     1      42.779 -18.905   2.291  1.00  0.00     0.030 A 
ENDBRANCH  13  16
ENDBRANCH   1  12
BRANCH   2  23
HETATM   23  C   UNL     1      41.168 -14.353   1.351  1.00  0.00    -0.026 A 
HETATM   24  C   UNL     1      41.813 -13.277   0.712  1.00  0.00     0.035 A 
HETATM   25  C   UNL     1      41.984 -13.264  -0.677  1.00  0.00     0.056 A 
HETATM   26 CL   UNL     1      42.756 -11.884  -1.373  1.00  0.00    -0.083 Cl
HETATM   27  C   UNL     1      41.524 -14.336  -1.446  1.00  0.00     0.055 A 
HETATM   28 CL   UNL     1      41.695 -14.385  -3.163  1.00  0.00    -0.083 Cl
HETATM   29  C   UNL     1      40.901 -15.419  -0.819  1.00  0.00     0.026 A 
HETATM   30  C   UNL     1      40.726 -15.431   0.568  1.00  0.00     0.011 A 
ENDBRANCH   2  23
BRANCH   7  31
HETATM   31  C   UNL     1      37.963 -10.484   3.338  1.00  0.00     0.085 C 
BRANCH  31  32
HETATM   32  C   UNL     1      37.697 -10.108   1.882  1.00  0.00     0.034 C 
BRANCH  32  33
HETATM   33  C   UNL     1      36.424 -10.734   1.324  1.00  0.00     0.164 C 
BRANCH  33  34
HETATM   34  O   UNL     1      36.649 -12.115   1.060  1.00  0.00    -0.401 OA
HETATM   35  H   UNL     1      35.788 -12.518   0.856  1.00  0.00     0.209 HD
ENDBRANCH  33  34
ENDBRANCH  32  33
ENDBRANCH  31  32
ENDBRANCH   7  31
TORSDOF 7
ENDMDL
MODEL 5
REMARK VINA RESULT:      -7.7      3.141      4.663
REMARK  7 active torsions:
REMARK  status: ('A' for Active; 'I' for Inactive)
REMARK    1  A    between atoms: C_3  and  N_4 
REMARK       I    between atoms: N_4  and  C_5 
REMARK    2  A    between atoms: C_5  and  C_6 
REMARK    3  A    between atoms: C_7  and  C_8 
REMARK    4  A    between atoms: C_20  and  C_21 
REMARK    5  A    between atoms: C_21  and  C_22 
REMARK    6  A    between atoms: C_22  and  C_23 
REMARK    7  A    between atoms: C_23  and  O_24 
ROOT
HETATM    1  C   UNL     1      42.009 -15.451   2.341  1.00  0.00     0.062 A 
HETATM    2  C   UNL     1      42.395 -13.974   2.337  1.00  0.00     0.202 A 
HETATM    3  N   UNL     1      42.165 -13.349   1.030  1.00  0.00    -0.083 N 
HETATM    4  C   UNL     1      41.710 -14.020  -0.069  1.00  0.00     0.726 A 
HETATM    5  N   UNL     1      41.424 -15.328   0.035  1.00  0.00    -0.192 N 
HETATM    6  N   UNL     1      42.507 -12.078   0.725  1.00  0.00    -0.140 NA
HETATM    7  C   UNL     1      42.142 -12.026  -0.566  1.00  0.00     0.166 A 
HETATM    8  N   UNL     1      41.654 -13.202  -1.087  1.00  0.00    -0.046 NA
HETATM    9  C   UNL     1      41.555 -16.056   1.211  1.00  0.00     0.037 A 
HETATM   10  C   UNL     1      41.187 -17.517   1.110  1.00  0.00     0.070 C 
HETATM   11  H   UNL     1      41.077 -15.817  -0.787  1.00  0.00     0.184 HD
ENDROOT
BRANCH   1  12
HETATM   12  C   UNL     1      42.021 -16.204   3.636  1.00  0.00     0.256 C 
HETATM   13  N   UNL     1      43.270 -16.412   4.187  1.00  0.00    -0.323 N 
HETATM   14  H   UNL     1      44.036 -15.846   3.857  1.00  0.00     0.169 HD
HETATM   15  O   UNL     1      40.954 -16.502   4.162  1.00  0.00    -0.267 OA
BRANCH  13  16
HETATM   16  C   UNL     1      43.496 -17.029   5.441  1.00  0.00     0.041 A 
HETATM   17  C   UNL     1      43.890 -18.367   5.620  1.00  0.00    -0.035 A 
HETATM   18  C   UNL     1      44.250 -19.300   4.497  1.00  0.00     0.050 C 
HETATM   19  C   UNL     1      44.007 -18.869   6.930  1.00  0.00     0.009 A 
HETATM   20  C   UNL     1      43.797 -18.052   8.040  1.00  0.00     0.001 A 
HETATM   21  C   UNL     1      43.478 -16.712   7.857  1.00  0.00     0.002 A 
HETATM   22  C   UNL     1      43.342 -16.201   6.566  1.00  0.00     0.030 A 
ENDBRANCH  13  16
ENDBRANCH   1  12
BRANCH   2  23
HETATM   23  C   UNL     1      41.726 -13.151   3.436  1.00  0.00    -0.026 A 
HETATM   24  C   UNL     1      40.438 -12.625   3.226  1.00  0.00     0.035 A 
HETATM   25  C   UNL     1      39.812 -11.844   4.205  1.00  0.00     0.056 A 
HETATM   26 CL   UNL     1      38.245 -11.213   3.841  1.00  0.00    -0.083 Cl
HETATM   27  C   UNL     1      40.462 -11.591   5.415  1.00  0.00     0.055 A 
HETATM   28 CL   UNL     1      39.754 -10.632   6.665  1.00  0.00    -0.083 Cl
HETATM   29  C   UNL     1      41.733 -12.126   5.642  1.00  0.00     0.026 A 
HETATM   30  C   UNL     1      42.361 -12.902   4.663  1.00  0.00     0.011 A 
ENDBRANCH   2  23
BRANCH   7  31
HETATM   31  C   UNL     1      42.285 -10.806  -1.398  1.00  0.00     0.085 C 
BRANCH  31  32
HETATM   32  C   UNL     1      43.659 -10.150  -1.276  1.00  0.00     0.034 C 
BRANCH  32  33
HETATM   33  C   UNL     1      43.620  -8.805  -0.559  1.00  0.00     0.164 C 
BRANCH  33  34
HETATM   34  O   UNL     1      42.834  -8.918   0.623  1.00  0.00    -0.401 OA
HETATM   35  H   UNL     1      43.139  -8.236   1.244  1.00  0.00     0.209 HD
ENDBRANCH  33  34
ENDBRANCH  32  33
ENDBRANCH  31  32
ENDBRANCH   7  31
TORSDOF 7
ENDMDL
MODEL 6
REMARK VINA RESULT:      -7.5      3.726      5.262
REMARK  7 active torsions:
REMARK  status: ('A' for Active; 'I' for Inactive)
REMARK    1  A    between atoms: C_3  and  N_4 
REMARK       I    between atoms: N_4  and  C_5 
REMARK    2  A    between atoms: C_5  and  C_6 
REMARK    3  A    between atoms: C_7  and  C_8 
REMARK    4  A    between atoms: C_20  and  C_21 
REMARK    5  A    between atoms: C_21  and  C_22 
REMARK    6  A    between atoms: C_22  and  C_23 
REMARK    7  A    between atoms: C_23  and  O_24 
ROOT
HETATM    1  C   UNL     1      41.134 -14.014   3.472  1.00  0.00     0.062 A 
HETATM    2  C   UNL     1      40.169 -13.715   2.328  1.00  0.00     0.202 A 
HETATM    3  N   UNL     1      39.315 -12.557   2.616  1.00  0.00    -0.083 N 
HETATM    4  C   UNL     1      39.342 -11.861   3.790  1.00  0.00     0.726 A 
HETATM    5  N   UNL     1      40.213 -12.223   4.747  1.00  0.00    -0.192 N 
HETATM    6  N   UNL     1      38.312 -12.135   1.816  1.00  0.00    -0.140 NA
HETATM    7  C   UNL     1      37.831 -11.112   2.540  1.00  0.00     0.166 A 
HETATM    8  N   UNL     1      38.436 -10.919   3.760  1.00  0.00    -0.046 NA
HETATM    9  C   UNL     1      41.111 -13.275   4.614  1.00  0.00     0.037 A 
HETATM   10  C   UNL     1      41.999 -13.520   5.811  1.00  0.00     0.070 C 
HETATM   11  H   UNL     1      40.232 -11.693   5.614  1.00  0.00     0.184 HD
ENDROOT
BRANCH   1  12
HETATM   12  C   UNL     1      42.191 -15.057   3.281  1.00  0.00     0.256 C 
HETATM   13  N   UNL     1      41.786 -16.358   3.508  1.00  0.00    -0.323 N 
HETATM   14  H   UNL     1      40.797 -16.554   3.520  1.00  0.00     0.169 HD
HETATM   15  O   UNL     1      43.292 -14.720   2.859  1.00  0.00    -0.267 OA
BRANCH  13  16
HETATM   16  C   UNL     1      42.604 -17.495   3.306  1.00  0.00     0.041 A 
HETATM   17  C   UNL     1      43.457 -18.055   4.274  1.00  0.00    -0.035 A 
HETATM   18  C   UNL     1      43.527 -17.598   5.705  1.00  0.00     0.050 C 
HETATM   19  C   UNL     1      44.271 -19.145   3.910  1.00  0.00     0.009 A 
HETATM   20  C   UNL     1      44.201 -19.707   2.636  1.00  0.00     0.001 A 
HETATM   21  C   UNL     1      43.304 -19.196   1.707  1.00  0.00     0.002 A 
HETATM   22  C   UNL     1      42.502 -18.106   2.043  1.00  0.00     0.030 A 
ENDBRANCH  13  16
ENDBRANCH   1  12
BRANCH   2  23
HETATM   23  C   UNL     1      40.846 -13.542   0.970  1.00  0.00    -0.026 A 
HETATM   24  C   UNL     1      40.656 -14.512  -0.031  1.00  0.00     0.035 A 
HETATM   25  C   UNL     1      41.286 -14.394  -1.276  1.00  0.00     0.056 A 
HETATM   26 CL   UNL     1      41.020 -15.653  -2.429  1.00  0.00    -0.083 Cl
HETATM   27  C   UNL     1      42.105 -13.294  -1.540  1.00  0.00     0.055 A 
HETATM   28 CL   UNL     1      42.919 -13.085  -3.048  1.00  0.00    -0.083 Cl
HETATM   29  C   UNL     1      42.284 -12.314  -0.559  1.00  0.00     0.026 A 
HETATM   30  C   UNL     1      41.659 -12.434   0.685  1.00  0.00     0.011 A 
ENDBRANCH   2  23
BRANCH   7  31
HETATM   31  C   UNL     1      36.700 -10.263   2.089  1.00  0.00     0.085 C 
BRANCH  31  32
HETATM   32  C   UNL     1      36.195 -10.624   0.693  1.00  0.00     0.034 C 
BRANCH  32  33
HETATM   33  C   UNL     1      34.692 -10.872   0.644  1.00  0.00     0.164 C 
BRANCH  33  34
HETATM   34  O   UNL     1      34.134 -10.672   1.939  1.00  0.00    -0.401 OA
HETATM   35  H   UNL     1      34.842 -10.817   2.589  1.00  0.00     0.209 HD
ENDBRANCH  33  34
ENDBRANCH  32  33
ENDBRANCH  31  32
ENDBRANCH   7  31
TORSDOF 7
ENDMDL
MODEL 7
REMARK VINA RESULT:      -7.4      3.069      6.941
REMARK  7 active torsions:
REMARK  status: ('A' for Active; 'I' for Inactive)
REMARK    1  A    between atoms: C_3  and  N_4 
REMARK       I    between atoms: N_4  and  C_5 
REMARK    2  A    between atoms: C_5  and  C_6 
REMARK    3  A    between atoms: C_7  and  C_8 
REMARK    4  A    between atoms: C_20  and  C_21 
REMARK    5  A    between atoms: C_21  and  C_22 
REMARK    6  A    between atoms: C_22  and  C_23 
REMARK    7  A    between atoms: C_23  and  O_24 
ROOT
HETATM    1  C   UNL     1      40.782 -15.947   2.112  1.00  0.00     0.062 A 
HETATM    2  C   UNL     1      41.128 -16.145   3.585  1.00  0.00     0.202 A 
HETATM    3  N   UNL     1      42.324 -16.977   3.763  1.00  0.00    -0.083 N 
HETATM    4  C   UNL     1      43.014 -17.552   2.734  1.00  0.00     0.726 A 
HETATM    5  N   UNL     1      42.609 -17.337   1.472  1.00  0.00    -0.192 N 
HETATM    6  N   UNL     1      42.795 -17.384   4.961  1.00  0.00    -0.140 NA
HETATM    7  C   UNL     1      43.837 -18.138   4.575  1.00  0.00     0.166 A 
HETATM    8  N   UNL     1      43.997 -18.267   3.215  1.00  0.00    -0.046 NA
HETATM    9  C   UNL     1      41.517 -16.545   1.137  1.00  0.00     0.037 A 
HETATM   10  C   UNL     1      41.227 -16.439  -0.342  1.00  0.00     0.070 C 
HETATM   11  H   UNL     1      43.135 -17.761   0.712  1.00  0.00     0.184 HD
ENDROOT
BRANCH   1  12
HETATM   12  C   UNL     1      39.691 -14.990   1.742  1.00  0.00     0.256 C 
HETATM   13  N   UNL     1      40.115 -13.771   1.251  1.00  0.00    -0.323 N 
HETATM   14  H   UNL     1      41.067 -13.693   0.927  1.00  0.00     0.169 HD
HETATM   15  O   UNL     1      38.524 -15.363   1.804  1.00  0.00    -0.267 OA
BRANCH  13  16
HETATM   16  C   UNL     1      39.250 -12.760   0.769  1.00  0.00     0.041 A 
HETATM   17  C   UNL     1      38.593 -11.812   1.575  1.00  0.00    -0.035 A 
HETATM   18  C   UNL     1      38.818 -11.659   3.054  1.00  0.00     0.050 C 
HETATM   19  C   UNL     1      37.702 -10.908   0.967  1.00  0.00     0.009 A 
HETATM   20  C   UNL     1      37.506 -10.902  -0.413  1.00  0.00     0.001 A 
HETATM   21  C   UNL     1      38.212 -11.793  -1.212  1.00  0.00     0.002 A 
HETATM   22  C   UNL     1      39.088 -12.707  -0.626  1.00  0.00     0.030 A 
ENDBRANCH  13  16
ENDBRANCH   1  12
BRANCH   2  23
HETATM   23  C   UNL     1      41.274 -14.844   4.372  1.00  0.00    -0.026 A 
HETATM   24  C   UNL     1      40.277 -14.470   5.292  1.00  0.00     0.035 A 
HETATM   25  C   UNL     1      40.370 -13.270   6.006  1.00  0.00     0.056 A 
HETATM   26 CL   UNL     1      39.079 -12.881   7.086  1.00  0.00    -0.083 Cl
HETATM   27  C   UNL     1      41.473 -12.433   5.819  1.00  0.00     0.055 A 
HETATM   28 CL   UNL     1      41.652 -10.935   6.660  1.00  0.00    -0.083 Cl
HETATM   29  C   UNL     1      42.479 -12.804   4.924  1.00  0.00     0.026 A 
HETATM   30  C   UNL     1      42.384 -14.001   4.206  1.00  0.00     0.011 A 
ENDBRANCH   2  23
BRANCH   7  31
HETATM   31  C   UNL     1      44.738 -18.824   5.534  1.00  0.00     0.085 C 
BRANCH  31  32
HETATM   32  C   UNL     1      45.006 -18.009   6.797  1.00  0.00     0.034 C 
BRANCH  32  33
HETATM   33  C   UNL     1      44.215 -18.497   8.005  1.00  0.00     0.164 C 
BRANCH  33  34
HETATM   34  O   UNL     1      43.001 -17.760   8.110  1.00  0.00    -0.401 OA
HETATM   35  H   UNL     1      43.008 -17.084   7.410  1.00  0.00     0.209 HD
ENDBRANCH  33  34
ENDBRANCH  32  33
ENDBRANCH  31  32
ENDBRANCH   7  31
TORSDOF 7
ENDMDL
MODEL 8
REMARK VINA RESULT:      -7.3      2.959      4.381
REMARK  7 active torsions:
REMARK  status: ('A' for Active; 'I' for Inactive)
REMARK    1  A    between atoms: C_3  and  N_4 
REMARK       I    between atoms: N_4  and  C_5 
REMARK    2  A    between atoms: C_5  and  C_6 
REMARK    3  A    between atoms: C_7  and  C_8 
REMARK    4  A    between atoms: C_20  and  C_21 
REMARK    5  A    between atoms: C_21  and  C_22 
REMARK    6  A    between atoms: C_22  and  C_23 
REMARK    7  A    between atoms: C_23  and  O_24 
ROOT
HETATM    1  C   UNL     1      41.627 -14.762   1.918  1.00  0.00     0.062 A 
HETATM    2  C   UNL     1      41.010 -13.372   2.051  1.00  0.00     0.202 A 
HETATM    3  N   UNL     1      39.864 -13.190   1.152  1.00  0.00    -0.083 N 
HETATM    4  C   UNL     1      39.434 -14.133   0.263  1.00  0.00     0.726 A 
HETATM    5  N   UNL     1      40.066 -15.317   0.206  1.00  0.00    -0.192 N 
HETATM    6  N   UNL     1      39.194 -12.028   1.000  1.00  0.00    -0.140 NA
HETATM    7  C   UNL     1      38.306 -12.375   0.056  1.00  0.00     0.166 A 
HETATM    8  N   UNL     1      38.428 -13.658  -0.424  1.00  0.00    -0.046 NA
HETATM    9  C   UNL     1      41.144 -15.655   1.015  1.00  0.00     0.037 A 
HETATM   10  C   UNL     1      41.714 -17.036   0.785  1.00  0.00     0.070 C 
HETATM   11  H   UNL     1      39.732 -16.016  -0.453  1.00  0.00     0.184 HD
ENDROOT
BRANCH   1  12
HETATM   12  C   UNL     1      42.699 -15.178   2.877  1.00  0.00     0.256 C 
HETATM   13  N   UNL     1      42.373 -16.231   3.708  1.00  0.00    -0.323 N 
HETATM   14  H   UNL     1      41.586 -16.809   3.459  1.00  0.00     0.169 HD
HETATM   15  O   UNL     1      43.800 -14.641   2.809  1.00  0.00    -0.267 OA
BRANCH  13  16
HETATM   16  C   UNL     1      43.268 -16.829   4.628  1.00  0.00     0.041 A 
HETATM   17  C   UNL     1      43.941 -18.046   4.420  1.00  0.00    -0.035 A 
HETATM   18  C   UNL     1      43.902 -18.825   3.134  1.00  0.00     0.050 C 
HETATM   19  C   UNL     1      44.746 -18.560   5.454  1.00  0.00     0.009 A 
HETATM   20  C   UNL     1      44.929 -17.859   6.646  1.00  0.00     0.001 A 
HETATM   21  C   UNL     1      44.320 -16.623   6.817  1.00  0.00     0.002 A 
HETATM   22  C   UNL     1      43.505 -16.105   5.810  1.00  0.00     0.030 A 
ENDBRANCH  13  16
ENDBRANCH   1  12
BRANCH   2  23
HETATM   23  C   UNL     1      40.619 -12.997   3.479  1.00  0.00    -0.026 A 
HETATM   24  C   UNL     1      41.116 -11.809   4.047  1.00  0.00     0.035 A 
HETATM   25  C   UNL     1      40.797 -11.453   5.364  1.00  0.00     0.056 A 
HETATM   26 CL   UNL     1      41.483  -9.995   5.985  1.00  0.00    -0.083 Cl
HETATM   27  C   UNL     1      39.964 -12.277   6.125  1.00  0.00     0.055 A 
HETATM   28 CL   UNL     1      39.534 -11.906   7.756  1.00  0.00    -0.083 Cl
HETATM   29  C   UNL     1      39.449 -13.448   5.563  1.00  0.00     0.026 A 
HETATM   30  C   UNL     1      39.771 -13.806   4.250  1.00  0.00     0.011 A 
ENDBRANCH   2  23
BRANCH   7  31
HETATM   31  C   UNL     1      37.282 -11.439  -0.474  1.00  0.00     0.085 C 
BRANCH  31  32
HETATM   32  C   UNL     1      35.935 -11.554   0.236  1.00  0.00     0.034 C 
BRANCH  32  33
HETATM   33  C   UNL     1      35.719 -10.474   1.291  1.00  0.00     0.164 C 
BRANCH  33  34
HETATM   34  O   UNL     1      34.426 -10.622   1.867  1.00  0.00    -0.401 OA
HETATM   35  H   UNL     1      34.474 -11.347   2.513  1.00  0.00     0.209 HD
ENDBRANCH  33  34
ENDBRANCH  32  33
ENDBRANCH  31  32
ENDBRANCH   7  31
TORSDOF 7
ENDMDL
MODEL 9
REMARK VINA RESULT:      -7.2      3.020      4.752
REMARK  7 active torsions:
REMARK  status: ('A' for Active; 'I' for Inactive)
REMARK    1  A    between atoms: C_3  and  N_4 
REMARK       I    between atoms: N_4  and  C_5 
REMARK    2  A    between atoms: C_5  and  C_6 
REMARK    3  A    between atoms: C_7  and  C_8 
REMARK    4  A    between atoms: C_20  and  C_21 
REMARK    5  A    between atoms: C_21  and  C_22 
REMARK    6  A    between atoms: C_22  and  C_23 
REMARK    7  A    between atoms: C_23  and  O_24 
ROOT
HETATM    1  C   UNL     1      42.619 -14.108   5.379  1.00  0.00     0.062 A 
HETATM    2  C   UNL     1      41.203 -13.555   5.239  1.00  0.00     0.202 A 
HETATM    3  N   UNL     1      40.964 -12.420   6.138  1.00  0.00    -0.083 N 
HETATM    4  C   UNL     1      41.881 -11.948   7.032  1.00  0.00     0.726 A 
HETATM    5  N   UNL     1      43.093 -12.524   7.095  1.00  0.00    -0.192 N 
HETATM    6  N   UNL     1      39.771 -11.805   6.284  1.00  0.00    -0.140 NA
HETATM    7  C   UNL     1      40.071 -10.902   7.231  1.00  0.00     0.166 A 
HETATM    8  N   UNL     1      41.356 -10.966   7.718  1.00  0.00    -0.046 NA
HETATM    9  C   UNL     1      43.485 -13.585   6.287  1.00  0.00     0.037 A 
HETATM   10  C   UNL     1      44.888 -14.090   6.523  1.00  0.00     0.070 C 
HETATM   11  H   UNL     1      43.772 -12.159   7.758  1.00  0.00     0.184 HD
ENDROOT
BRANCH   1  12
HETATM   12  C   UNL     1      43.089 -15.159   4.421  1.00  0.00     0.256 C 
HETATM   13  N   UNL     1      42.750 -16.455   4.753  1.00  0.00    -0.323 N 
HETATM   14  H   UNL     1      42.016 -16.598   5.429  1.00  0.00     0.169 HD
HETATM   15  O   UNL     1      43.647 -14.814   3.385  1.00  0.00    -0.267 OA
BRANCH  13  16
HETATM   16  C   UNL     1      43.026 -17.585   3.945  1.00  0.00     0.041 A 
HETATM   17  C   UNL     1      43.995 -18.562   4.233  1.00  0.00    -0.035 A 
HETATM   18  C   UNL     1      44.790 -18.615   5.509  1.00  0.00     0.050 C 
HETATM   19  C   UNL     1      44.214 -19.594   3.301  1.00  0.00     0.009 A 
HETATM   20  C   UNL     1      43.453 -19.692   2.137  1.00  0.00     0.001 A 
HETATM   21  C   UNL     1      42.448 -18.764   1.892  1.00  0.00     0.002 A 
HETATM   22  C   UNL     1      42.227 -17.725   2.797  1.00  0.00     0.030 A 
ENDBRANCH  13  16
ENDBRANCH   1  12
BRANCH   2  23
HETATM   23  C   UNL     1      40.818 -13.181   3.809  1.00  0.00    -0.026 A 
HETATM   24  C   UNL     1      39.761 -13.859   3.173  1.00  0.00     0.035 A 
HETATM   25  C   UNL     1      39.404 -13.556   1.853  1.00  0.00     0.056 A 
HETATM   26 CL   UNL     1      38.117 -14.467   1.146  1.00  0.00    -0.083 Cl
HETATM   27  C   UNL     1      40.091 -12.559   1.157  1.00  0.00     0.055 A 
HETATM   28 CL   UNL     1      39.711 -12.138  -0.474  1.00  0.00    -0.083 Cl
HETATM   29  C   UNL     1      41.128 -11.866   1.786  1.00  0.00     0.026 A 
HETATM   30  C   UNL     1      41.489 -12.171   3.103  1.00  0.00     0.011 A 
ENDBRANCH   2  23
BRANCH   7  31
HETATM   31  C   UNL     1      39.087  -9.924   7.757  1.00  0.00     0.085 C 
BRANCH  31  32
HETATM   32  C   UNL     1      39.368  -8.489   7.316  1.00  0.00     0.034 C 
BRANCH  32  33
HETATM   33  C   UNL     1      38.627  -8.097   6.042  1.00  0.00     0.164 C 
BRANCH  33  34
HETATM   34  O   UNL     1      37.893  -9.215   5.555  1.00  0.00    -0.401 OA
HETATM   35  H   UNL     1      37.402  -8.923   4.768  1.00  0.00     0.209 HD
ENDBRANCH  33  34
ENDBRANCH  32  33
ENDBRANCH  31  32
ENDBRANCH   7  31
TORSDOF 7
ENDMDL
MODEL 10
REMARK VINA RESULT:      -7.2      2.902      7.281
REMARK  7 active torsions:
REMARK  status: ('A' for Active; 'I' for Inactive)
REMARK    1  A    between atoms: C_3  and  N_4 
REMARK       I    between atoms: N_4  and  C_5 
REMARK    2  A    between atoms: C_5  and  C_6 
REMARK    3  A    between atoms: C_7  and  C_8 
REMARK    4  A    between atoms: C_20  and  C_21 
REMARK    5  A    between atoms: C_21  and  C_22 
REMARK    6  A    between atoms: C_22  and  C_23 
REMARK    7  A    between atoms: C_23  and  O_24 
ROOT
HETATM    1  C   UNL     1      40.773 -15.908   2.042  1.00  0.00     0.062 A 
HETATM    2  C   UNL     1      41.127 -16.114   3.512  1.00  0.00     0.202 A 
HETATM    3  N   UNL     1      42.322 -16.948   3.680  1.00  0.00    -0.083 N 
HETATM    4  C   UNL     1      43.006 -17.519   2.646  1.00  0.00     0.726 A 
HETATM    5  N   UNL     1      42.595 -17.297   1.386  1.00  0.00    -0.192 N 
HETATM    6  N   UNL     1      42.799 -17.362   4.874  1.00  0.00    -0.140 NA
HETATM    7  C   UNL     1      43.837 -18.116   4.479  1.00  0.00     0.166 A 
HETATM    8  N   UNL     1      43.990 -18.239   3.118  1.00  0.00    -0.046 NA
HETATM    9  C   UNL     1      41.503 -16.502   1.061  1.00  0.00     0.037 A 
HETATM   10  C   UNL     1      41.205 -16.389  -0.416  1.00  0.00     0.070 C 
HETATM   11  H   UNL     1      43.117 -17.719   0.622  1.00  0.00     0.184 HD
ENDROOT
BRANCH   1  12
HETATM   12  C   UNL     1      39.682 -14.948   1.682  1.00  0.00     0.256 C 
HETATM   13  N   UNL     1      40.105 -13.732   1.183  1.00  0.00    -0.323 N 
HETATM   14  H   UNL     1      41.053 -13.659   0.848  1.00  0.00     0.169 HD
HETATM   15  O   UNL     1      38.515 -15.316   1.759  1.00  0.00    -0.267 OA
BRANCH  13  16
HETATM   16  C   UNL     1      39.239 -12.718   0.709  1.00  0.00     0.041 A 
HETATM   17  C   UNL     1      38.559 -11.795   1.523  1.00  0.00    -0.035 A 
HETATM   18  C   UNL     1      38.757 -11.672   3.009  1.00  0.00     0.050 C 
HETATM   19  C   UNL     1      37.670 -10.886   0.920  1.00  0.00     0.009 A 
HETATM   20  C   UNL     1      37.498 -10.851  -0.463  1.00  0.00     0.001 A 
HETATM   21  C   UNL     1      38.225 -11.717  -1.269  1.00  0.00     0.002 A 
HETATM   22  C   UNL     1      39.100 -12.636  -0.688  1.00  0.00     0.030 A 
ENDBRANCH  13  16
ENDBRANCH   1  12
BRANCH   2  23
HETATM   23  C   UNL     1      41.279 -14.817   4.305  1.00  0.00    -0.026 A 
HETATM   24  C   UNL     1      40.286 -14.446   5.231  1.00  0.00     0.035 A 
HETATM   25  C   UNL     1      40.385 -13.249   5.951  1.00  0.00     0.056 A 
HETATM   26 CL   UNL     1      39.100 -12.864   7.040  1.00  0.00    -0.083 Cl
HETATM   27  C   UNL     1      41.488 -12.413   5.763  1.00  0.00     0.055 A 
HETATM   28 CL   UNL     1      41.674 -10.919   6.610  1.00  0.00    -0.083 Cl
HETATM   29  C   UNL     1      42.489 -12.781   4.860  1.00  0.00     0.026 A 
HETATM   30  C   UNL     1      42.389 -13.974   4.138  1.00  0.00     0.011 A 
ENDBRANCH   2  23
BRANCH   7  31
HETATM   31  C   UNL     1      44.742 -18.807   5.431  1.00  0.00     0.085 C 
BRANCH  31  32
HETATM   32  C   UNL     1      44.364 -20.268   5.669  1.00  0.00     0.034 C 
BRANCH  32  33
HETATM   33  C   UNL     1      45.129 -21.239   4.776  1.00  0.00     0.164 C 
BRANCH  33  34
HETATM   34  O   UNL     1      44.489 -21.323   3.507  1.00  0.00    -0.401 OA
HETATM   35  H   UNL     1      45.139 -21.058   2.833  1.00  0.00     0.209 HD
ENDBRANCH  33  34
ENDBRANCH  32  33
ENDBRANCH  31  32
ENDBRANCH   7  31
TORSDOF 7
ENDMDL
