MODEL 1
REMARK VINA RESULT:      -8.5      0.000      0.000
REMARK  2 active torsions:
REMARK  status: ('A' for Active; 'I' for Inactive)
REMARK    1  A    between atoms: C_3  and  C_4 
REMARK    2  A    between atoms: C_19  and  O_20 
ROOT
HETATM    1  C   UNL     1      42.223 -16.038   1.954  1.00  0.00     0.137 C 
HETATM    2  N   UNL     1      41.818 -17.447   2.186  1.00  0.00    -0.278 NA
HETATM    3  C   UNL     1      42.794 -18.343   2.669  1.00  0.00     0.036 A 
HETATM    4  C   UNL     1      43.371 -18.220   3.953  1.00  0.00     0.053 A 
HETATM    5  N   UNL     1      43.093 -17.140   4.828  1.00  0.00    -0.356 N 
HETATM    6  C   UNL     1      43.032 -15.832   4.400  1.00  0.00     0.041 A 
HETATM    7  C   UNL     1      42.719 -15.363   3.182  1.00  0.00     0.056 A 
HETATM    8  C   UNL     1      43.035 -13.924   3.199  1.00  0.00     0.251 A 
HETATM    9  O   UNL     1      43.053 -13.171   2.244  1.00  0.00    -0.268 OA
HETATM   10  N   UNL     1      43.381 -13.588   4.482  1.00  0.00    -0.351 N 
HETATM   11  C   UNL     1      43.421 -14.723   5.340  1.00  0.00     0.180 A 
HETATM   12  C   UNL     1      43.140 -19.447   1.870  1.00  0.00     0.026 A 
HETATM   13  C   UNL     1      44.051 -20.407   2.315  1.00  0.00     0.002 A 
HETATM   14  C   UNL     1      44.615 -20.289   3.578  1.00  0.00     0.002 A 
HETATM   15  C   UNL     1      44.272 -19.209   4.393  1.00  0.00     0.031 A 
HETATM   16  H   UNL     1      41.425 -17.805   1.316  1.00  0.00     0.128 HD
HETATM   17  H   UNL     1      43.506 -17.259   5.748  1.00  0.00     0.166 HD
HETATM   18  H   UNL     1      43.678 -12.651   4.716  1.00  0.00     0.163 HD
ENDROOT
BRANCH   1  19
HETATM   19  C   UNL     1      40.972 -15.358   1.397  1.00  0.00    -0.002 A 
HETATM   20  C   UNL     1      39.791 -15.330   2.161  1.00  0.00     0.012 A 
HETATM   21  C   UNL     1      38.624 -14.754   1.652  1.00  0.00     0.001 A 
HETATM   22  C   UNL     1      38.616 -14.202   0.372  1.00  0.00     0.003 A 
HETATM   23  C   UNL     1      39.776 -14.216  -0.398  1.00  0.00     0.037 A 
HETATM   24  C   UNL     1      40.941 -14.779   0.116  1.00  0.00     0.073 A 
BRANCH  24  25
HETATM   25  O   UNL     1      42.057 -14.720  -0.677  1.00  0.00    -0.360 OA
HETATM   26  H   UNL     1      41.867 -15.242  -1.489  1.00  0.00     0.217 HD
ENDBRANCH  24  25
ENDBRANCH   1  19
TORSDOF 2
ENDMDL
MODEL 2
REMARK VINA RESULT:      -8.2      2.264      4.059
REMARK  2 active torsions:
REMARK  status: ('A' for Active; 'I' for Inactive)
REMARK    1  A    between atoms: C_3  and  C_4 
REMARK    2  A    between atoms: C_19  and  O_20 
ROOT
HETATM    1  C   UNL     1      41.648 -16.121   3.802  1.00  0.00     0.137 C 
HETATM    2  N   UNL     1      43.031 -16.487   4.200  1.00  0.00    -0.278 NA
HETATM    3  C   UNL     1      43.507 -17.762   3.834  1.00  0.00     0.036 A 
HETATM    4  C   UNL     1      43.716 -18.139   2.488  1.00  0.00     0.053 A 
HETATM    5  N   UNL     1      43.379 -17.310   1.389  1.00  0.00    -0.356 N 
HETATM    6  C   UNL     1      42.197 -16.605   1.324  1.00  0.00     0.041 A 
HETATM    7  C   UNL     1      41.436 -16.148   2.331  1.00  0.00     0.056 A 
HETATM    8  C   UNL     1      40.179 -15.680   1.722  1.00  0.00     0.251 A 
HETATM    9  O   UNL     1      39.166 -15.350   2.307  1.00  0.00    -0.268 OA
HETATM   10  N   UNL     1      40.324 -15.750   0.361  1.00  0.00    -0.351 N 
HETATM   11  C   UNL     1      41.569 -16.329  -0.016  1.00  0.00     0.180 A 
HETATM   12  C   UNL     1      43.866 -18.659   4.856  1.00  0.00     0.026 A 
HETATM   13  C   UNL     1      44.405 -19.913   4.563  1.00  0.00     0.002 A 
HETATM   14  C   UNL     1      44.614 -20.283   3.241  1.00  0.00     0.002 A 
HETATM   15  C   UNL     1      44.279 -19.400   2.213  1.00  0.00     0.031 A 
HETATM   16  H   UNL     1      43.104 -16.370   5.211  1.00  0.00     0.128 HD
HETATM   17  H   UNL     1      43.690 -17.685   0.499  1.00  0.00     0.166 HD
HETATM   18  H   UNL     1      39.563 -15.514  -0.259  1.00  0.00     0.163 HD
ENDROOT
BRANCH   1  19
HETATM   19  C   UNL     1      41.431 -14.723   4.383  1.00  0.00    -0.002 A 
HETATM   20  C   UNL     1      42.201 -13.643   3.916  1.00  0.00     0.012 A 
HETATM   21  C   UNL     1      42.049 -12.367   4.465  1.00  0.00     0.001 A 
HETATM   22  C   UNL     1      41.131 -12.150   5.491  1.00  0.00     0.003 A 
HETATM   23  C   UNL     1      40.356 -13.206   5.964  1.00  0.00     0.037 A 
HETATM   24  C   UNL     1      40.500 -14.474   5.407  1.00  0.00     0.073 A 
BRANCH  24  25
HETATM   25  O   UNL     1      39.676 -15.456   5.890  1.00  0.00    -0.360 OA
HETATM   26  H   UNL     1      39.083 -15.041   6.555  1.00  0.00     0.217 HD
ENDBRANCH  24  25
ENDBRANCH   1  19
TORSDOF 2
ENDMDL
MODEL 3
REMARK VINA RESULT:      -8.2      2.193      2.830
REMARK  2 active torsions:
REMARK  status: ('A' for Active; 'I' for Inactive)
REMARK    1  A    between atoms: C_3  and  C_4 
REMARK    2  A    between atoms: C_19  and  O_20 
ROOT
HETATM    1  C   UNL     1      43.248 -16.209   4.268  1.00  0.00     0.137 C 
HETATM    2  N   UNL     1      42.754 -17.459   3.637  1.00  0.00    -0.278 NA
HETATM    3  C   UNL     1      43.519 -18.630   3.805  1.00  0.00     0.036 A 
HETATM    4  C   UNL     1      43.697 -19.250   5.063  1.00  0.00     0.053 A 
HETATM    5  N   UNL     1      43.204 -18.701   6.274  1.00  0.00    -0.356 N 
HETATM    6  C   UNL     1      43.309 -17.361   6.581  1.00  0.00     0.041 A 
HETATM    7  C   UNL     1      43.381 -16.313   5.745  1.00  0.00     0.056 A 
HETATM    8  C   UNL     1      43.718 -15.144   6.576  1.00  0.00     0.251 A 
HETATM    9  O   UNL     1      44.036 -14.039   6.181  1.00  0.00    -0.268 OA
HETATM   10  N   UNL     1      43.681 -15.540   7.887  1.00  0.00    -0.351 N 
HETATM   11  C   UNL     1      43.435 -16.936   8.019  1.00  0.00     0.180 A 
HETATM   12  C   UNL     1      44.054 -19.249   2.660  1.00  0.00     0.026 A 
HETATM   13  C   UNL     1      44.766 -20.445   2.749  1.00  0.00     0.002 A 
HETATM   14  C   UNL     1      44.938 -21.057   3.985  1.00  0.00     0.002 A 
HETATM   15  C   UNL     1      44.401 -20.467   5.130  1.00  0.00     0.031 A 
HETATM   16  H   UNL     1      42.624 -17.274   2.642  1.00  0.00     0.128 HD
HETATM   17  H   UNL     1      43.325 -19.321   7.068  1.00  0.00     0.166 HD
HETATM   18  H   UNL     1      43.921 -14.903   8.633  1.00  0.00     0.163 HD
ENDROOT
BRANCH   1  19
HETATM   19  C   UNL     1      42.235 -15.138   3.862  1.00  0.00    -0.002 A 
HETATM   20  C   UNL     1      40.857 -15.404   3.960  1.00  0.00     0.012 A 
HETATM   21  C   UNL     1      39.916 -14.456   3.551  1.00  0.00     0.001 A 
HETATM   22  C   UNL     1      40.334 -13.231   3.034  1.00  0.00     0.003 A 
HETATM   23  C   UNL     1      41.694 -12.947   2.933  1.00  0.00     0.037 A 
HETATM   24  C   UNL     1      42.630 -13.888   3.352  1.00  0.00     0.073 A 
BRANCH  24  25
HETATM   25  O   UNL     1      43.948 -13.527   3.266  1.00  0.00    -0.360 OA
HETATM   26  H   UNL     1      44.442 -14.062   3.927  1.00  0.00     0.217 HD
ENDBRANCH  24  25
ENDBRANCH   1  19
TORSDOF 2
ENDMDL
MODEL 4
REMARK VINA RESULT:      -8.1      2.551      4.371
REMARK  2 active torsions:
REMARK  status: ('A' for Active; 'I' for Inactive)
REMARK    1  A    between atoms: C_3  and  C_4 
REMARK    2  A    between atoms: C_19  and  O_20 
ROOT
HETATM    1  C   UNL     1      42.258 -17.321   4.613  1.00  0.00     0.137 C 
HETATM    2  N   UNL     1      43.359 -17.767   5.503  1.00  0.00    -0.278 NA
HETATM    3  C   UNL     1      43.750 -19.119   5.442  1.00  0.00     0.036 A 
HETATM    4  C   UNL     1      44.350 -19.687   4.295  1.00  0.00     0.053 A 
HETATM    5  N   UNL     1      44.524 -18.979   3.080  1.00  0.00    -0.356 N 
HETATM    6  C   UNL     1      43.543 -18.175   2.540  1.00  0.00     0.041 A 
HETATM    7  C   UNL     1      42.556 -17.519   3.170  1.00  0.00     0.056 A 
HETATM    8  C   UNL     1      41.658 -17.012   2.118  1.00  0.00     0.251 A 
HETATM    9  O   UNL     1      40.562 -16.511   2.276  1.00  0.00    -0.268 OA
HETATM   10  N   UNL     1      42.246 -17.273   0.908  1.00  0.00    -0.351 N 
HETATM   11  C   UNL     1      43.452 -18.015   1.046  1.00  0.00     0.180 A 
HETATM   12  C   UNL     1      43.614 -19.908   6.599  1.00  0.00     0.026 A 
HETATM   13  C   UNL     1      44.042 -21.236   6.626  1.00  0.00     0.002 A 
HETATM   14  C   UNL     1      44.635 -21.793   5.501  1.00  0.00     0.002 A 
HETATM   15  C   UNL     1      44.794 -21.023   4.348  1.00  0.00     0.031 A 
HETATM   16  H   UNL     1      43.100 -17.528   6.460  1.00  0.00     0.128 HD
HETATM   17  H   UNL     1      45.064 -19.495   2.393  1.00  0.00     0.166 HD
HETATM   18  H   UNL     1      41.781 -17.045   0.040  1.00  0.00     0.163 HD
ENDROOT
BRANCH   1  19
HETATM   19  C   UNL     1      42.050 -15.846   4.955  1.00  0.00    -0.002 A 
HETATM   20  C   UNL     1      43.023 -14.899   4.588  1.00  0.00     0.012 A 
HETATM   21  C   UNL     1      42.874 -13.552   4.930  1.00  0.00     0.001 A 
HETATM   22  C   UNL     1      41.756 -13.131   5.648  1.00  0.00     0.003 A 
HETATM   23  C   UNL     1      40.780 -14.053   6.016  1.00  0.00     0.037 A 
HETATM   24  C   UNL     1      40.924 -15.391   5.663  1.00  0.00     0.073 A 
BRANCH  24  25
HETATM   25  O   UNL     1      39.905 -16.236   6.019  1.00  0.00    -0.360 OA
HETATM   26  H   UNL     1      39.352 -15.765   6.682  1.00  0.00     0.217 HD
ENDBRANCH  24  25
ENDBRANCH   1  19
TORSDOF 2
ENDMDL
MODEL 5
REMARK VINA RESULT:      -7.9      3.092      4.248
REMARK  2 active torsions:
REMARK  status: ('A' for Active; 'I' for Inactive)
REMARK    1  A    between atoms: C_3  and  C_4 
REMARK    2  A    between atoms: C_19  and  O_20 
ROOT
HETATM    1  C   UNL     1      42.771 -15.328   4.938  1.00  0.00     0.137 C 
HETATM    2  N   UNL     1      42.075 -15.924   3.770  1.00  0.00    -0.278 NA
HETATM    3  C   UNL     1      42.704 -16.992   3.100  1.00  0.00     0.036 A 
HETATM    4  C   UNL     1      42.917 -18.251   3.707  1.00  0.00     0.053 A 
HETATM    5  N   UNL     1      42.606 -18.521   5.064  1.00  0.00    -0.356 N 
HETATM    6  C   UNL     1      42.899 -17.641   6.084  1.00  0.00     0.041 A 
HETATM    7  C   UNL     1      43.023 -16.306   6.029  1.00  0.00     0.056 A 
HETATM    8  C   UNL     1      43.572 -15.888   7.331  1.00  0.00     0.251 A 
HETATM    9  O   UNL     1      43.986 -14.783   7.625  1.00  0.00    -0.268 OA
HETATM   10  N   UNL     1      43.606 -16.990   8.143  1.00  0.00    -0.351 N 
HETATM   11  C   UNL     1      43.205 -18.172   7.458  1.00  0.00     0.180 A 
HETATM   12  C   UNL     1      43.055 -16.821   1.749  1.00  0.00     0.026 A 
HETATM   13  C   UNL     1      43.622 -17.860   1.010  1.00  0.00     0.002 A 
HETATM   14  C   UNL     1      43.828 -19.097   1.604  1.00  0.00     0.002 A 
HETATM   15  C   UNL     1      43.472 -19.293   2.940  1.00  0.00     0.031 A 
HETATM   16  H   UNL     1      41.880 -15.172   3.109  1.00  0.00     0.128 HD
HETATM   17  H   UNL     1      42.722 -19.498   5.311  1.00  0.00     0.166 HD
HETATM   18  H   UNL     1      43.988 -16.942   9.076  1.00  0.00     0.163 HD
ENDROOT
BRANCH   1  19
HETATM   19  C   UNL     1      41.864 -14.186   5.394  1.00  0.00    -0.002 A 
HETATM   20  C   UNL     1      42.368 -12.874   5.459  1.00  0.00     0.012 A 
HETATM   21  C   UNL     1      41.569 -11.823   5.917  1.00  0.00     0.001 A 
HETATM   22  C   UNL     1      40.257 -12.065   6.321  1.00  0.00     0.003 A 
HETATM   23  C   UNL     1      39.738 -13.356   6.259  1.00  0.00     0.037 A 
HETATM   24  C   UNL     1      40.532 -14.399   5.791  1.00  0.00     0.073 A 
BRANCH  24  25
HETATM   25  O   UNL     1      39.945 -15.635   5.716  1.00  0.00    -0.360 OA
HETATM   26  H   UNL     1      39.886 -15.988   6.632  1.00  0.00     0.217 HD
ENDBRANCH  24  25
ENDBRANCH   1  19
TORSDOF 2
ENDMDL
MODEL 6
REMARK VINA RESULT:      -7.7      2.097      3.798
REMARK  2 active torsions:
REMARK  status: ('A' for Active; 'I' for Inactive)
REMARK    1  A    between atoms: C_3  and  C_4 
REMARK    2  A    between atoms: C_19  and  O_20 
ROOT
HETATM    1  C   UNL     1      41.549 -15.983   3.989  1.00  0.00     0.137 C 
HETATM    2  N   UNL     1      42.922 -16.376   4.392  1.00  0.00    -0.278 NA
HETATM    3  C   UNL     1      43.417 -17.613   3.934  1.00  0.00     0.036 A 
HETATM    4  C   UNL     1      43.666 -17.874   2.567  1.00  0.00     0.053 A 
HETATM    5  N   UNL     1      43.353 -16.956   1.533  1.00  0.00    -0.356 N 
HETATM    6  C   UNL     1      42.168 -16.253   1.494  1.00  0.00     0.041 A 
HETATM    7  C   UNL     1      41.377 -15.887   2.516  1.00  0.00     0.056 A 
HETATM    8  C   UNL     1      40.134 -15.375   1.913  1.00  0.00     0.251 A 
HETATM    9  O   UNL     1      39.103 -15.101   2.495  1.00  0.00    -0.268 OA
HETATM   10  N   UNL     1      40.317 -15.329   0.556  1.00  0.00    -0.351 N 
HETATM   11  C   UNL     1      41.575 -15.868   0.166  1.00  0.00     0.180 A 
HETATM   12  C   UNL     1      43.754 -18.592   4.886  1.00  0.00     0.026 A 
HETATM   13  C   UNL     1      44.310 -19.814   4.503  1.00  0.00     0.002 A 
HETATM   14  C   UNL     1      44.558 -20.069   3.161  1.00  0.00     0.002 A 
HETATM   15  C   UNL     1      44.245 -19.104   2.202  1.00  0.00     0.031 A 
HETATM   16  H   UNL     1      42.967 -16.344   5.411  1.00  0.00     0.128 HD
HETATM   17  H   UNL     1      43.691 -17.253   0.623  1.00  0.00     0.166 HD
HETATM   18  H   UNL     1      39.571 -15.045  -0.063  1.00  0.00     0.163 HD
ENDROOT
BRANCH   1  19
HETATM   19  C   UNL     1      41.305 -14.641   4.680  1.00  0.00    -0.002 A 
HETATM   20  C   UNL     1      40.266 -14.515   5.619  1.00  0.00     0.012 A 
HETATM   21  C   UNL     1      39.999 -13.286   6.228  1.00  0.00     0.001 A 
HETATM   22  C   UNL     1      40.759 -12.164   5.905  1.00  0.00     0.003 A 
HETATM   23  C   UNL     1      41.796 -12.270   4.981  1.00  0.00     0.037 A 
HETATM   24  C   UNL     1      42.069 -13.497   4.385  1.00  0.00     0.073 A 
BRANCH  24  25
HETATM   25  O   UNL     1      43.129 -13.540   3.519  1.00  0.00    -0.360 OA
HETATM   26  H   UNL     1      42.873 -13.033   2.716  1.00  0.00     0.217 HD
ENDBRANCH  24  25
ENDBRANCH   1  19
TORSDOF 2
ENDMDL
MODEL 7
REMARK VINA RESULT:      -7.7      2.455      6.346
REMARK  2 active torsions:
REMARK  status: ('A' for Active; 'I' for Inactive)
REMARK    1  A    between atoms: C_3  and  C_4 
REMARK    2  A    between atoms: C_19  and  O_20 
ROOT
HETATM    1  C   UNL     1      41.718 -15.124   3.822  1.00  0.00     0.137 C 
HETATM    2  N   UNL     1      40.398 -14.553   4.190  1.00  0.00    -0.278 NA
HETATM    3  C   UNL     1      39.619 -13.979   3.166  1.00  0.00     0.036 A 
HETATM    4  C   UNL     1      39.075 -14.740   2.106  1.00  0.00     0.053 A 
HETATM    5  N   UNL     1      39.342 -16.120   1.926  1.00  0.00    -0.356 N 
HETATM    6  C   UNL     1      40.602 -16.660   2.068  1.00  0.00     0.041 A 
HETATM    7  C   UNL     1      41.622 -16.219   2.821  1.00  0.00     0.056 A 
HETATM    8  C   UNL     1      42.799 -17.014   2.429  1.00  0.00     0.251 A 
HETATM    9  O   UNL     1      43.953 -16.813   2.754  1.00  0.00    -0.268 OA
HETATM   10  N   UNL     1      42.374 -17.989   1.565  1.00  0.00    -0.351 N 
HETATM   11  C   UNL     1      40.991 -17.864   1.254  1.00  0.00     0.180 A 
HETATM   12  C   UNL     1      39.302 -12.611   3.254  1.00  0.00     0.026 A 
HETATM   13  C   UNL     1      38.482 -11.995   2.308  1.00  0.00     0.002 A 
HETATM   14  C   UNL     1      37.944 -12.743   1.269  1.00  0.00     0.002 A 
HETATM   15  C   UNL     1      38.233 -14.105   1.173  1.00  0.00     0.031 A 
HETATM   16  H   UNL     1      40.552 -13.867   4.929  1.00  0.00     0.128 HD
HETATM   17  H   UNL     1      38.792 -16.537   1.181  1.00  0.00     0.166 HD
HETATM   18  H   UNL     1      43.028 -18.629   1.136  1.00  0.00     0.163 HD
ENDROOT
BRANCH   1  19
HETATM   19  C   UNL     1      42.316 -15.611   5.142  1.00  0.00    -0.002 A 
HETATM   20  C   UNL     1      43.546 -15.094   5.586  1.00  0.00     0.012 A 
HETATM   21  C   UNL     1      44.132 -15.558   6.767  1.00  0.00     0.001 A 
HETATM   22  C   UNL     1      43.502 -16.548   7.520  1.00  0.00     0.003 A 
HETATM   23  C   UNL     1      42.281 -17.069   7.099  1.00  0.00     0.037 A 
HETATM   24  C   UNL     1      41.693 -16.596   5.929  1.00  0.00     0.073 A 
BRANCH  24  25
HETATM   25  O   UNL     1      40.472 -17.121   5.597  1.00  0.00    -0.360 OA
HETATM   26  H   UNL     1      40.620 -18.050   5.312  1.00  0.00     0.217 HD
ENDBRANCH  24  25
ENDBRANCH   1  19
TORSDOF 2
ENDMDL
MODEL 8
REMARK VINA RESULT:      -7.5      1.602      1.747
REMARK  2 active torsions:
REMARK  status: ('A' for Active; 'I' for Inactive)
REMARK    1  A    between atoms: C_3  and  C_4 
REMARK    2  A    between atoms: C_19  and  O_20 
ROOT
HETATM    1  C   UNL     1      41.122 -15.280   1.943  1.00  0.00     0.137 C 
HETATM    2  N   UNL     1      41.096 -16.749   1.734  1.00  0.00    -0.278 NA
HETATM    3  C   UNL     1      42.010 -17.536   2.463  1.00  0.00     0.036 A 
HETATM    4  C   UNL     1      41.954 -17.662   3.870  1.00  0.00     0.053 A 
HETATM    5  N   UNL     1      41.040 -16.939   4.677  1.00  0.00    -0.356 N 
HETATM    6  C   UNL     1      40.773 -15.601   4.483  1.00  0.00     0.041 A 
HETATM    7  C   UNL     1      40.856 -14.885   3.351  1.00  0.00     0.056 A 
HETATM    8  C   UNL     1      40.695 -13.473   3.741  1.00  0.00     0.251 A 
HETATM    9  O   UNL     1      40.874 -12.499   3.036  1.00  0.00    -0.268 OA
HETATM   10  N   UNL     1      40.377 -13.443   5.073  1.00  0.00    -0.351 N 
HETATM   11  C   UNL     1      40.400 -14.739   5.660  1.00  0.00     0.180 A 
HETATM   12  C   UNL     1      42.960 -18.290   1.750  1.00  0.00     0.026 A 
HETATM   13  C   UNL     1      43.852 -19.139   2.406  1.00  0.00     0.002 A 
HETATM   14  C   UNL     1      43.795 -19.266   3.788  1.00  0.00     0.002 A 
HETATM   15  C   UNL     1      42.849 -18.538   4.512  1.00  0.00     0.031 A 
HETATM   16  H   UNL     1      41.213 -16.923   0.736  1.00  0.00     0.128 HD
HETATM   17  H   UNL     1      41.060 -17.223   5.651  1.00  0.00     0.166 HD
HETATM   18  H   UNL     1      40.261 -12.567   5.564  1.00  0.00     0.163 HD
ENDROOT
BRANCH   1  19
HETATM   19  C   UNL     1      40.063 -14.730   0.987  1.00  0.00    -0.002 A 
HETATM   20  C   UNL     1      38.742 -14.548   1.434  1.00  0.00     0.012 A 
HETATM   21  C   UNL     1      37.750 -14.088   0.564  1.00  0.00     0.001 A 
HETATM   22  C   UNL     1      38.059 -13.809  -0.766  1.00  0.00     0.003 A 
HETATM   23  C   UNL     1      39.362 -13.978  -1.227  1.00  0.00     0.037 A 
HETATM   24  C   UNL     1      40.351 -14.424  -0.355  1.00  0.00     0.073 A 
BRANCH  24  25
HETATM   25  O   UNL     1      41.620 -14.526  -0.863  1.00  0.00    -0.360 OA
HETATM   26  H   UNL     1      42.147 -15.061  -0.228  1.00  0.00     0.217 HD
ENDBRANCH  24  25
ENDBRANCH   1  19
TORSDOF 2
ENDMDL
MODEL 9
REMARK VINA RESULT:      -7.4      2.736      5.659
REMARK  2 active torsions:
REMARK  status: ('A' for Active; 'I' for Inactive)
REMARK    1  A    between atoms: C_3  and  C_4 
REMARK    2  A    between atoms: C_19  and  O_20 
ROOT
HETATM    1  C   UNL     1      42.030 -16.685   3.945  1.00  0.00     0.137 C 
HETATM    2  N   UNL     1      42.720 -16.179   2.732  1.00  0.00    -0.278 NA
HETATM    3  C   UNL     1      41.929 -15.640   1.698  1.00  0.00     0.036 A 
HETATM    4  C   UNL     1      41.177 -14.453   1.855  1.00  0.00     0.053 A 
HETATM    5  N   UNL     1      41.078 -13.755   3.085  1.00  0.00    -0.356 N 
HETATM    6  C   UNL     1      40.884 -14.395   4.290  1.00  0.00     0.041 A 
HETATM    7  C   UNL     1      41.234 -15.642   4.642  1.00  0.00     0.056 A 
HETATM    8  C   UNL     1      40.589 -15.901   5.942  1.00  0.00     0.251 A 
HETATM    9  O   UNL     1      40.519 -16.969   6.519  1.00  0.00    -0.268 OA
HETATM   10  N   UNL     1      40.011 -14.732   6.360  1.00  0.00    -0.351 N 
HETATM   11  C   UNL     1      40.128 -13.698   5.389  1.00  0.00     0.180 A 
HETATM   12  C   UNL     1      41.958 -16.265   0.439  1.00  0.00     0.026 A 
HETATM   13  C   UNL     1      41.248 -15.745  -0.645  1.00  0.00     0.002 A 
HETATM   14  C   UNL     1      40.513 -14.577  -0.492  1.00  0.00     0.002 A 
HETATM   15  C   UNL     1      40.484 -13.933   0.745  1.00  0.00     0.031 A 
HETATM   16  H   UNL     1      43.296 -16.936   2.364  1.00  0.00     0.128 HD
HETATM   17  H   UNL     1      40.589 -12.869   3.001  1.00  0.00     0.166 HD
HETATM   18  H   UNL     1      39.475 -14.690   7.216  1.00  0.00     0.163 HD
ENDROOT
BRANCH   1  19
HETATM   19  C   UNL     1      43.148 -17.236   4.830  1.00  0.00    -0.002 A 
HETATM   20  C   UNL     1      43.630 -16.470   5.907  1.00  0.00     0.012 A 
HETATM   21  C   UNL     1      44.681 -16.935   6.701  1.00  0.00     0.001 A 
HETATM   22  C   UNL     1      45.271 -18.169   6.430  1.00  0.00     0.003 A 
HETATM   23  C   UNL     1      44.805 -18.944   5.372  1.00  0.00     0.037 A 
HETATM   24  C   UNL     1      43.749 -18.484   4.590  1.00  0.00     0.073 A 
BRANCH  24  25
HETATM   25  O   UNL     1      43.311 -19.316   3.593  1.00  0.00    -0.360 OA
HETATM   26  H   UNL     1      42.329 -19.333   3.636  1.00  0.00     0.217 HD
ENDBRANCH  24  25
ENDBRANCH   1  19
TORSDOF 2
ENDMDL
MODEL 10
REMARK VINA RESULT:      -7.2      1.926      2.136
REMARK  2 active torsions:
REMARK  status: ('A' for Active; 'I' for Inactive)
REMARK    1  A    between atoms: C_3  and  C_4 
REMARK    2  A    between atoms: C_19  and  O_20 
ROOT
HETATM    1  C   UNL     1      41.645 -14.770   2.515  1.00  0.00     0.137 C 
HETATM    2  N   UNL     1      41.589 -16.066   1.794  1.00  0.00    -0.278 NA
HETATM    3  C   UNL     1      42.390 -17.122   2.271  1.00  0.00     0.036 A 
HETATM    4  C   UNL     1      42.179 -17.730   3.530  1.00  0.00     0.053 A 
HETATM    5  N   UNL     1      41.210 -17.274   4.458  1.00  0.00    -0.356 N 
HETATM    6  C   UNL     1      41.013 -15.937   4.733  1.00  0.00     0.041 A 
HETATM    7  C   UNL     1      41.243 -14.877   3.942  1.00  0.00     0.056 A 
HETATM    8  C   UNL     1      41.092 -13.685   4.795  1.00  0.00     0.251 A 
HETATM    9  O   UNL     1      41.380 -12.540   4.503  1.00  0.00    -0.268 OA
HETATM   10  N   UNL     1      40.634 -14.102   6.017  1.00  0.00    -0.351 N 
HETATM   11  C   UNL     1      40.547 -15.520   6.102  1.00  0.00     0.180 A 
HETATM   12  C   UNL     1      43.384 -17.643   1.423  1.00  0.00     0.026 A 
HETATM   13  C   UNL     1      44.169 -18.730   1.809  1.00  0.00     0.002 A 
HETATM   14  C   UNL     1      43.959 -19.330   3.043  1.00  0.00     0.002 A 
HETATM   15  C   UNL     1      42.968 -18.838   3.893  1.00  0.00     0.031 A 
HETATM   16  H   UNL     1      41.806 -15.886   0.814  1.00  0.00     0.128 HD
HETATM   17  H   UNL     1      41.115 -17.883   5.265  1.00  0.00     0.166 HD
HETATM   18  H   UNL     1      40.497 -13.449   6.775  1.00  0.00     0.163 HD
ENDROOT
BRANCH   1  19
HETATM   19  C   UNL     1      40.715 -13.844   1.730  1.00  0.00    -0.002 A 
HETATM   20  C   UNL     1      39.417 -14.272   1.399  1.00  0.00     0.012 A 
HETATM   21  C   UNL     1      38.567 -13.459   0.644  1.00  0.00     0.001 A 
HETATM   22  C   UNL     1      39.002 -12.211   0.201  1.00  0.00     0.003 A 
HETATM   23  C   UNL     1      40.283 -11.768   0.522  1.00  0.00     0.037 A 
HETATM   24  C   UNL     1      41.123 -12.574   1.285  1.00  0.00     0.073 A 
BRANCH  24  25
HETATM   25  O   UNL     1      42.353 -12.059   1.601  1.00  0.00    -0.360 OA
HETATM   26  H   UNL     1      42.411 -11.167   1.190  1.00  0.00     0.217 HD
ENDBRANCH  24  25
ENDBRANCH   1  19
TORSDOF 2
ENDMDL
