MODEL 1
REMARK VINA RESULT:      -9.1      0.000      0.000
REMARK  4 active torsions:
REMARK  status: ('A' for Active; 'I' for Inactive)
REMARK    1  A    between atoms: C_6  and  C_7 
REMARK    2  A    between atoms: C_7  and  N_8 
REMARK       I    between atoms: N_8  and  C_9 
REMARK    3  A    between atoms: C_9  and  C_10 
REMARK    4  A    between atoms: C_14  and  C_15 
ROOT
HETATM    1  N   UNL     1      42.059 -12.748   6.604  1.00  0.00    -0.349 N 
HETATM    2  C   UNL     1      42.342 -13.191   5.342  1.00  0.00     0.270 C 
HETATM    3  O   UNL     1      42.347 -12.437   4.372  1.00  0.00    -0.266 OA
HETATM    4  H   UNL     1      42.021 -13.376   7.398  1.00  0.00     0.163 HD
ENDROOT
BRANCH   2   5
HETATM    5  C   UNL     1      42.624 -14.594   5.222  1.00  0.00     0.120 A 
HETATM    6  N   UNL     1      42.616 -15.418   6.311  1.00  0.00    -0.272 N 
HETATM    7  H   UNL     1      42.420 -15.152   7.272  1.00  0.00     0.189 HD
HETATM    8  N   UNL     1      42.911 -16.697   6.039  1.00  0.00    -0.174 NA
HETATM    9  C   UNL     1      43.102 -16.726   4.710  1.00  0.00     0.089 A 
HETATM   10  C   UNL     1      42.936 -15.422   4.161  1.00  0.00     0.071 A 
BRANCH   9  11
HETATM   11  C   UNL     1      43.435 -17.974   4.014  1.00  0.00    -0.006 A 
HETATM   12  C   UNL     1      44.277 -18.932   4.600  1.00  0.00     0.015 A 
HETATM   13  C   UNL     1      44.589 -20.117   3.923  1.00  0.00     0.024 A 
HETATM   14  C   UNL     1      44.063 -20.352   2.655  1.00  0.00     0.034 A 
HETATM   15 CL   UNL     1      44.449 -21.809   1.826  1.00  0.00    -0.084 Cl
HETATM   16  C   UNL     1      43.227 -19.415   2.057  1.00  0.00     0.024 A 
HETATM   17  C   UNL     1      42.918 -18.230   2.733  1.00  0.00     0.015 A 
ENDBRANCH   9  11
ENDBRANCH   2   5
BRANCH   1  18
HETATM   18  C   UNL     1      41.740 -11.367   6.857  1.00  0.00     0.201 C 
BRANCH  18  19
HETATM   19  C   UNL     1      42.104 -11.041   8.263  1.00  0.00     0.123 A 
HETATM   20  N   UNL     1      43.305 -10.755   8.732  1.00  0.00    -0.232 NA
HETATM   21  C   UNL     1      43.133 -10.539  10.078  1.00  0.00     0.085 A 
HETATM   22  C   UNL     1      41.800 -10.694  10.440  1.00  0.00     0.062 A 
HETATM   23  C   UNL     1      44.075 -10.208  11.064  1.00  0.00     0.034 A 
HETATM   24  C   UNL     1      41.335 -10.534  11.747  1.00  0.00     0.032 A 
HETATM   25  N   UNL     1      41.166 -11.011   9.267  1.00  0.00    -0.341 N 
HETATM   26  C   UNL     1      42.289 -10.204  12.717  1.00  0.00     0.002 A 
HETATM   27  C   UNL     1      43.636 -10.044  12.384  1.00  0.00     0.002 A 
HETATM   28  H   UNL     1      40.178 -11.194   9.162  1.00  0.00     0.167 HD
ENDBRANCH  18  19
ENDBRANCH   1  18
TORSDOF 4
ENDMDL
MODEL 2
REMARK VINA RESULT:      -8.3      6.920      8.809
REMARK  4 active torsions:
REMARK  status: ('A' for Active; 'I' for Inactive)
REMARK    1  A    between atoms: C_6  and  C_7 
REMARK    2  A    between atoms: C_7  and  N_8 
REMARK       I    between atoms: N_8  and  C_9 
REMARK    3  A    between atoms: C_9  and  C_10 
REMARK    4  A    between atoms: C_14  and  C_15 
ROOT
HETATM    1  N   UNL     1      41.803 -14.797  -1.991  1.00  0.00    -0.349 N 
HETATM    2  C   UNL     1      40.808 -14.958  -1.068  1.00  0.00     0.270 C 
HETATM    3  O   UNL     1      39.721 -14.394  -1.176  1.00  0.00    -0.266 OA
HETATM    4  H   UNL     1      42.710 -15.235  -1.883  1.00  0.00     0.163 HD
ENDROOT
BRANCH   2   5
HETATM    5  C   UNL     1      41.116 -15.821   0.038  1.00  0.00     0.120 A 
HETATM    6  N   UNL     1      40.231 -16.011   1.061  1.00  0.00    -0.272 N 
HETATM    7  H   UNL     1      39.310 -15.592   1.152  1.00  0.00     0.189 HD
HETATM    8  N   UNL     1      40.668 -16.833   2.024  1.00  0.00    -0.174 NA
HETATM    9  C   UNL     1      41.885 -17.223   1.612  1.00  0.00     0.089 A 
HETATM   10  C   UNL     1      42.205 -16.602   0.370  1.00  0.00     0.071 A 
BRANCH   9  11
HETATM   11  C   UNL     1      42.697 -18.155   2.403  1.00  0.00    -0.006 A 
HETATM   12  C   UNL     1      42.809 -18.022   3.795  1.00  0.00     0.015 A 
HETATM   13  C   UNL     1      43.590 -18.916   4.537  1.00  0.00     0.024 A 
HETATM   14  C   UNL     1      44.264 -19.951   3.891  1.00  0.00     0.034 A 
HETATM   15 CL   UNL     1      45.223 -21.048   4.805  1.00  0.00    -0.084 Cl
HETATM   16  C   UNL     1      44.166 -20.099   2.512  1.00  0.00     0.024 A 
HETATM   17  C   UNL     1      43.389 -19.203   1.772  1.00  0.00     0.015 A 
ENDBRANCH   9  11
ENDBRANCH   2   5
BRANCH   1  18
HETATM   18  C   UNL     1      41.629 -13.943  -3.137  1.00  0.00     0.201 C 
BRANCH  18  19
HETATM   19  C   UNL     1      42.104 -12.575  -2.793  1.00  0.00     0.123 A 
HETATM   20  N   UNL     1      42.906 -12.234  -1.799  1.00  0.00    -0.232 NA
HETATM   21  C   UNL     1      43.040 -10.869  -1.888  1.00  0.00     0.085 A 
HETATM   22  C   UNL     1      42.309 -10.366  -2.957  1.00  0.00     0.062 A 
HETATM   23  C   UNL     1      43.773  -9.984  -1.083  1.00  0.00     0.034 A 
HETATM   24  C   UNL     1      42.261  -9.009  -3.285  1.00  0.00     0.032 A 
HETATM   25  N   UNL     1      41.724 -11.472  -3.518  1.00  0.00    -0.341 N 
HETATM   26  C   UNL     1      42.998  -8.141  -2.471  1.00  0.00     0.002 A 
HETATM   27  C   UNL     1      43.741  -8.617  -1.388  1.00  0.00     0.002 A 
HETATM   28  H   UNL     1      41.115 -11.472  -4.324  1.00  0.00     0.167 HD
ENDBRANCH  18  19
ENDBRANCH   1  18
TORSDOF 4
ENDMDL
MODEL 3
REMARK VINA RESULT:      -8.3      7.275      8.845
REMARK  4 active torsions:
REMARK  status: ('A' for Active; 'I' for Inactive)
REMARK    1  A    between atoms: C_6  and  C_7 
REMARK    2  A    between atoms: C_7  and  N_8 
REMARK       I    between atoms: N_8  and  C_9 
REMARK    3  A    between atoms: C_9  and  C_10 
REMARK    4  A    between atoms: C_14  and  C_15 
ROOT
HETATM    1  N   UNL     1      40.438 -15.234  -0.344  1.00  0.00    -0.349 N 
HETATM    2  C   UNL     1      40.672 -15.445   0.986  1.00  0.00     0.270 C 
HETATM    3  O   UNL     1      40.086 -14.811   1.860  1.00  0.00    -0.266 OA
HETATM    4  H   UNL     1      40.946 -15.732  -1.064  1.00  0.00     0.163 HD
ENDROOT
BRANCH   2   5
HETATM    5  C   UNL     1      41.653 -16.448   1.295  1.00  0.00     0.120 A 
HETATM    6  N   UNL     1      42.757 -16.631   0.513  1.00  0.00    -0.272 N 
HETATM    7  H   UNL     1      42.999 -16.110  -0.326  1.00  0.00     0.189 HD
HETATM    8  N   UNL     1      43.570 -17.612   0.925  1.00  0.00    -0.174 NA
HETATM    9  C   UNL     1      42.992 -18.086   2.041  1.00  0.00     0.089 A 
HETATM   10  C   UNL     1      41.781 -17.384   2.303  1.00  0.00     0.071 A 
BRANCH   9  11
HETATM   11  C   UNL     1      43.598 -19.180   2.809  1.00  0.00    -0.006 A 
HETATM   12  C   UNL     1      43.987 -19.003   4.146  1.00  0.00     0.015 A 
HETATM   13  C   UNL     1      44.566 -20.054   4.866  1.00  0.00     0.024 A 
HETATM   14  C   UNL     1      44.761 -21.291   4.254  1.00  0.00     0.034 A 
HETATM   15 CL   UNL     1      45.474 -22.581   5.141  1.00  0.00    -0.084 Cl
HETATM   16  C   UNL     1      44.383 -21.486   2.930  1.00  0.00     0.024 A 
HETATM   17  C   UNL     1      43.807 -20.434   2.211  1.00  0.00     0.015 A 
ENDBRANCH   9  11
ENDBRANCH   2   5
BRANCH   1  18
HETATM   18  C   UNL     1      39.493 -14.243  -0.789  1.00  0.00     0.201 C 
BRANCH  18  19
HETATM   19  C   UNL     1      40.221 -13.195  -1.555  1.00  0.00     0.123 A 
HETATM   20  N   UNL     1      40.149 -12.958  -2.853  1.00  0.00    -0.232 NA
HETATM   21  C   UNL     1      41.007 -11.910  -3.084  1.00  0.00     0.085 A 
HETATM   22  C   UNL     1      41.613 -11.495  -1.904  1.00  0.00     0.062 A 
HETATM   23  C   UNL     1      41.323 -11.255  -4.283  1.00  0.00     0.034 A 
HETATM   24  C   UNL     1      42.533 -10.446  -1.841  1.00  0.00     0.032 A 
HETATM   25  N   UNL     1      41.096 -12.328  -0.946  1.00  0.00    -0.341 N 
HETATM   26  C   UNL     1      42.838  -9.804  -3.047  1.00  0.00     0.002 A 
HETATM   27  C   UNL     1      42.245 -10.200  -4.249  1.00  0.00     0.002 A 
HETATM   28  H   UNL     1      41.323 -12.307   0.038  1.00  0.00     0.167 HD
ENDBRANCH  18  19
ENDBRANCH   1  18
TORSDOF 4
ENDMDL
MODEL 4
REMARK VINA RESULT:      -8.3      5.379      9.200
REMARK  4 active torsions:
REMARK  status: ('A' for Active; 'I' for Inactive)
REMARK    1  A    between atoms: C_6  and  C_7 
REMARK    2  A    between atoms: C_7  and  N_8 
REMARK       I    between atoms: N_8  and  C_9 
REMARK    3  A    between atoms: C_9  and  C_10 
REMARK    4  A    between atoms: C_14  and  C_15 
ROOT
HETATM    1  N   UNL     1      43.384 -16.557   5.703  1.00  0.00    -0.349 N 
HETATM    2  C   UNL     1      42.109 -16.499   6.193  1.00  0.00     0.270 C 
HETATM    3  O   UNL     1      41.748 -17.176   7.153  1.00  0.00    -0.266 OA
HETATM    4  H   UNL     1      43.671 -16.025   4.890  1.00  0.00     0.163 HD
ENDROOT
BRANCH   2   5
HETATM    5  C   UNL     1      41.218 -15.603   5.510  1.00  0.00     0.120 A 
HETATM    6  N   UNL     1      40.492 -14.666   6.188  1.00  0.00    -0.272 N 
HETATM    7  H   UNL     1      40.499 -14.502   7.190  1.00  0.00     0.189 HD
HETATM    8  N   UNL     1      39.698 -13.915   5.413  1.00  0.00    -0.174 NA
HETATM    9  C   UNL     1      39.923 -14.358   4.165  1.00  0.00     0.089 A 
HETATM   10  C   UNL     1      40.868 -15.424   4.186  1.00  0.00     0.071 A 
BRANCH   9  11
HETATM   11  C   UNL     1      39.238 -13.767   3.010  1.00  0.00    -0.006 A 
HETATM   12  C   UNL     1      38.876 -12.411   2.993  1.00  0.00     0.015 A 
HETATM   13  C   UNL     1      38.220 -11.861   1.886  1.00  0.00     0.024 A 
HETATM   14  C   UNL     1      37.922 -12.663   0.786  1.00  0.00     0.034 A 
HETATM   15 CL   UNL     1      37.115 -11.985  -0.573  1.00  0.00    -0.084 Cl
HETATM   16  C   UNL     1      38.271 -14.009   0.784  1.00  0.00     0.024 A 
HETATM   17  C   UNL     1      38.923 -14.558   1.893  1.00  0.00     0.015 A 
ENDBRANCH   9  11
ENDBRANCH   2   5
BRANCH   1  18
HETATM   18  C   UNL     1      44.370 -17.430   6.285  1.00  0.00     0.201 C 
BRANCH  18  19
HETATM   19  C   UNL     1      44.417 -18.693   5.498  1.00  0.00     0.123 A 
HETATM   20  N   UNL     1      44.662 -19.909   5.953  1.00  0.00    -0.232 NA
HETATM   21  C   UNL     1      44.607 -20.731   4.853  1.00  0.00     0.085 A 
HETATM   22  C   UNL     1      44.320 -20.004   3.704  1.00  0.00     0.062 A 
HETATM   23  C   UNL     1      44.796 -22.117   4.756  1.00  0.00     0.034 A 
HETATM   24  C   UNL     1      44.204 -20.582   2.437  1.00  0.00     0.032 A 
HETATM   25  N   UNL     1      44.202 -18.710   4.142  1.00  0.00    -0.341 N 
HETATM   26  C   UNL     1      44.395 -21.966   2.360  1.00  0.00     0.002 A 
HETATM   27  C   UNL     1      44.687 -22.723   3.497  1.00  0.00     0.002 A 
HETATM   28  H   UNL     1      43.995 -17.909   3.563  1.00  0.00     0.167 HD
ENDBRANCH  18  19
ENDBRANCH   1  18
TORSDOF 4
ENDMDL
MODEL 5
REMARK VINA RESULT:      -8.2      5.696      8.945
REMARK  4 active torsions:
REMARK  status: ('A' for Active; 'I' for Inactive)
REMARK    1  A    between atoms: C_6  and  C_7 
REMARK    2  A    between atoms: C_7  and  N_8 
REMARK       I    between atoms: N_8  and  C_9 
REMARK    3  A    between atoms: C_9  and  C_10 
REMARK    4  A    between atoms: C_14  and  C_15 
ROOT
HETATM    1  N   UNL     1      41.989 -13.847   1.206  1.00  0.00    -0.349 N 
HETATM    2  C   UNL     1      41.300 -14.390   2.254  1.00  0.00     0.270 C 
HETATM    3  O   UNL     1      40.148 -14.056   2.519  1.00  0.00    -0.266 OA
HETATM    4  H   UNL     1      42.951 -14.097   1.008  1.00  0.00     0.163 HD
ENDROOT
BRANCH   2   5
HETATM    5  C   UNL     1      42.011 -15.368   3.028  1.00  0.00     0.120 A 
HETATM    6  N   UNL     1      42.567 -15.054   4.236  1.00  0.00    -0.272 N 
HETATM    7  H   UNL     1      42.542 -14.150   4.698  1.00  0.00     0.189 HD
HETATM    8  N   UNL     1      43.207 -16.070   4.830  1.00  0.00    -0.174 NA
HETATM    9  C   UNL     1      43.051 -17.108   3.992  1.00  0.00     0.089 A 
HETATM   10  C   UNL     1      42.309 -16.704   2.844  1.00  0.00     0.071 A 
BRANCH   9  11
HETATM   11  C   UNL     1      43.607 -18.430   4.301  1.00  0.00    -0.006 A 
HETATM   12  C   UNL     1      43.665 -18.905   5.621  1.00  0.00     0.015 A 
HETATM   13  C   UNL     1      44.202 -20.167   5.901  1.00  0.00     0.024 A 
HETATM   14  C   UNL     1      44.684 -20.963   4.865  1.00  0.00     0.034 A 
HETATM   15 CL   UNL     1      45.344 -22.514   5.213  1.00  0.00    -0.084 Cl
HETATM   16  C   UNL     1      44.636 -20.510   3.551  1.00  0.00     0.024 A 
HETATM   17  C   UNL     1      44.102 -19.248   3.272  1.00  0.00     0.015 A 
ENDBRANCH   9  11
ENDBRANCH   2   5
BRANCH   1  18
HETATM   18  C   UNL     1      41.397 -12.841   0.362  1.00  0.00     0.201 C 
BRANCH  18  19
HETATM   19  C   UNL     1      40.615 -13.515  -0.710  1.00  0.00     0.123 A 
HETATM   20  N   UNL     1      39.365 -13.270  -1.062  1.00  0.00    -0.232 NA
HETATM   21  C   UNL     1      39.092 -14.148  -2.083  1.00  0.00     0.085 A 
HETATM   22  C   UNL     1      40.196 -14.943  -2.363  1.00  0.00     0.062 A 
HETATM   23  C   UNL     1      37.913 -14.328  -2.823  1.00  0.00     0.034 A 
HETATM   24  C   UNL     1      40.204 -15.926  -3.356  1.00  0.00     0.032 A 
HETATM   25  N   UNL     1      41.153 -14.519  -1.478  1.00  0.00    -0.341 N 
HETATM   26  C   UNL     1      39.020 -16.092  -4.084  1.00  0.00     0.002 A 
HETATM   27  C   UNL     1      37.892 -15.308  -3.823  1.00  0.00     0.002 A 
HETATM   28  H   UNL     1      42.091 -14.887  -1.402  1.00  0.00     0.167 HD
ENDBRANCH  18  19
ENDBRANCH   1  18
TORSDOF 4
ENDMDL
MODEL 6
REMARK VINA RESULT:      -8.2      4.755     10.390
REMARK  4 active torsions:
REMARK  status: ('A' for Active; 'I' for Inactive)
REMARK    1  A    between atoms: C_6  and  C_7 
REMARK    2  A    between atoms: C_7  and  N_8 
REMARK       I    between atoms: N_8  and  C_9 
REMARK    3  A    between atoms: C_9  and  C_10 
REMARK    4  A    between atoms: C_14  and  C_15 
ROOT
HETATM    1  N   UNL     1      44.350 -13.284   7.924  1.00  0.00    -0.349 N 
HETATM    2  C   UNL     1      44.982 -12.353   8.700  1.00  0.00     0.270 C 
HETATM    3  O   UNL     1      46.190 -12.144   8.616  1.00  0.00    -0.266 OA
HETATM    4  H   UNL     1      43.361 -13.479   8.018  1.00  0.00     0.163 HD
ENDROOT
BRANCH   2   5
HETATM    5  C   UNL     1      44.146 -11.640   9.625  1.00  0.00     0.120 A 
HETATM    6  N   UNL     1      42.847 -11.341   9.327  1.00  0.00    -0.272 N 
HETATM    7  H   UNL     1      42.352 -11.574   8.471  1.00  0.00     0.189 HD
HETATM    8  N   UNL     1      42.202 -10.663  10.286  1.00  0.00    -0.174 NA
HETATM    9  C   UNL     1      43.104 -10.526  11.271  1.00  0.00     0.089 A 
HETATM   10  C   UNL     1      44.341 -11.122  10.891  1.00  0.00     0.071 A 
BRANCH   9  11
HETATM   11  C   UNL     1      42.769  -9.838  12.523  1.00  0.00    -0.006 A 
HETATM   12  C   UNL     1      42.653 -10.541  13.732  1.00  0.00     0.015 A 
HETATM   13  C   UNL     1      42.330  -9.872  14.918  1.00  0.00     0.024 A 
HETATM   14  C   UNL     1      42.120  -8.495  14.904  1.00  0.00     0.034 A 
HETATM   15 CL   UNL     1      41.722  -7.675  16.364  1.00  0.00    -0.084 Cl
HETATM   16  C   UNL     1      42.230  -7.780  13.716  1.00  0.00     0.024 A 
HETATM   17  C   UNL     1      42.550  -8.450  12.531  1.00  0.00     0.015 A 
ENDBRANCH   9  11
ENDBRANCH   2   5
BRANCH   1  18
HETATM   18  C   UNL     1      45.078 -14.079   6.969  1.00  0.00     0.201 C 
BRANCH  18  19
HETATM   19  C   UNL     1      44.108 -14.710   6.032  1.00  0.00     0.123 A 
HETATM   20  N   UNL     1      43.536 -15.895   6.152  1.00  0.00    -0.232 NA
HETATM   21  C   UNL     1      42.738 -16.031   5.042  1.00  0.00     0.085 A 
HETATM   22  C   UNL     1      42.821 -14.907   4.229  1.00  0.00     0.062 A 
HETATM   23  C   UNL     1      41.909 -17.095   4.655  1.00  0.00     0.034 A 
HETATM   24  C   UNL     1      42.115 -14.771   3.031  1.00  0.00     0.032 A 
HETATM   25  N   UNL     1      43.698 -14.081   4.882  1.00  0.00    -0.341 N 
HETATM   26  C   UNL     1      41.294 -15.842   2.662  1.00  0.00     0.002 A 
HETATM   27  C   UNL     1      41.191 -16.986   3.458  1.00  0.00     0.002 A 
HETATM   28  H   UNL     1      43.993 -13.167   4.567  1.00  0.00     0.167 HD
ENDBRANCH  18  19
ENDBRANCH   1  18
TORSDOF 4
ENDMDL
MODEL 7
REMARK VINA RESULT:      -8.1      1.015      1.925
REMARK  4 active torsions:
REMARK  status: ('A' for Active; 'I' for Inactive)
REMARK    1  A    between atoms: C_6  and  C_7 
REMARK    2  A    between atoms: C_7  and  N_8 
REMARK       I    between atoms: N_8  and  C_9 
REMARK    3  A    between atoms: C_9  and  C_10 
REMARK    4  A    between atoms: C_14  and  C_15 
ROOT
HETATM    1  N   UNL     1      40.520 -13.015   6.442  1.00  0.00    -0.349 N 
HETATM    2  C   UNL     1      41.516 -13.188   5.522  1.00  0.00     0.270 C 
HETATM    3  O   UNL     1      41.941 -12.259   4.840  1.00  0.00    -0.266 OA
HETATM    4  H   UNL     1      40.146 -13.788   6.980  1.00  0.00     0.163 HD
ENDROOT
BRANCH   2   5
HETATM    5  C   UNL     1      42.027 -14.524   5.399  1.00  0.00     0.120 A 
HETATM    6  N   UNL     1      42.430 -15.237   6.492  1.00  0.00    -0.272 N 
HETATM    7  H   UNL     1      42.414 -14.925   7.459  1.00  0.00     0.189 HD
HETATM    8  N   UNL     1      42.894 -16.463   6.212  1.00  0.00    -0.174 NA
HETATM    9  C   UNL     1      42.773 -16.576   4.880  1.00  0.00     0.089 A 
HETATM   10  C   UNL     1      42.238 -15.375   4.331  1.00  0.00     0.071 A 
BRANCH   9  11
HETATM   11  C   UNL     1      43.170 -17.803   4.179  1.00  0.00    -0.006 A 
HETATM   12  C   UNL     1      42.688 -18.095   2.894  1.00  0.00     0.015 A 
HETATM   13  C   UNL     1      43.073 -19.271   2.238  1.00  0.00     0.024 A 
HETATM   14  C   UNL     1      43.943 -20.162   2.863  1.00  0.00     0.034 A 
HETATM   15 CL   UNL     1      44.414 -21.606   2.055  1.00  0.00    -0.084 Cl
HETATM   16  C   UNL     1      44.432 -19.890   4.136  1.00  0.00     0.024 A 
HETATM   17  C   UNL     1      44.044 -18.717   4.792  1.00  0.00     0.015 A 
ENDBRANCH   9  11
ENDBRANCH   2   5
BRANCH   1  18
HETATM   18  C   UNL     1      39.908 -11.728   6.650  1.00  0.00     0.201 C 
BRANCH  18  19
HETATM   19  C   UNL     1      40.230 -11.261   8.026  1.00  0.00     0.123 A 
HETATM   20  N   UNL     1      39.380 -11.030   9.011  1.00  0.00    -0.232 NA
HETATM   21  C   UNL     1      40.148 -10.609  10.069  1.00  0.00     0.085 A 
HETATM   22  C   UNL     1      41.495 -10.585   9.727  1.00  0.00     0.062 A 
HETATM   23  C   UNL     1      39.764 -10.225  11.363  1.00  0.00     0.034 A 
HETATM   24  C   UNL     1      42.506 -10.197  10.609  1.00  0.00     0.032 A 
HETATM   25  N   UNL     1      41.520 -11.006   8.422  1.00  0.00    -0.341 N 
HETATM   26  C   UNL     1      42.104  -9.817  11.895  1.00  0.00     0.002 A 
HETATM   27  C   UNL     1      40.758  -9.829  12.268  1.00  0.00     0.002 A 
HETATM   28  H   UNL     1      42.348 -11.107   7.852  1.00  0.00     0.167 HD
ENDBRANCH  18  19
ENDBRANCH   1  18
TORSDOF 4
ENDMDL
MODEL 8
REMARK VINA RESULT:      -7.9      6.558      9.623
REMARK  4 active torsions:
REMARK  status: ('A' for Active; 'I' for Inactive)
REMARK    1  A    between atoms: C_6  and  C_7 
REMARK    2  A    between atoms: C_7  and  N_8 
REMARK       I    between atoms: N_8  and  C_9 
REMARK    3  A    between atoms: C_9  and  C_10 
REMARK    4  A    between atoms: C_14  and  C_15 
ROOT
HETATM    1  N   UNL     1      42.013 -14.634  -0.638  1.00  0.00    -0.349 N 
HETATM    2  C   UNL     1      41.755 -14.424   0.687  1.00  0.00     0.270 C 
HETATM    3  O   UNL     1      41.363 -13.339   1.111  1.00  0.00    -0.266 OA
HETATM    4  H   UNL     1      42.368 -15.518  -0.982  1.00  0.00     0.163 HD
ENDROOT
BRANCH   2   5
HETATM    5  C   UNL     1      41.977 -15.548   1.553  1.00  0.00     0.120 A 
HETATM    6  N   UNL     1      41.115 -15.845   2.570  1.00  0.00    -0.272 N 
HETATM    7  H   UNL     1      40.269 -15.339   2.816  1.00  0.00     0.189 HD
HETATM    8  N   UNL     1      41.465 -16.916   3.296  1.00  0.00    -0.174 NA
HETATM    9  C   UNL     1      42.596 -17.360   2.723  1.00  0.00     0.089 A 
HETATM   10  C   UNL     1      42.953 -16.522   1.628  1.00  0.00     0.071 A 
BRANCH   9  11
HETATM   11  C   UNL     1      43.294 -18.546   3.231  1.00  0.00    -0.006 A 
HETATM   12  C   UNL     1      43.726 -19.563   2.365  1.00  0.00     0.015 A 
HETATM   13  C   UNL     1      44.388 -20.691   2.864  1.00  0.00     0.024 A 
HETATM   14  C   UNL     1      44.624 -20.810   4.232  1.00  0.00     0.034 A 
HETATM   15 CL   UNL     1      45.437 -22.198   4.842  1.00  0.00    -0.084 Cl
HETATM   16  C   UNL     1      44.203 -19.814   5.106  1.00  0.00     0.024 A 
HETATM   17  C   UNL     1      43.538 -18.689   4.607  1.00  0.00     0.015 A 
ENDBRANCH   9  11
ENDBRANCH   2   5
BRANCH   1  18
HETATM   18  C   UNL     1      41.849 -13.583  -1.608  1.00  0.00     0.201 C 
BRANCH  18  19
HETATM   19  C   UNL     1      40.519 -13.735  -2.260  1.00  0.00     0.123 A 
HETATM   20  N   UNL     1      39.895 -14.863  -2.548  1.00  0.00    -0.232 NA
HETATM   21  C   UNL     1      38.716 -14.489  -3.147  1.00  0.00     0.085 A 
HETATM   22  C   UNL     1      38.616 -13.105  -3.224  1.00  0.00     0.062 A 
HETATM   23  C   UNL     1      37.675 -15.280  -3.656  1.00  0.00     0.034 A 
HETATM   24  C   UNL     1      37.522 -12.444  -3.787  1.00  0.00     0.032 A 
HETATM   25  N   UNL     1      39.775 -12.649  -2.652  1.00  0.00    -0.341 N 
HETATM   26  C   UNL     1      36.494 -13.249  -4.290  1.00  0.00     0.002 A 
HETATM   27  C   UNL     1      36.566 -14.643  -4.227  1.00  0.00     0.002 A 
HETATM   28  H   UNL     1      40.037 -11.679  -2.542  1.00  0.00     0.167 HD
ENDBRANCH  18  19
ENDBRANCH   1  18
TORSDOF 4
ENDMDL
MODEL 9
REMARK VINA RESULT:      -7.9      6.938      9.620
REMARK  4 active torsions:
REMARK  status: ('A' for Active; 'I' for Inactive)
REMARK    1  A    between atoms: C_6  and  C_7 
REMARK    2  A    between atoms: C_7  and  N_8 
REMARK       I    between atoms: N_8  and  C_9 
REMARK    3  A    between atoms: C_9  and  C_10 
REMARK    4  A    between atoms: C_14  and  C_15 
ROOT
HETATM    1  N   UNL     1      40.574 -14.278   0.134  1.00  0.00    -0.349 N 
HETATM    2  C   UNL     1      41.608 -14.452   1.010  1.00  0.00     0.270 C 
HETATM    3  O   UNL     1      42.259 -13.506   1.448  1.00  0.00    -0.266 OA
HETATM    4  H   UNL     1      40.061 -15.061  -0.253  1.00  0.00     0.163 HD
ENDROOT
BRANCH   2   5
HETATM    5  C   UNL     1      41.890 -15.811   1.381  1.00  0.00     0.120 A 
HETATM    6  N   UNL     1      41.166 -16.852   0.875  1.00  0.00    -0.272 N 
HETATM    7  H   UNL     1      40.393 -16.791   0.219  1.00  0.00     0.189 HD
HETATM    8  N   UNL     1      41.542 -18.057   1.326  1.00  0.00    -0.174 NA
HETATM    9  C   UNL     1      42.573 -17.806   2.148  1.00  0.00     0.089 A 
HETATM   10  C   UNL     1      42.819 -16.404   2.213  1.00  0.00     0.071 A 
BRANCH   9  11
HETATM   11  C   UNL     1      43.280 -18.891   2.839  1.00  0.00    -0.006 A 
HETATM   12  C   UNL     1      43.628 -18.784   4.194  1.00  0.00     0.015 A 
HETATM   13  C   UNL     1      44.305 -19.825   4.841  1.00  0.00     0.024 A 
HETATM   14  C   UNL     1      44.638 -20.981   4.137  1.00  0.00     0.034 A 
HETATM   15 CL   UNL     1      45.470 -22.258   4.934  1.00  0.00    -0.084 Cl
HETATM   16  C   UNL     1      44.301 -21.105   2.793  1.00  0.00     0.024 A 
HETATM   17  C   UNL     1      43.628 -20.063   2.148  1.00  0.00     0.015 A 
ENDBRANCH   9  11
ENDBRANCH   2   5
BRANCH   1  18
HETATM   18  C   UNL     1      40.202 -12.967  -0.332  1.00  0.00     0.201 C 
BRANCH  18  19
HETATM   19  C   UNL     1      39.192 -13.113  -1.416  1.00  0.00     0.123 A 
HETATM   20  N   UNL     1      38.531 -12.146  -2.028  1.00  0.00    -0.232 NA
HETATM   21  C   UNL     1      37.715 -12.777  -2.936  1.00  0.00     0.085 A 
HETATM   22  C   UNL     1      37.881 -14.155  -2.880  1.00  0.00     0.062 A 
HETATM   23  C   UNL     1      36.796 -12.234  -3.847  1.00  0.00     0.034 A 
HETATM   24  C   UNL     1      37.177 -15.048  -3.692  1.00  0.00     0.032 A 
HETATM   25  N   UNL     1      38.827 -14.343  -1.907  1.00  0.00    -0.341 N 
HETATM   26  C   UNL     1      36.264 -14.489  -4.594  1.00  0.00     0.002 A 
HETATM   27  C   UNL     1      36.075 -13.107  -4.672  1.00  0.00     0.002 A 
HETATM   28  H   UNL     1      39.190 -15.236  -1.602  1.00  0.00     0.167 HD
ENDBRANCH  18  19
ENDBRANCH   1  18
TORSDOF 4
ENDMDL
MODEL 10
REMARK VINA RESULT:      -7.8      7.118     10.437
REMARK  4 active torsions:
REMARK  status: ('A' for Active; 'I' for Inactive)
REMARK    1  A    between atoms: C_6  and  C_7 
REMARK    2  A    between atoms: C_7  and  N_8 
REMARK       I    between atoms: N_8  and  C_9 
REMARK    3  A    between atoms: C_9  and  C_10 
REMARK    4  A    between atoms: C_14  and  C_15 
ROOT
HETATM    1  N   UNL     1      41.868 -15.966   1.447  1.00  0.00    -0.349 N 
HETATM    2  C   UNL     1      41.756 -14.734   0.867  1.00  0.00     0.270 C 
HETATM    3  O   UNL     1      42.287 -13.736   1.349  1.00  0.00    -0.266 OA
HETATM    4  H   UNL     1      41.401 -16.782   1.068  1.00  0.00     0.163 HD
ENDROOT
BRANCH   2   5
HETATM    5  C   UNL     1      40.972 -14.678  -0.335  1.00  0.00     0.120 A 
HETATM    6  N   UNL     1      41.375 -15.309  -1.477  1.00  0.00    -0.272 N 
HETATM    7  H   UNL     1      42.220 -15.858  -1.601  1.00  0.00     0.189 HD
HETATM    8  N   UNL     1      40.543 -15.154  -2.517  1.00  0.00    -0.174 NA
HETATM    9  C   UNL     1      39.536 -14.406  -2.038  1.00  0.00     0.089 A 
HETATM   10  C   UNL     1      39.773 -14.081  -0.671  1.00  0.00     0.071 A 
BRANCH   9  11
HETATM   11  C   UNL     1      38.399 -14.025  -2.884  1.00  0.00    -0.006 A 
HETATM   12  C   UNL     1      37.630 -14.992  -3.548  1.00  0.00     0.015 A 
HETATM   13  C   UNL     1      36.550 -14.613  -4.355  1.00  0.00     0.024 A 
HETATM   14  C   UNL     1      36.232 -13.265  -4.502  1.00  0.00     0.034 A 
HETATM   15 CL   UNL     1      34.904 -12.803  -5.494  1.00  0.00    -0.084 Cl
HETATM   16  C   UNL     1      36.983 -12.291  -3.852  1.00  0.00     0.024 A 
HETATM   17  C   UNL     1      38.063 -12.671  -3.049  1.00  0.00     0.015 A 
ENDBRANCH   9  11
ENDBRANCH   2   5
BRANCH   1  18
HETATM   18  C   UNL     1      42.610 -16.154   2.667  1.00  0.00     0.201 C 
BRANCH  18  19
HETATM   19  C   UNL     1      43.076 -17.567   2.731  1.00  0.00     0.123 A 
HETATM   20  N   UNL     1      42.897 -18.510   1.824  1.00  0.00    -0.232 NA
HETATM   21  C   UNL     1      43.495 -19.634   2.339  1.00  0.00     0.085 A 
HETATM   22  C   UNL     1      44.053 -19.374   3.584  1.00  0.00     0.062 A 
HETATM   23  C   UNL     1      43.600 -20.925   1.798  1.00  0.00     0.034 A 
HETATM   24  C   UNL     1      44.726 -20.335   4.342  1.00  0.00     0.032 A 
HETATM   25  N   UNL     1      43.775 -18.051   3.810  1.00  0.00    -0.341 N 
HETATM   26  C   UNL     1      44.821 -21.617   3.787  1.00  0.00     0.002 A 
HETATM   27  C   UNL     1      44.268 -21.909   2.537  1.00  0.00     0.002 A 
HETATM   28  H   UNL     1      44.037 -17.525   4.633  1.00  0.00     0.167 HD
ENDBRANCH  18  19
ENDBRANCH   1  18
TORSDOF 4
ENDMDL
