MODEL 1
REMARK VINA RESULT:      -9.0      0.000      0.000
REMARK  3 active torsions:
REMARK  status: ('A' for Active; 'I' for Inactive)
REMARK    1  A    between atoms: C_2  and  C_3 
REMARK    2  A    between atoms: C_6  and  C_7 
REMARK       I    between atoms: C_7  and  N_8 
REMARK    3  A    between atoms: N_8  and  N_9 
ROOT
HETATM    1  C   UNL     1      43.395 -15.953   4.986  1.00  0.00    -0.021 A 
HETATM    2  C   UNL     1      43.861 -16.447   6.219  1.00  0.00     0.011 A 
HETATM    3  C   UNL     1      44.360 -15.591   7.213  1.00  0.00     0.018 A 
HETATM    4  C   UNL     1      44.404 -14.210   6.998  1.00  0.00     0.033 A 
HETATM    5  C   UNL     1      43.925 -13.707   5.782  1.00  0.00     0.018 A 
HETATM    6  C   UNL     1      43.420 -14.562   4.797  1.00  0.00     0.011 A 
ENDROOT
BRANCH   4   7
HETATM    7  C   UNL     1      44.897 -13.222   8.008  1.00  0.00     0.266 C 
HETATM    8  N   UNL     1      44.027 -12.868   9.036  1.00  0.00    -0.284 N 
HETATM    9  H   UNL     1      43.137 -13.336   9.157  1.00  0.00     0.184 HD
HETATM   10  O   UNL     1      46.037 -12.775   7.888  1.00  0.00    -0.266 OA
BRANCH   8  11
HETATM   11  N   UNL     1      44.382 -11.941  10.048  1.00  0.00    -0.220 NA
HETATM   12  C   UNL     1      43.856 -10.567   9.825  1.00  0.00     0.153 C 
HETATM   13  C   UNL     1      43.426 -10.079  11.171  1.00  0.00    -0.036 A 
HETATM   14  C   UNL     1      43.503 -11.117  12.097  1.00  0.00    -0.036 A 
HETATM   15  C   UNL     1      42.960  -8.826  11.535  1.00  0.00     0.009 A 
HETATM   16  C   UNL     1      44.002 -12.357  11.426  1.00  0.00     0.153 C 
HETATM   17  C   UNL     1      43.111 -10.934  13.411  1.00  0.00     0.009 A 
HETATM   18  C   UNL     1      42.640  -9.676  13.793  1.00  0.00     0.001 A 
HETATM   19  C   UNL     1      42.565  -8.628  12.860  1.00  0.00     0.001 A 
ENDBRANCH   8  11
ENDBRANCH   4   7
BRANCH   1  20
HETATM   20  C   UNL     1      42.802 -16.881   3.929  1.00  0.00     0.139 A 
HETATM   21  C   UNL     1      43.644 -18.143   3.760  1.00  0.00     0.054 C 
HETATM   22  N   UNL     1      42.619 -16.211   2.653  1.00  0.00    -0.321 N 
HETATM   23  C   UNL     1      41.309 -16.164   2.252  1.00  0.00     0.324 A 
HETATM   24  H   UNL     1      43.352 -15.864   2.053  1.00  0.00     0.165 HD
HETATM   25  O   UNL     1      40.923 -15.697   1.197  1.00  0.00    -0.247 OA
HETATM   26  N   UNL     1      40.544 -16.747   3.197  1.00  0.00    -0.277 N 
HETATM   27  C   UNL     1      41.320 -17.270   4.185  1.00  0.00     0.258 A 
HETATM   28  H   UNL     1      39.552 -16.888   3.113  1.00  0.00     0.173 HD
HETATM   29  O   UNL     1      40.887 -17.959   5.099  1.00  0.00    -0.270 OA
ENDBRANCH   1  20
TORSDOF 3
ENDMDL
MODEL 2
REMARK VINA RESULT:      -8.9      1.656      2.360
REMARK  3 active torsions:
REMARK  status: ('A' for Active; 'I' for Inactive)
REMARK    1  A    between atoms: C_2  and  C_3 
REMARK    2  A    between atoms: C_6  and  C_7 
REMARK       I    between atoms: C_7  and  N_8 
REMARK    3  A    between atoms: N_8  and  N_9 
ROOT
HETATM    1  C   UNL     1      43.419 -16.445   4.881  1.00  0.00    -0.021 A 
HETATM    2  C   UNL     1      44.054 -16.743   6.102  1.00  0.00     0.011 A 
HETATM    3  C   UNL     1      44.463 -15.730   6.984  1.00  0.00     0.018 A 
HETATM    4  C   UNL     1      44.245 -14.387   6.665  1.00  0.00     0.033 A 
HETATM    5  C   UNL     1      43.596 -14.082   5.462  1.00  0.00     0.018 A 
HETATM    6  C   UNL     1      43.183 -15.093   4.590  1.00  0.00     0.011 A 
ENDROOT
BRANCH   4   7
HETATM    7  C   UNL     1      44.625 -13.244   7.554  1.00  0.00     0.266 C 
HETATM    8  N   UNL     1      43.593 -12.471   8.082  1.00  0.00    -0.284 N 
HETATM    9  H   UNL     1      42.623 -12.733   7.956  1.00  0.00     0.184 HD
HETATM   10  O   UNL     1      45.818 -13.043   7.778  1.00  0.00    -0.266 OA
BRANCH   8  11
HETATM   11  N   UNL     1      43.832 -11.363   8.934  1.00  0.00    -0.220 NA
HETATM   12  C   UNL     1      42.704 -10.395   9.000  1.00  0.00     0.153 C 
HETATM   13  C   UNL     1      42.617  -9.978  10.433  1.00  0.00    -0.036 A 
HETATM   14  C   UNL     1      43.480 -10.754  11.204  1.00  0.00    -0.036 A 
HETATM   15  C   UNL     1      41.804  -9.019  11.014  1.00  0.00     0.009 A 
HETATM   16  C   UNL     1      44.204 -11.727  10.328  1.00  0.00     0.153 C 
HETATM   17  C   UNL     1      43.551 -10.598  12.577  1.00  0.00     0.009 A 
HETATM   18  C   UNL     1      42.737  -9.633  13.176  1.00  0.00     0.001 A 
HETATM   19  C   UNL     1      41.870  -8.848  12.398  1.00  0.00     0.001 A 
ENDBRANCH   8  11
ENDBRANCH   4   7
BRANCH   1  20
HETATM   20  C   UNL     1      42.926 -17.550   3.950  1.00  0.00     0.139 A 
HETATM   21  C   UNL     1      41.425 -17.435   3.694  1.00  0.00     0.054 C 
HETATM   22  N   UNL     1      43.261 -18.874   4.445  1.00  0.00    -0.321 N 
HETATM   23  C   UNL     1      44.082 -19.574   3.599  1.00  0.00     0.324 A 
HETATM   24  H   UNL     1      42.898 -19.306   5.282  1.00  0.00     0.165 HD
HETATM   25  O   UNL     1      44.453 -20.717   3.782  1.00  0.00    -0.247 OA
HETATM   26  N   UNL     1      44.369 -18.799   2.533  1.00  0.00    -0.277 N 
HETATM   27  C   UNL     1      43.684 -17.625   2.597  1.00  0.00     0.258 A 
HETATM   28  H   UNL     1      44.909 -19.105   1.742  1.00  0.00     0.173 HD
HETATM   29  O   UNL     1      43.668 -16.796   1.697  1.00  0.00    -0.270 OA
ENDBRANCH   1  20
TORSDOF 3
ENDMDL
MODEL 3
REMARK VINA RESULT:      -8.7      3.132      9.785
REMARK  3 active torsions:
REMARK  status: ('A' for Active; 'I' for Inactive)
REMARK    1  A    between atoms: C_2  and  C_3 
REMARK    2  A    between atoms: C_6  and  C_7 
REMARK       I    between atoms: C_7  and  N_8 
REMARK    3  A    between atoms: N_8  and  N_9 
ROOT
HETATM    1  C   UNL     1      42.932  -9.649  11.534  1.00  0.00    -0.021 A 
HETATM    2  C   UNL     1      42.368  -9.824  10.256  1.00  0.00     0.011 A 
HETATM    3  C   UNL     1      42.902 -10.740   9.335  1.00  0.00     0.018 A 
HETATM    4  C   UNL     1      44.020 -11.509   9.674  1.00  0.00     0.033 A 
HETATM    5  C   UNL     1      44.575 -11.356  10.950  1.00  0.00     0.018 A 
HETATM    6  C   UNL     1      44.035 -10.450  11.867  1.00  0.00     0.011 A 
ENDROOT
BRANCH   4   7
HETATM    7  C   UNL     1      44.641 -12.525   8.767  1.00  0.00     0.266 C 
HETATM    8  N   UNL     1      43.843 -13.054   7.755  1.00  0.00    -0.284 N 
HETATM    9  H   UNL     1      42.916 -12.692   7.572  1.00  0.00     0.184 HD
HETATM   10  O   UNL     1      45.815 -12.841   8.953  1.00  0.00    -0.266 OA
BRANCH   8  11
HETATM   11  N   UNL     1      44.322 -14.023   6.837  1.00  0.00    -0.220 NA
HETATM   12  C   UNL     1      44.162 -15.429   7.301  1.00  0.00     0.153 C 
HETATM   13  C   UNL     1      43.747 -16.204   6.092  1.00  0.00    -0.036 A 
HETATM   14  C   UNL     1      43.492 -15.333   5.036  1.00  0.00    -0.036 A 
HETATM   15  C   UNL     1      43.565 -17.571   5.954  1.00  0.00     0.009 A 
HETATM   16  C   UNL     1      43.735 -13.923   5.473  1.00  0.00     0.153 C 
HETATM   17  C   UNL     1      43.044 -15.801   3.813  1.00  0.00     0.009 A 
HETATM   18  C   UNL     1      42.857 -17.177   3.660  1.00  0.00     0.001 A 
HETATM   19  C   UNL     1      43.117 -18.056   4.724  1.00  0.00     0.001 A 
ENDBRANCH   8  11
ENDBRANCH   4   7
BRANCH   1  20
HETATM   20  C   UNL     1      42.316  -8.693  12.551  1.00  0.00     0.139 A 
HETATM   21  C   UNL     1      42.207  -7.276  11.990  1.00  0.00     0.054 C 
HETATM   22  N   UNL     1      43.040  -8.691  13.811  1.00  0.00    -0.321 N 
HETATM   23  C   UNL     1      42.276  -9.103  14.871  1.00  0.00     0.324 A 
HETATM   24  H   UNL     1      43.983  -8.364  13.954  1.00  0.00     0.165 HD
HETATM   25  O   UNL     1      42.655  -9.136  16.027  1.00  0.00    -0.247 OA
HETATM   26  N   UNL     1      41.045  -9.423  14.423  1.00  0.00    -0.277 N 
HETATM   27  C   UNL     1      40.934  -9.148  13.095  1.00  0.00     0.258 A 
HETATM   28  H   UNL     1      40.283  -9.701  15.016  1.00  0.00     0.173 HD
HETATM   29  O   UNL     1      39.886  -9.229  12.468  1.00  0.00    -0.270 OA
ENDBRANCH   1  20
TORSDOF 3
ENDMDL
MODEL 4
REMARK VINA RESULT:      -8.6      7.155      9.431
REMARK  3 active torsions:
REMARK  status: ('A' for Active; 'I' for Inactive)
REMARK    1  A    between atoms: C_2  and  C_3 
REMARK    2  A    between atoms: C_6  and  C_7 
REMARK       I    between atoms: C_7  and  N_8 
REMARK    3  A    between atoms: N_8  and  N_9 
ROOT
HETATM    1  C   UNL     1      39.797 -14.341  -0.525  1.00  0.00    -0.021 A 
HETATM    2  C   UNL     1      39.714 -14.097   0.859  1.00  0.00     0.011 A 
HETATM    3  C   UNL     1      40.659 -14.620   1.756  1.00  0.00     0.018 A 
HETATM    4  C   UNL     1      41.717 -15.404   1.287  1.00  0.00     0.033 A 
HETATM    5  C   UNL     1      41.819 -15.636  -0.090  1.00  0.00     0.018 A 
HETATM    6  C   UNL     1      40.881 -15.107  -0.981  1.00  0.00     0.011 A 
ENDROOT
BRANCH   4   7
HETATM    7  C   UNL     1      42.782 -15.982   2.166  1.00  0.00     0.266 C 
HETATM    8  N   UNL     1      42.911 -17.369   2.190  1.00  0.00    -0.284 N 
HETATM    9  H   UNL     1      42.378 -17.957   1.562  1.00  0.00     0.184 HD
HETATM   10  O   UNL     1      43.491 -15.215   2.816  1.00  0.00    -0.266 OA
BRANCH   8  11
HETATM   11  N   UNL     1      43.882 -18.029   2.984  1.00  0.00    -0.220 NA
HETATM   12  C   UNL     1      43.517 -18.137   4.423  1.00  0.00     0.153 C 
HETATM   13  C   UNL     1      43.954 -19.502   4.846  1.00  0.00    -0.036 A 
HETATM   14  C   UNL     1      44.371 -20.230   3.735  1.00  0.00    -0.036 A 
HETATM   15  C   UNL     1      43.939 -20.069   6.110  1.00  0.00     0.009 A 
HETATM   16  C   UNL     1      44.250 -19.388   2.504  1.00  0.00     0.153 C 
HETATM   17  C   UNL     1      44.780 -21.547   3.853  1.00  0.00     0.009 A 
HETATM   18  C   UNL     1      44.771 -22.131   5.122  1.00  0.00     0.001 A 
HETATM   19  C   UNL     1      44.353 -21.396   6.243  1.00  0.00     0.001 A 
ENDBRANCH   8  11
ENDBRANCH   4   7
BRANCH   1  20
HETATM   20  C   UNL     1      38.799 -13.726  -1.503  1.00  0.00     0.139 A 
HETATM   21  C   UNL     1      37.885 -12.719  -0.808  1.00  0.00     0.054 C 
HETATM   22  N   UNL     1      38.017 -14.736  -2.196  1.00  0.00    -0.321 N 
HETATM   23  C   UNL     1      38.199 -14.721  -3.554  1.00  0.00     0.324 A 
HETATM   24  H   UNL     1      37.343 -15.359  -1.775  1.00  0.00     0.165 HD
HETATM   25  O   UNL     1      37.613 -15.441  -4.340  1.00  0.00    -0.247 OA
HETATM   26  N   UNL     1      39.096 -13.762  -3.861  1.00  0.00    -0.277 N 
HETATM   27  C   UNL     1      39.454 -13.067  -2.748  1.00  0.00     0.258 A 
HETATM   28  H   UNL     1      39.359 -13.515  -4.800  1.00  0.00     0.173 HD
HETATM   29  O   UNL     1      40.158 -12.067  -2.766  1.00  0.00    -0.270 OA
ENDBRANCH   1  20
TORSDOF 3
ENDMDL
MODEL 5
REMARK VINA RESULT:      -8.4      6.529      9.515
REMARK  3 active torsions:
REMARK  status: ('A' for Active; 'I' for Inactive)
REMARK    1  A    between atoms: C_2  and  C_3 
REMARK    2  A    between atoms: C_6  and  C_7 
REMARK       I    between atoms: C_7  and  N_8 
REMARK    3  A    between atoms: N_8  and  N_9 
ROOT
HETATM    1  C   UNL     1      43.705 -18.242   4.535  1.00  0.00    -0.021 A 
HETATM    2  C   UNL     1      43.204 -18.800   3.344  1.00  0.00     0.011 A 
HETATM    3  C   UNL     1      42.451 -18.040   2.435  1.00  0.00     0.018 A 
HETATM    4  C   UNL     1      42.180 -16.694   2.696  1.00  0.00     0.033 A 
HETATM    5  C   UNL     1      42.691 -16.125   3.870  1.00  0.00     0.018 A 
HETATM    6  C   UNL     1      43.448 -16.882   4.768  1.00  0.00     0.011 A 
ENDROOT
BRANCH   4   7
HETATM    7  C   UNL     1      41.408 -15.802   1.775  1.00  0.00     0.266 C 
HETATM    8  N   UNL     1      42.118 -14.822   1.086  1.00  0.00    -0.284 N 
HETATM    9  H   UNL     1      43.129 -14.780   1.126  1.00  0.00     0.184 HD
HETATM   10  O   UNL     1      40.195 -15.976   1.667  1.00  0.00    -0.266 OA
BRANCH   8  11
HETATM   11  N   UNL     1      41.494 -13.919   0.189  1.00  0.00    -0.220 NA
HETATM   12  C   UNL     1      42.070 -12.547   0.209  1.00  0.00     0.153 C 
HETATM   13  C   UNL     1      42.101 -12.104  -1.218  1.00  0.00    -0.036 A 
HETATM   14  C   UNL     1      41.757 -13.167  -2.050  1.00  0.00    -0.036 A 
HETATM   15  C   UNL     1      42.452 -10.870  -1.739  1.00  0.00     0.009 A 
HETATM   16  C   UNL     1      41.463 -14.380  -1.226  1.00  0.00     0.153 C 
HETATM   17  C   UNL     1      41.758 -13.028  -3.427  1.00  0.00     0.009 A 
HETATM   18  C   UNL     1      42.109 -11.788  -3.967  1.00  0.00     0.001 A 
HETATM   19  C   UNL     1      42.453 -10.716  -3.127  1.00  0.00     0.001 A 
ENDBRANCH   8  11
ENDBRANCH   4   7
BRANCH   1  20
HETATM   20  C   UNL     1      44.570 -19.056   5.494  1.00  0.00     0.139 A 
HETATM   21  C   UNL     1      45.679 -18.203   6.106  1.00  0.00     0.054 C 
HETATM   22  N   UNL     1      45.124 -20.241   4.861  1.00  0.00    -0.321 N 
HETATM   23  C   UNL     1      44.710 -21.408   5.448  1.00  0.00     0.324 A 
HETATM   24  H   UNL     1      45.800 -20.254   4.113  1.00  0.00     0.165 HD
HETATM   25  O   UNL     1      45.082 -22.519   5.120  1.00  0.00    -0.247 OA
HETATM   26  N   UNL     1      43.865 -21.112   6.457  1.00  0.00    -0.277 N 
HETATM   27  C   UNL     1      43.771 -19.765   6.623  1.00  0.00     0.258 A 
HETATM   28  H   UNL     1      43.467 -21.795   7.079  1.00  0.00     0.173 HD
HETATM   29  O   UNL     1      43.170 -19.232   7.545  1.00  0.00    -0.270 OA
ENDBRANCH   1  20
TORSDOF 3
ENDMDL
MODEL 6
REMARK VINA RESULT:      -8.2      3.064      4.031
REMARK  3 active torsions:
REMARK  status: ('A' for Active; 'I' for Inactive)
REMARK    1  A    between atoms: C_2  and  C_3 
REMARK    2  A    between atoms: C_6  and  C_7 
REMARK       I    between atoms: C_7  and  N_8 
REMARK    3  A    between atoms: N_8  and  N_9 
ROOT
HETATM    1  C   UNL     1      40.054 -14.117   3.905  1.00  0.00    -0.021 A 
HETATM    2  C   UNL     1      39.437 -12.867   3.709  1.00  0.00     0.011 A 
HETATM    3  C   UNL     1      39.341 -11.923   4.744  1.00  0.00     0.018 A 
HETATM    4  C   UNL     1      39.863 -12.209   6.009  1.00  0.00     0.033 A 
HETATM    5  C   UNL     1      40.496 -13.442   6.208  1.00  0.00     0.018 A 
HETATM    6  C   UNL     1      40.598 -14.375   5.173  1.00  0.00     0.011 A 
ENDROOT
BRANCH   4   7
HETATM    7  C   UNL     1      39.826 -11.256   7.163  1.00  0.00     0.266 C 
HETATM    8  N   UNL     1      40.807 -11.398   8.143  1.00  0.00    -0.284 N 
HETATM    9  H   UNL     1      41.575 -12.048   8.028  1.00  0.00     0.184 HD
HETATM   10  O   UNL     1      38.945 -10.399   7.192  1.00  0.00    -0.266 OA
BRANCH   8  11
HETATM   11  N   UNL     1      40.872 -10.556   9.281  1.00  0.00    -0.220 NA
HETATM   12  C   UNL     1      40.351 -11.179  10.528  1.00  0.00     0.153 C 
HETATM   13  C   UNL     1      41.283 -10.745  11.613  1.00  0.00    -0.036 A 
HETATM   14  C   UNL     1      42.374 -10.079  11.060  1.00  0.00    -0.036 A 
HETATM   15  C   UNL     1      41.192 -10.964  12.978  1.00  0.00     0.009 A 
HETATM   16  C   UNL     1      42.229 -10.018   9.573  1.00  0.00     0.153 C 
HETATM   17  C   UNL     1      43.409  -9.618  11.855  1.00  0.00     0.009 A 
HETATM   18  C   UNL     1      43.331  -9.831  13.233  1.00  0.00     0.001 A 
HETATM   19  C   UNL     1      42.228 -10.500  13.791  1.00  0.00     0.001 A 
ENDBRANCH   8  11
ENDBRANCH   4   7
BRANCH   1  20
HETATM   20  C   UNL     1      40.206 -15.118   2.763  1.00  0.00     0.139 A 
HETATM   21  C   UNL     1      38.994 -15.093   1.835  1.00  0.00     0.054 C 
HETATM   22  N   UNL     1      40.456 -16.465   3.245  1.00  0.00    -0.321 N 
HETATM   23  C   UNL     1      41.662 -16.969   2.835  1.00  0.00     0.324 A 
HETATM   24  H   UNL     1      39.811 -17.038   3.769  1.00  0.00     0.165 HD
HETATM   25  O   UNL     1      42.063 -18.092   3.075  1.00  0.00    -0.247 OA
HETATM   26  N   UNL     1      42.299 -16.032   2.102  1.00  0.00    -0.277 N 
HETATM   27  C   UNL     1      41.506 -14.940   1.931  1.00  0.00     0.258 A 
HETATM   28  H   UNL     1      43.180 -16.179   1.641  1.00  0.00     0.173 HD
HETATM   29  O   UNL     1      41.792 -13.998   1.205  1.00  0.00    -0.270 OA
ENDBRANCH   1  20
TORSDOF 3
ENDMDL
MODEL 7
REMARK VINA RESULT:      -8.0      6.746     10.404
REMARK  3 active torsions:
REMARK  status: ('A' for Active; 'I' for Inactive)
REMARK    1  A    between atoms: C_2  and  C_3 
REMARK    2  A    between atoms: C_6  and  C_7 
REMARK       I    between atoms: C_7  and  N_8 
REMARK    3  A    between atoms: N_8  and  N_9 
ROOT
HETATM    1  C   UNL     1      43.900 -18.314   4.060  1.00  0.00    -0.021 A 
HETATM    2  C   UNL     1      43.400 -17.001   4.157  1.00  0.00     0.011 A 
HETATM    3  C   UNL     1      42.711 -16.396   3.095  1.00  0.00     0.018 A 
HETATM    4  C   UNL     1      42.503 -17.093   1.901  1.00  0.00     0.033 A 
HETATM    5  C   UNL     1      42.980 -18.406   1.802  1.00  0.00     0.018 A 
HETATM    6  C   UNL     1      43.658 -19.009   2.865  1.00  0.00     0.011 A 
ENDROOT
BRANCH   4   7
HETATM    7  C   UNL     1      41.760 -16.537   0.727  1.00  0.00     0.266 C 
HETATM    8  N   UNL     1      42.167 -15.297   0.239  1.00  0.00    -0.284 N 
HETATM    9  H   UNL     1      42.996 -14.838   0.596  1.00  0.00     0.184 HD
HETATM   10  O   UNL     1      40.838 -17.194   0.248  1.00  0.00    -0.266 OA
BRANCH   8  11
HETATM   11  N   UNL     1      41.539 -14.671  -0.867  1.00  0.00    -0.220 NA
HETATM   12  C   UNL     1      41.420 -15.540  -2.069  1.00  0.00     0.153 C 
HETATM   13  C   UNL     1      40.069 -15.251  -2.641  1.00  0.00    -0.036 A 
HETATM   14  C   UNL     1      39.354 -14.430  -1.772  1.00  0.00    -0.036 A 
HETATM   15  C   UNL     1      39.503 -15.718  -3.815  1.00  0.00     0.009 A 
HETATM   16  C   UNL     1      40.191 -14.111  -0.574  1.00  0.00     0.153 C 
HETATM   17  C   UNL     1      38.051 -14.056  -2.049  1.00  0.00     0.009 A 
HETATM   18  C   UNL     1      37.468 -14.518  -3.231  1.00  0.00     0.001 A 
HETATM   19  C   UNL     1      38.190 -15.343  -4.109  1.00  0.00     0.001 A 
ENDBRANCH   8  11
ENDBRANCH   4   7
BRANCH   1  20
HETATM   20  C   UNL     1      44.601 -18.988   5.237  1.00  0.00     0.139 A 
HETATM   21  C   UNL     1      45.590 -18.042   5.914  1.00  0.00     0.054 C 
HETATM   22  N   UNL     1      45.257 -20.224   4.848  1.00  0.00    -0.321 N 
HETATM   23  C   UNL     1      44.760 -21.325   5.496  1.00  0.00     0.324 A 
HETATM   24  H   UNL     1      46.047 -20.308   4.226  1.00  0.00     0.165 HD
HETATM   25  O   UNL     1      45.187 -22.457   5.367  1.00  0.00    -0.247 OA
HETATM   26  N   UNL     1      43.760 -20.935   6.311  1.00  0.00    -0.277 N 
HETATM   27  C   UNL     1      43.632 -19.580   6.298  1.00  0.00     0.258 A 
HETATM   28  H   UNL     1      43.269 -21.549   6.937  1.00  0.00     0.173 HD
HETATM   29  O   UNL     1      42.885 -18.958   7.040  1.00  0.00    -0.270 OA
ENDBRANCH   1  20
TORSDOF 3
ENDMDL
MODEL 8
REMARK VINA RESULT:      -7.9      7.159     10.091
REMARK  3 active torsions:
REMARK  status: ('A' for Active; 'I' for Inactive)
REMARK    1  A    between atoms: C_2  and  C_3 
REMARK    2  A    between atoms: C_6  and  C_7 
REMARK       I    between atoms: C_7  and  N_8 
REMARK    3  A    between atoms: N_8  and  N_9 
ROOT
HETATM    1  C   UNL     1      42.197 -11.695  -0.988  1.00  0.00    -0.021 A 
HETATM    2  C   UNL     1      42.205 -11.580   0.415  1.00  0.00     0.011 A 
HETATM    3  C   UNL     1      41.961 -12.686   1.245  1.00  0.00     0.018 A 
HETATM    4  C   UNL     1      41.702 -13.942   0.688  1.00  0.00     0.033 A 
HETATM    5  C   UNL     1      41.712 -14.070  -0.706  1.00  0.00     0.018 A 
HETATM    6  C   UNL     1      41.964 -12.969  -1.529  1.00  0.00     0.011 A 
ENDROOT
BRANCH   4   7
HETATM    7  C   UNL     1      41.455 -15.179   1.494  1.00  0.00     0.266 C 
HETATM    8  N   UNL     1      42.519 -16.065   1.652  1.00  0.00    -0.284 N 
HETATM    9  H   UNL     1      43.449 -15.834   1.325  1.00  0.00     0.184 HD
HETATM   10  O   UNL     1      40.338 -15.353   1.978  1.00  0.00    -0.266 OA
BRANCH   8  11
HETATM   11  N   UNL     1      42.403 -17.268   2.392  1.00  0.00    -0.220 NA
HETATM   12  C   UNL     1      42.721 -18.494   1.610  1.00  0.00     0.153 C 
HETATM   13  C   UNL     1      43.489 -19.376   2.542  1.00  0.00    -0.036 A 
HETATM   14  C   UNL     1      43.778 -18.684   3.716  1.00  0.00    -0.036 A 
HETATM   15  C   UNL     1      43.934 -20.672   2.345  1.00  0.00     0.009 A 
HETATM   16  C   UNL     1      43.209 -17.303   3.642  1.00  0.00     0.153 C 
HETATM   17  C   UNL     1      44.526 -19.266   4.724  1.00  0.00     0.009 A 
HETATM   18  C   UNL     1      44.981 -20.574   4.540  1.00  0.00     0.001 A 
HETATM   19  C   UNL     1      44.686 -21.273   3.357  1.00  0.00     0.001 A 
ENDBRANCH   8  11
ENDBRANCH   4   7
BRANCH   1  20
HETATM   20  C   UNL     1      42.517 -10.503  -1.886  1.00  0.00     0.139 A 
HETATM   21  C   UNL     1      42.358 -10.859  -3.363  1.00  0.00     0.054 C 
HETATM   22  N   UNL     1      43.841  -9.963  -1.629  1.00  0.00    -0.321 N 
HETATM   23  C   UNL     1      43.818  -8.662  -1.198  1.00  0.00     0.324 A 
HETATM   24  H   UNL     1      44.718 -10.431  -1.801  1.00  0.00     0.165 HD
HETATM   25  O   UNL     1      44.805  -7.990  -0.968  1.00  0.00    -0.247 OA
HETATM   26  N   UNL     1      42.535  -8.256  -1.112  1.00  0.00    -0.277 N 
HETATM   27  C   UNL     1      41.694  -9.226  -1.563  1.00  0.00     0.258 A 
HETATM   28  H   UNL     1      42.254  -7.321  -0.871  1.00  0.00     0.173 HD
HETATM   29  O   UNL     1      40.490  -9.071  -1.709  1.00  0.00    -0.270 OA
ENDBRANCH   1  20
TORSDOF 3
ENDMDL
MODEL 9
REMARK VINA RESULT:      -7.7      3.871      9.710
REMARK  3 active torsions:
REMARK  status: ('A' for Active; 'I' for Inactive)
REMARK    1  A    between atoms: C_2  and  C_3 
REMARK    2  A    between atoms: C_6  and  C_7 
REMARK       I    between atoms: C_7  and  N_8 
REMARK    3  A    between atoms: N_8  and  N_9 
ROOT
HETATM    1  C   UNL     1      40.810 -10.730   9.078  1.00  0.00    -0.021 A 
HETATM    2  C   UNL     1      39.659 -11.319   8.522  1.00  0.00     0.011 A 
HETATM    3  C   UNL     1      39.646 -11.810   7.206  1.00  0.00     0.018 A 
HETATM    4  C   UNL     1      40.792 -11.723   6.411  1.00  0.00     0.033 A 
HETATM    5  C   UNL     1      41.948 -11.157   6.963  1.00  0.00     0.018 A 
HETATM    6  C   UNL     1      41.960 -10.677   8.275  1.00  0.00     0.011 A 
ENDROOT
BRANCH   4   7
HETATM    7  C   UNL     1      40.878 -12.240   5.009  1.00  0.00     0.266 C 
HETATM    8  N   UNL     1      41.644 -13.383   4.792  1.00  0.00    -0.284 N 
HETATM    9  H   UNL     1      42.040 -13.905   5.564  1.00  0.00     0.184 HD
HETATM   10  O   UNL     1      40.272 -11.641   4.122  1.00  0.00    -0.266 OA
BRANCH   8  11
HETATM   11  N   UNL     1      41.799 -13.963   3.508  1.00  0.00    -0.220 NA
HETATM   12  C   UNL     1      43.165 -14.491   3.241  1.00  0.00     0.153 C 
HETATM   13  C   UNL     1      42.961 -15.774   2.502  1.00  0.00    -0.036 A 
HETATM   14  C   UNL     1      41.606 -16.098   2.482  1.00  0.00    -0.036 A 
HETATM   15  C   UNL     1      43.906 -16.611   1.932  1.00  0.00     0.009 A 
HETATM   16  C   UNL     1      40.823 -15.043   3.197  1.00  0.00     0.153 C 
HETATM   17  C   UNL     1      41.158 -17.270   1.897  1.00  0.00     0.009 A 
HETATM   18  C   UNL     1      42.101 -18.123   1.318  1.00  0.00     0.001 A 
HETATM   19  C   UNL     1      43.467 -17.794   1.335  1.00  0.00     0.001 A 
ENDBRANCH   8  11
ENDBRANCH   4   7
BRANCH   1  20
HETATM   20  C   UNL     1      40.837 -10.248  10.526  1.00  0.00     0.139 A 
HETATM   21  C   UNL     1      41.845  -9.118  10.719  1.00  0.00     0.054 C 
HETATM   22  N   UNL     1      41.095 -11.331  11.460  1.00  0.00    -0.321 N 
HETATM   23  C   UNL     1      40.070 -11.535  12.345  1.00  0.00     0.324 A 
HETATM   24  H   UNL     1      41.952 -11.859  11.535  1.00  0.00     0.165 HD
HETATM   25  O   UNL     1      40.083 -12.353  13.246  1.00  0.00    -0.247 OA
HETATM   26  N   UNL     1      39.078 -10.664  12.071  1.00  0.00    -0.277 N 
HETATM   27  C   UNL     1      39.451  -9.813  11.077  1.00  0.00     0.258 A 
HETATM   28  H   UNL     1      38.237 -10.575  12.615  1.00  0.00     0.173 HD
HETATM   29  O   UNL     1      38.787  -8.849  10.720  1.00  0.00    -0.270 OA
ENDBRANCH   1  20
TORSDOF 3
ENDMDL
MODEL 10
REMARK VINA RESULT:      -7.6      6.764      9.021
REMARK  3 active torsions:
REMARK  status: ('A' for Active; 'I' for Inactive)
REMARK    1  A    between atoms: C_2  and  C_3 
REMARK    2  A    between atoms: C_6  and  C_7 
REMARK       I    between atoms: C_7  and  N_8 
REMARK    3  A    between atoms: N_8  and  N_9 
ROOT
HETATM    1  C   UNL     1      43.748 -18.387   4.305  1.00  0.00    -0.021 A 
HETATM    2  C   UNL     1      42.806 -17.407   4.669  1.00  0.00     0.011 A 
HETATM    3  C   UNL     1      42.006 -16.763   3.711  1.00  0.00     0.018 A 
HETATM    4  C   UNL     1      42.130 -17.088   2.357  1.00  0.00     0.033 A 
HETATM    5  C   UNL     1      43.051 -18.076   1.987  1.00  0.00     0.018 A 
HETATM    6  C   UNL     1      43.839 -18.721   2.945  1.00  0.00     0.011 A 
ENDROOT
BRANCH   4   7
HETATM    7  C   UNL     1      41.305 -16.471   1.271  1.00  0.00     0.266 C 
HETATM    8  N   UNL     1      40.439 -15.440   1.630  1.00  0.00    -0.284 N 
HETATM    9  H   UNL     1      40.443 -15.052   2.565  1.00  0.00     0.184 HD
HETATM   10  O   UNL     1      41.430 -16.895   0.123  1.00  0.00    -0.266 OA
BRANCH   8  11
HETATM   11  N   UNL     1      39.608 -14.783   0.688  1.00  0.00    -0.220 NA
HETATM   12  C   UNL     1      38.294 -14.350   1.237  1.00  0.00     0.153 C 
HETATM   13  C   UNL     1      38.035 -13.004   0.642  1.00  0.00    -0.036 A 
HETATM   14  C   UNL     1      39.161 -12.569  -0.052  1.00  0.00    -0.036 A 
HETATM   15  C   UNL     1      36.906 -12.208   0.746  1.00  0.00     0.009 A 
HETATM   16  C   UNL     1      40.236 -13.606   0.028  1.00  0.00     0.153 C 
HETATM   17  C   UNL     1      39.194 -11.324  -0.657  1.00  0.00     0.009 A 
HETATM   18  C   UNL     1      38.062 -10.512  -0.560  1.00  0.00     0.001 A 
HETATM   19  C   UNL     1      36.925 -10.952   0.137  1.00  0.00     0.001 A 
ENDBRANCH   8  11
ENDBRANCH   4   7
BRANCH   1  20
HETATM   20  C   UNL     1      44.577 -19.124   5.354  1.00  0.00     0.139 A 
HETATM   21  C   UNL     1      45.601 -18.198   6.007  1.00  0.00     0.054 C 
HETATM   22  N   UNL     1      45.226 -20.304   4.810  1.00  0.00    -0.321 N 
HETATM   23  C   UNL     1      44.823 -21.467   5.414  1.00  0.00     0.324 A 
HETATM   24  H   UNL     1      45.954 -20.314   4.112  1.00  0.00     0.165 HD
HETATM   25  O   UNL     1      45.265 -22.571   5.157  1.00  0.00    -0.247 OA
HETATM   26  N   UNL     1      43.896 -21.174   6.348  1.00  0.00    -0.277 N 
HETATM   27  C   UNL     1      43.731 -19.827   6.452  1.00  0.00     0.258 A 
HETATM   28  H   UNL     1      43.484 -21.850   6.967  1.00  0.00     0.173 HD
HETATM   29  O   UNL     1      43.042 -19.289   7.307  1.00  0.00    -0.270 OA
ENDBRANCH   1  20
TORSDOF 3
ENDMDL
