MODEL 1
REMARK VINA RESULT:      -7.3      0.000      0.000
REMARK  4 active torsions:
REMARK  status: ('A' for Active; 'I' for Inactive)
REMARK    1  A    between atoms: O_2  and  C_3 
REMARK    2  A    between atoms: C_4  and  C_5 
REMARK    3  A    between atoms: C_9  and  N_10 
REMARK    4  A    between atoms: C_13  and  C_14 
ROOT
HETATM    1  C   UNL     1      42.739 -15.580   3.458  1.00  0.00     0.167 C 
HETATM    2  N   UNL     1      41.547 -15.703   2.621  1.00  0.00    -0.074 N 
HETATM    3  C   UNL     1      41.509 -16.349   1.413  1.00  0.00     0.736 A 
HETATM    4  N   UNL     1      40.292 -16.290   0.940  1.00  0.00     0.131 NA
HETATM    5  C   UNL     1      39.634 -15.544   1.872  1.00  0.00     0.753 A 
HETATM    6  N   UNL     1      40.353 -15.162   2.925  1.00  0.00     0.037 NA
HETATM    7  N   UNL     1      42.607 -16.917   0.880  1.00  0.00    -0.214 N 
HETATM    8  C   UNL     1      43.851 -17.013   1.632  1.00  0.00     0.135 C 
HETATM    9  C   UNL     1      43.983 -15.785   2.562  1.00  0.00     0.063 C 
HETATM   10  H   UNL     1      42.510 -17.498   0.054  1.00  0.00     0.178 HD
ENDROOT
BRANCH   1  11
HETATM   11  C   UNL     1      42.717 -16.467   4.708  1.00  0.00     0.001 A 
HETATM   12  C   UNL     1      43.471 -16.094   5.843  1.00  0.00     0.076 A 
HETATM   13  C   UNL     1      43.474 -16.905   6.987  1.00  0.00     0.037 A 
HETATM   14  C   UNL     1      42.740 -18.090   7.016  1.00  0.00     0.003 A 
HETATM   15  C   UNL     1      41.987 -18.466   5.911  1.00  0.00     0.001 A 
HETATM   16  C   UNL     1      41.971 -17.661   4.772  1.00  0.00     0.012 A 
BRANCH  12  17
HETATM   17  O   UNL     1      44.154 -14.907   5.751  1.00  0.00    -0.355 OA
HETATM   18  C   UNL     1      44.692 -14.375   6.956  1.00  0.00     0.210 C 
ENDBRANCH  12  17
ENDBRANCH   1  11
BRANCH   8  19
HETATM   19  C   UNL     1      44.030 -18.356   2.330  1.00  0.00    -0.035 A 
HETATM   20  C   UNL     1      44.780 -18.514   3.508  1.00  0.00     0.010 A 
HETATM   21  C   UNL     1      44.946 -19.771   4.096  1.00  0.00     0.019 A 
HETATM   22  C   UNL     1      44.352 -20.890   3.518  1.00  0.00     0.011 A 
HETATM   23 BR   UNL     1      44.597 -22.593   4.298  1.00  0.00    -0.051 Br
HETATM   24  C   UNL     1      43.582 -20.759   2.367  1.00  0.00     0.019 A 
HETATM   25  C   UNL     1      43.415 -19.500   1.784  1.00  0.00     0.010 A 
ENDBRANCH   8  19
BRANCH   5  26
HETATM   26  N   UNL     1      38.343 -15.287   1.684  1.00  0.00    -0.229 N 
HETATM   27  H   UNL     1      38.103 -14.726   0.878  1.00  0.00     0.174 HD
HETATM   28  H   UNL     1      37.694 -16.031   1.900  1.00  0.00     0.174 HD
ENDBRANCH   5  26
TORSDOF 4
ENDMDL
MODEL 2
REMARK VINA RESULT:      -7.0      2.002      2.807
REMARK  4 active torsions:
REMARK  status: ('A' for Active; 'I' for Inactive)
REMARK    1  A    between atoms: O_2  and  C_3 
REMARK    2  A    between atoms: C_4  and  C_5 
REMARK    3  A    between atoms: C_9  and  N_10 
REMARK    4  A    between atoms: C_13  and  C_14 
ROOT
HETATM    1  C   UNL     1      42.972 -14.264   4.902  1.00  0.00     0.167 C 
HETATM    2  N   UNL     1      41.551 -13.929   4.831  1.00  0.00    -0.074 N 
HETATM    3  C   UNL     1      40.824 -13.871   3.671  1.00  0.00     0.736 A 
HETATM    4  N   UNL     1      39.587 -13.564   3.962  1.00  0.00     0.131 NA
HETATM    5  C   UNL     1      39.623 -13.385   5.313  1.00  0.00     0.753 A 
HETATM    6  N   UNL     1      40.800 -13.601   5.897  1.00  0.00     0.037 NA
HETATM    7  N   UNL     1      41.387 -14.104   2.471  1.00  0.00    -0.214 N 
HETATM    8  C   UNL     1      42.758 -14.586   2.358  1.00  0.00     0.135 C 
HETATM    9  C   UNL     1      43.602 -14.003   3.514  1.00  0.00     0.063 C 
HETATM   10  H   UNL     1      40.791 -14.184   1.653  1.00  0.00     0.178 HD
ENDROOT
BRANCH   1  11
HETATM   11  C   UNL     1      43.255 -15.663   5.463  1.00  0.00     0.001 A 
HETATM   12  C   UNL     1      44.397 -15.876   6.267  1.00  0.00     0.076 A 
HETATM   13  C   UNL     1      44.677 -17.153   6.771  1.00  0.00     0.037 A 
HETATM   14  C   UNL     1      43.838 -18.228   6.481  1.00  0.00     0.003 A 
HETATM   15  C   UNL     1      42.707 -18.033   5.699  1.00  0.00     0.001 A 
HETATM   16  C   UNL     1      42.415 -16.763   5.200  1.00  0.00     0.012 A 
BRANCH  12  17
HETATM   17  O   UNL     1      45.168 -14.770   6.526  1.00  0.00    -0.355 OA
HETATM   18  C   UNL     1      44.756 -13.933   7.601  1.00  0.00     0.210 C 
ENDBRANCH  12  17
ENDBRANCH   1  11
BRANCH   8  19
HETATM   19  C   UNL     1      42.852 -16.100   2.208  1.00  0.00    -0.035 A 
HETATM   20  C   UNL     1      41.727 -16.923   2.035  1.00  0.00     0.010 A 
HETATM   21  C   UNL     1      41.856 -18.312   1.934  1.00  0.00     0.019 A 
HETATM   22  C   UNL     1      43.118 -18.896   1.996  1.00  0.00     0.011 A 
HETATM   23 BR   UNL     1      43.291 -20.774   1.886  1.00  0.00    -0.051 Br
HETATM   24  C   UNL     1      44.252 -18.103   2.139  1.00  0.00     0.019 A 
HETATM   25  C   UNL     1      44.119 -16.715   2.235  1.00  0.00     0.010 A 
ENDBRANCH   8  19
BRANCH   5  26
HETATM   26  N   UNL     1      38.499 -13.051   5.940  1.00  0.00    -0.229 N 
HETATM   27  H   UNL     1      38.475 -13.199   6.940  1.00  0.00     0.174 HD
HETATM   28  H   UNL     1      38.025 -12.220   5.615  1.00  0.00     0.174 HD
ENDBRANCH   5  26
TORSDOF 4
ENDMDL
MODEL 3
REMARK VINA RESULT:      -6.7      1.585      2.159
REMARK  4 active torsions:
REMARK  status: ('A' for Active; 'I' for Inactive)
REMARK    1  A    between atoms: O_2  and  C_3 
REMARK    2  A    between atoms: C_4  and  C_5 
REMARK    3  A    between atoms: C_9  and  N_10 
REMARK    4  A    between atoms: C_13  and  C_14 
ROOT
HETATM    1  C   UNL     1      41.381 -14.246   3.316  1.00  0.00     0.167 C 
HETATM    2  N   UNL     1      40.332 -14.320   2.301  1.00  0.00    -0.074 N 
HETATM    3  C   UNL     1      40.548 -14.632   0.984  1.00  0.00     0.736 A 
HETATM    4  N   UNL     1      39.400 -14.628   0.356  1.00  0.00     0.131 NA
HETATM    5  C   UNL     1      38.519 -14.249   1.324  1.00  0.00     0.753 A 
HETATM    6  N   UNL     1      39.035 -14.051   2.535  1.00  0.00     0.037 NA
HETATM    7  N   UNL     1      41.782 -14.880   0.508  1.00  0.00    -0.214 N 
HETATM    8  C   UNL     1      42.930 -14.986   1.399  1.00  0.00     0.135 C 
HETATM    9  C   UNL     1      42.735 -14.034   2.600  1.00  0.00     0.063 C 
HETATM   10  H   UNL     1      41.884 -15.237  -0.436  1.00  0.00     0.178 HD
ENDROOT
BRANCH   1  11
HETATM   11  C   UNL     1      41.374 -15.418   4.304  1.00  0.00     0.001 A 
HETATM   12  C   UNL     1      41.950 -15.256   5.585  1.00  0.00     0.076 A 
HETATM   13  C   UNL     1      41.966 -16.326   6.491  1.00  0.00     0.037 A 
HETATM   14  C   UNL     1      41.422 -17.560   6.140  1.00  0.00     0.003 A 
HETATM   15  C   UNL     1      40.846 -17.732   4.888  1.00  0.00     0.001 A 
HETATM   16  C   UNL     1      40.816 -16.671   3.982  1.00  0.00     0.012 A 
BRANCH  12  17
HETATM   17  O   UNL     1      42.450 -14.010   5.869  1.00  0.00    -0.355 OA
HETATM   18  C   UNL     1      43.820 -13.933   6.244  1.00  0.00     0.210 C 
ENDBRANCH  12  17
ENDBRANCH   1  11
BRANCH   8  19
HETATM   19  C   UNL     1      43.263 -16.424   1.781  1.00  0.00    -0.035 A 
HETATM   20  C   UNL     1      42.898 -17.529   0.992  1.00  0.00     0.010 A 
HETATM   21  C   UNL     1      43.194 -18.834   1.397  1.00  0.00     0.019 A 
HETATM   22  C   UNL     1      43.871 -19.052   2.594  1.00  0.00     0.011 A 
HETATM   23 BR   UNL     1      44.249 -20.816   3.153  1.00  0.00    -0.051 Br
HETATM   24  C   UNL     1      44.268 -17.975   3.380  1.00  0.00     0.019 A 
HETATM   25  C   UNL     1      43.973 -16.672   2.971  1.00  0.00     0.010 A 
ENDBRANCH   8  19
BRANCH   5  26
HETATM   26  N   UNL     1      37.233 -14.140   1.005  1.00  0.00    -0.229 N 
HETATM   27  H   UNL     1      36.596 -14.780   1.462  1.00  0.00     0.174 HD
HETATM   28  H   UNL     1      36.876 -13.206   0.860  1.00  0.00     0.174 HD
ENDBRANCH   5  26
TORSDOF 4
ENDMDL
MODEL 4
REMARK VINA RESULT:      -6.6      3.316      5.574
REMARK  4 active torsions:
REMARK  status: ('A' for Active; 'I' for Inactive)
REMARK    1  A    between atoms: O_2  and  C_3 
REMARK    2  A    between atoms: C_4  and  C_5 
REMARK    3  A    between atoms: C_9  and  N_10 
REMARK    4  A    between atoms: C_13  and  C_14 
ROOT
HETATM    1  C   UNL     1      39.864 -13.483   3.828  1.00  0.00     0.167 C 
HETATM    2  N   UNL     1      40.550 -12.302   4.350  1.00  0.00    -0.074 N 
HETATM    3  C   UNL     1      40.998 -12.170   5.639  1.00  0.00     0.736 A 
HETATM    4  N   UNL     1      41.578 -11.006   5.768  1.00  0.00     0.131 NA
HETATM    5  C   UNL     1      41.405 -10.436   4.541  1.00  0.00     0.753 A 
HETATM    6  N   UNL     1      40.786 -11.188   3.633  1.00  0.00     0.037 NA
HETATM    7  N   UNL     1      40.816 -13.140   6.554  1.00  0.00    -0.214 N 
HETATM    8  C   UNL     1      40.276 -14.441   6.181  1.00  0.00     0.135 C 
HETATM    9  C   UNL     1      39.269 -14.265   5.022  1.00  0.00     0.063 C 
HETATM   10  H   UNL     1      41.278 -13.062   7.454  1.00  0.00     0.178 HD
ENDROOT
BRANCH   1  11
HETATM   11  C   UNL     1      40.724 -14.336   2.889  1.00  0.00     0.001 A 
HETATM   12  C   UNL     1      40.099 -15.196   1.957  1.00  0.00     0.076 A 
HETATM   13  C   UNL     1      40.873 -15.995   1.105  1.00  0.00     0.037 A 
HETATM   14  C   UNL     1      42.266 -15.958   1.170  1.00  0.00     0.003 A 
HETATM   15  C   UNL     1      42.894 -15.113   2.075  1.00  0.00     0.001 A 
HETATM   16  C   UNL     1      42.132 -14.307   2.921  1.00  0.00     0.012 A 
BRANCH  12  17
HETATM   17  O   UNL     1      38.727 -15.167   1.935  1.00  0.00    -0.355 OA
HETATM   18  C   UNL     1      38.113 -14.327   0.964  1.00  0.00     0.210 C 
ENDBRANCH  12  17
ENDBRANCH   1  11
BRANCH   8  19
HETATM   19  C   UNL     1      41.355 -15.488   5.926  1.00  0.00    -0.035 A 
HETATM   20  C   UNL     1      42.718 -15.260   6.179  1.00  0.00     0.010 A 
HETATM   21  C   UNL     1      43.678 -16.237   5.900  1.00  0.00     0.019 A 
HETATM   22  C   UNL     1      43.285 -17.463   5.372  1.00  0.00     0.011 A 
HETATM   23 BR   UNL     1      44.584 -18.774   4.970  1.00  0.00    -0.051 Br
HETATM   24  C   UNL     1      41.939 -17.727   5.137  1.00  0.00     0.019 A 
HETATM   25  C   UNL     1      40.982 -16.749   5.421  1.00  0.00     0.010 A 
ENDBRANCH   8  19
BRANCH   5  26
HETATM   26  N   UNL     1      41.888  -9.216   4.333  1.00  0.00    -0.229 N 
HETATM   27  H   UNL     1      42.020  -8.633   5.149  1.00  0.00     0.174 HD
HETATM   28  H   UNL     1      42.594  -9.120   3.616  1.00  0.00     0.174 HD
ENDBRANCH   5  26
TORSDOF 4
ENDMDL
MODEL 5
REMARK VINA RESULT:      -6.6      2.968      5.060
REMARK  4 active torsions:
REMARK  status: ('A' for Active; 'I' for Inactive)
REMARK    1  A    between atoms: O_2  and  C_3 
REMARK    2  A    between atoms: C_4  and  C_5 
REMARK    3  A    between atoms: C_9  and  N_10 
REMARK    4  A    between atoms: C_13  and  C_14 
ROOT
HETATM    1  C   UNL     1      41.920 -15.121   5.579  1.00  0.00     0.167 C 
HETATM    2  N   UNL     1      43.060 -14.729   6.405  1.00  0.00    -0.074 N 
HETATM    3  C   UNL     1      43.696 -15.556   7.294  1.00  0.00     0.736 A 
HETATM    4  N   UNL     1      44.680 -14.900   7.851  1.00  0.00     0.131 NA
HETATM    5  C   UNL     1      44.567 -13.653   7.311  1.00  0.00     0.753 A 
HETATM    6  N   UNL     1      43.594 -13.494   6.416  1.00  0.00     0.037 NA
HETATM    7  N   UNL     1      43.291 -16.824   7.494  1.00  0.00    -0.214 N 
HETATM    8  C   UNL     1      42.260 -17.430   6.662  1.00  0.00     0.135 C 
HETATM    9  C   UNL     1      41.244 -16.347   6.236  1.00  0.00     0.063 C 
HETATM   10  H   UNL     1      43.868 -17.442   8.056  1.00  0.00     0.178 HD
ENDROOT
BRANCH   1  11
HETATM   11  C   UNL     1      42.263 -15.316   4.098  1.00  0.00     0.001 A 
HETATM   12  C   UNL     1      41.254 -15.160   3.120  1.00  0.00     0.076 A 
HETATM   13  C   UNL     1      41.549 -15.353   1.764  1.00  0.00     0.037 A 
HETATM   14  C   UNL     1      42.837 -15.708   1.363  1.00  0.00     0.003 A 
HETATM   15  C   UNL     1      43.840 -15.857   2.311  1.00  0.00     0.001 A 
HETATM   16  C   UNL     1      43.558 -15.658   3.663  1.00  0.00     0.012 A 
BRANCH  12  17
HETATM   17  O   UNL     1      40.015 -14.792   3.584  1.00  0.00    -0.355 OA
HETATM   18  C   UNL     1      39.495 -13.551   3.123  1.00  0.00     0.210 C 
ENDBRANCH  12  17
ENDBRANCH   1  11
BRANCH   8  19
HETATM   19  C   UNL     1      42.825 -18.255   5.511  1.00  0.00    -0.035 A 
HETATM   20  C   UNL     1      42.130 -18.468   4.309  1.00  0.00     0.010 A 
HETATM   21  C   UNL     1      42.672 -19.259   3.292  1.00  0.00     0.019 A 
HETATM   22  C   UNL     1      43.925 -19.842   3.460  1.00  0.00     0.011 A 
HETATM   23 BR   UNL     1      44.646 -20.932   2.097  1.00  0.00    -0.051 Br
HETATM   24  C   UNL     1      44.647 -19.625   4.629  1.00  0.00     0.019 A 
HETATM   25  C   UNL     1      44.104 -18.831   5.642  1.00  0.00     0.010 A 
ENDBRANCH   8  19
BRANCH   5  26
HETATM   26  N   UNL     1      45.436 -12.719   7.681  1.00  0.00    -0.229 N 
HETATM   27  H   UNL     1      46.415 -12.975   7.665  1.00  0.00     0.174 HD
HETATM   28  H   UNL     1      45.234 -11.770   7.398  1.00  0.00     0.174 HD
ENDBRANCH   5  26
TORSDOF 4
ENDMDL
MODEL 6
REMARK VINA RESULT:      -6.6      4.026      6.462
REMARK  4 active torsions:
REMARK  status: ('A' for Active; 'I' for Inactive)
REMARK    1  A    between atoms: O_2  and  C_3 
REMARK    2  A    between atoms: C_4  and  C_5 
REMARK    3  A    between atoms: C_9  and  N_10 
REMARK    4  A    between atoms: C_13  and  C_14 
ROOT
HETATM    1  C   UNL     1      40.362 -15.597   1.529  1.00  0.00     0.167 C 
HETATM    2  N   UNL     1      40.529 -15.165   0.142  1.00  0.00    -0.074 N 
HETATM    3  C   UNL     1      39.798 -14.171  -0.454  1.00  0.00     0.736 A 
HETATM    4  N   UNL     1      40.209 -14.026  -1.687  1.00  0.00     0.131 NA
HETATM    5  C   UNL     1      41.157 -14.998  -1.814  1.00  0.00     0.753 A 
HETATM    6  N   UNL     1      41.396 -15.722  -0.722  1.00  0.00     0.037 NA
HETATM    7  N   UNL     1      38.827 -13.513   0.206  1.00  0.00    -0.214 N 
HETATM    8  C   UNL     1      38.613 -13.713   1.634  1.00  0.00     0.135 C 
HETATM    9  C   UNL     1      38.952 -15.175   2.002  1.00  0.00     0.063 C 
HETATM   10  H   UNL     1      38.403 -12.698  -0.224  1.00  0.00     0.178 HD
ENDROOT
BRANCH   1  11
HETATM   11  C   UNL     1      41.494 -15.148   2.460  1.00  0.00     0.001 A 
HETATM   12  C   UNL     1      41.745 -15.865   3.652  1.00  0.00     0.076 A 
HETATM   13  C   UNL     1      42.765 -15.455   4.522  1.00  0.00     0.037 A 
HETATM   14  C   UNL     1      43.538 -14.333   4.226  1.00  0.00     0.003 A 
HETATM   15  C   UNL     1      43.310 -13.623   3.055  1.00  0.00     0.001 A 
HETATM   16  C   UNL     1      42.303 -14.029   2.178  1.00  0.00     0.012 A 
BRANCH  12  17
HETATM   17  O   UNL     1      40.957 -16.968   3.870  1.00  0.00    -0.355 OA
HETATM   18  C   UNL     1      41.308 -17.807   4.965  1.00  0.00     0.210 C 
ENDBRANCH  12  17
ENDBRANCH   1  11
BRANCH   8  19
HETATM   19  C   UNL     1      39.306 -12.666   2.497  1.00  0.00    -0.035 A 
HETATM   20  C   UNL     1      39.435 -12.787   3.892  1.00  0.00     0.010 A 
HETATM   21  C   UNL     1      40.050 -11.786   4.650  1.00  0.00     0.019 A 
HETATM   22  C   UNL     1      40.554 -10.652   4.020  1.00  0.00     0.011 A 
HETATM   23 BR   UNL     1      41.362  -9.287   5.047  1.00  0.00    -0.051 Br
HETATM   24  C   UNL     1      40.465 -10.518   2.639  1.00  0.00     0.019 A 
HETATM   25  C   UNL     1      39.854 -11.522   1.884  1.00  0.00     0.010 A 
ENDBRANCH   8  19
BRANCH   5  26
HETATM   26  N   UNL     1      41.784 -15.126  -2.978  1.00  0.00    -0.229 N 
HETATM   27  H   UNL     1      42.558 -14.498  -3.150  1.00  0.00     0.174 HD
HETATM   28  H   UNL     1      41.905 -16.065  -3.330  1.00  0.00     0.174 HD
ENDBRANCH   5  26
TORSDOF 4
ENDMDL
MODEL 7
REMARK VINA RESULT:      -6.6      2.859      4.965
REMARK  4 active torsions:
REMARK  status: ('A' for Active; 'I' for Inactive)
REMARK    1  A    between atoms: O_2  and  C_3 
REMARK    2  A    between atoms: C_4  and  C_5 
REMARK    3  A    between atoms: C_9  and  N_10 
REMARK    4  A    between atoms: C_13  and  C_14 
ROOT
HETATM    1  C   UNL     1      40.614 -16.271   1.315  1.00  0.00     0.167 C 
HETATM    2  N   UNL     1      40.886 -15.379   0.190  1.00  0.00    -0.074 N 
HETATM    3  C   UNL     1      40.802 -14.012   0.245  1.00  0.00     0.736 A 
HETATM    4  N   UNL     1      41.126 -13.521  -0.924  1.00  0.00     0.131 NA
HETATM    5  C   UNL     1      41.342 -14.636  -1.678  1.00  0.00     0.753 A 
HETATM    6  N   UNL     1      41.214 -15.800  -1.045  1.00  0.00     0.037 NA
HETATM    7  N   UNL     1      40.430 -13.370   1.368  1.00  0.00    -0.214 N 
HETATM    8  C   UNL     1      40.253 -14.086   2.625  1.00  0.00     0.135 C 
HETATM    9  C   UNL     1      39.733 -15.511   2.334  1.00  0.00     0.063 C 
HETATM   10  H   UNL     1      40.510 -12.359   1.408  1.00  0.00     0.178 HD
ENDROOT
BRANCH   1  11
HETATM   11  C   UNL     1      41.870 -16.904   1.925  1.00  0.00     0.001 A 
HETATM   12  C   UNL     1      41.817 -17.444   3.230  1.00  0.00     0.076 A 
HETATM   13  C   UNL     1      42.962 -18.010   3.806  1.00  0.00     0.037 A 
HETATM   14  C   UNL     1      44.167 -18.039   3.105  1.00  0.00     0.003 A 
HETATM   15  C   UNL     1      44.233 -17.519   1.819  1.00  0.00     0.001 A 
HETATM   16  C   UNL     1      43.096 -16.963   1.233  1.00  0.00     0.012 A 
BRANCH  12  17
HETATM   17  O   UNL     1      40.595 -17.398   3.854  1.00  0.00    -0.355 OA
HETATM   18  C   UNL     1      40.572 -17.664   5.251  1.00  0.00     0.210 C 
ENDBRANCH  12  17
ENDBRANCH   1  11
BRANCH   8  19
HETATM   19  C   UNL     1      41.483 -14.033   3.524  1.00  0.00    -0.035 A 
HETATM   20  C   UNL     1      42.783 -13.826   3.032  1.00  0.00     0.010 A 
HETATM   21  C   UNL     1      43.887 -13.818   3.889  1.00  0.00     0.019 A 
HETATM   22  C   UNL     1      43.704 -14.007   5.256  1.00  0.00     0.011 A 
HETATM   23 BR   UNL     1      45.198 -14.022   6.412  1.00  0.00    -0.051 Br
HETATM   24  C   UNL     1      42.426 -14.186   5.774  1.00  0.00     0.019 A 
HETATM   25  C   UNL     1      41.324 -14.190   4.915  1.00  0.00     0.010 A 
ENDBRANCH   8  19
BRANCH   5  26
HETATM   26  N   UNL     1      41.693 -14.484  -2.951  1.00  0.00    -0.229 N 
HETATM   27  H   UNL     1      42.671 -14.299  -3.135  1.00  0.00     0.174 HD
HETATM   28  H   UNL     1      41.233 -15.079  -3.625  1.00  0.00     0.174 HD
ENDBRANCH   5  26
TORSDOF 4
ENDMDL
MODEL 8
REMARK VINA RESULT:      -6.5      5.437      7.671
REMARK  4 active torsions:
REMARK  status: ('A' for Active; 'I' for Inactive)
REMARK    1  A    between atoms: O_2  and  C_3 
REMARK    2  A    between atoms: C_4  and  C_5 
REMARK    3  A    between atoms: C_9  and  N_10 
REMARK    4  A    between atoms: C_13  and  C_14 
ROOT
HETATM    1  C   UNL     1      39.826 -12.562  -2.295  1.00  0.00     0.167 C 
HETATM    2  N   UNL     1      39.899 -13.915  -2.843  1.00  0.00    -0.074 N 
HETATM    3  C   UNL     1      40.941 -14.781  -2.639  1.00  0.00     0.736 A 
HETATM    4  N   UNL     1      40.682 -15.907  -3.250  1.00  0.00     0.131 NA
HETATM    5  C   UNL     1      39.490 -15.658  -3.865  1.00  0.00     0.753 A 
HETATM    6  N   UNL     1      38.963 -14.455  -3.645  1.00  0.00     0.037 NA
HETATM    7  N   UNL     1      42.021 -14.430  -1.915  1.00  0.00    -0.214 N 
HETATM    8  C   UNL     1      42.063 -13.173  -1.179  1.00  0.00     0.135 C 
HETATM    9  C   UNL     1      41.262 -12.101  -1.951  1.00  0.00     0.063 C 
HETATM   10  H   UNL     1      42.705 -15.140  -1.675  1.00  0.00     0.178 HD
ENDROOT
BRANCH   1  11
HETATM   11  C   UNL     1      38.828 -12.410  -1.141  1.00  0.00     0.001 A 
HETATM   12  C   UNL     1      38.402 -11.121  -0.750  1.00  0.00     0.076 A 
HETATM   13  C   UNL     1      37.504 -10.967   0.315  1.00  0.00     0.037 A 
HETATM   14  C   UNL     1      37.026 -12.080   1.004  1.00  0.00     0.003 A 
HETATM   15  C   UNL     1      37.429 -13.354   0.627  1.00  0.00     0.001 A 
HETATM   16  C   UNL     1      38.316 -13.518  -0.438  1.00  0.00     0.012 A 
BRANCH  12  17
HETATM   17  O   UNL     1      38.899 -10.072  -1.485  1.00  0.00    -0.355 OA
HETATM   18  C   UNL     1      39.522  -9.016  -0.764  1.00  0.00     0.210 C 
ENDBRANCH  12  17
ENDBRANCH   1  11
BRANCH   8  19
HETATM   19  C   UNL     1      41.671 -13.322   0.287  1.00  0.00    -0.035 A 
HETATM   20  C   UNL     1      41.467 -14.569   0.902  1.00  0.00     0.010 A 
HETATM   21  C   UNL     1      41.075 -14.658   2.241  1.00  0.00     0.019 A 
HETATM   22  C   UNL     1      40.891 -13.498   2.988  1.00  0.00     0.011 A 
HETATM   23 BR   UNL     1      40.337 -13.617   4.790  1.00  0.00    -0.051 Br
HETATM   24  C   UNL     1      41.112 -12.251   2.412  1.00  0.00     0.019 A 
HETATM   25  C   UNL     1      41.507 -12.166   1.075  1.00  0.00     0.010 A 
ENDBRANCH   8  19
BRANCH   5  26
HETATM   26  N   UNL     1      38.936 -16.623  -4.592  1.00  0.00    -0.229 N 
HETATM   27  H   UNL     1      39.077 -16.576  -5.592  1.00  0.00     0.174 HD
HETATM   28  H   UNL     1      38.945 -17.553  -4.198  1.00  0.00     0.174 HD
ENDBRANCH   5  26
TORSDOF 4
ENDMDL
MODEL 9
REMARK VINA RESULT:      -6.4      3.720      5.889
REMARK  4 active torsions:
REMARK  status: ('A' for Active; 'I' for Inactive)
REMARK    1  A    between atoms: O_2  and  C_3 
REMARK    2  A    between atoms: C_4  and  C_5 
REMARK    3  A    between atoms: C_9  and  N_10 
REMARK    4  A    between atoms: C_13  and  C_14 
ROOT
HETATM    1  C   UNL     1      42.306 -14.597   3.909  1.00  0.00     0.167 C 
HETATM    2  N   UNL     1      41.352 -13.821   4.698  1.00  0.00    -0.074 N 
HETATM    3  C   UNL     1      40.964 -12.539   4.407  1.00  0.00     0.736 A 
HETATM    4  N   UNL     1      40.090 -12.150   5.299  1.00  0.00     0.131 NA
HETATM    5  C   UNL     1      40.022 -13.212   6.150  1.00  0.00     0.753 A 
HETATM    6  N   UNL     1      40.770 -14.265   5.827  1.00  0.00     0.037 NA
HETATM    7  N   UNL     1      41.466 -11.870   3.352  1.00  0.00    -0.214 N 
HETATM    8  C   UNL     1      42.323 -12.530   2.376  1.00  0.00     0.135 C 
HETATM    9  C   UNL     1      43.168 -13.612   3.085  1.00  0.00     0.063 C 
HETATM   10  H   UNL     1      41.055 -10.979   3.094  1.00  0.00     0.178 HD
ENDROOT
BRANCH   1  11
HETATM   11  C   UNL     1      41.664 -15.711   3.075  1.00  0.00     0.001 A 
HETATM   12  C   UNL     1      42.431 -16.839   2.704  1.00  0.00     0.076 A 
HETATM   13  C   UNL     1      41.861 -17.856   1.927  1.00  0.00     0.037 A 
HETATM   14  C   UNL     1      40.536 -17.766   1.505  1.00  0.00     0.003 A 
HETATM   15  C   UNL     1      39.767 -16.669   1.867  1.00  0.00     0.001 A 
HETATM   16  C   UNL     1      40.322 -15.655   2.648  1.00  0.00     0.012 A 
BRANCH  12  17
HETATM   17  O   UNL     1      43.722 -16.870   3.171  1.00  0.00    -0.355 OA
HETATM   18  C   UNL     1      44.039 -17.871   4.131  1.00  0.00     0.210 C 
ENDBRANCH  12  17
ENDBRANCH   1  11
BRANCH   8  19
HETATM   19  C   UNL     1      41.567 -13.023   1.148  1.00  0.00    -0.035 A 
HETATM   20  C   UNL     1      42.130 -13.897   0.203  1.00  0.00     0.010 A 
HETATM   21  C   UNL     1      41.411 -14.298  -0.928  1.00  0.00     0.019 A 
HETATM   22  C   UNL     1      40.113 -13.837  -1.123  1.00  0.00     0.011 A 
HETATM   23 BR   UNL     1      39.151 -14.357  -2.663  1.00  0.00    -0.051 Br
HETATM   24  C   UNL     1      39.521 -12.992  -0.189  1.00  0.00     0.019 A 
HETATM   25  C   UNL     1      40.240 -12.597   0.941  1.00  0.00     0.010 A 
ENDBRANCH   8  19
BRANCH   5  26
HETATM   26  N   UNL     1      39.206 -13.136   7.197  1.00  0.00    -0.229 N 
HETATM   27  H   UNL     1      39.434 -12.449   7.903  1.00  0.00     0.174 HD
HETATM   28  H   UNL     1      38.219 -13.257   7.015  1.00  0.00     0.174 HD
ENDBRANCH   5  26
TORSDOF 4
ENDMDL
MODEL 10
REMARK VINA RESULT:      -6.4      4.659      7.657
REMARK  4 active torsions:
REMARK  status: ('A' for Active; 'I' for Inactive)
REMARK    1  A    between atoms: O_2  and  C_3 
REMARK    2  A    between atoms: C_4  and  C_5 
REMARK    3  A    between atoms: C_9  and  N_10 
REMARK    4  A    between atoms: C_13  and  C_14 
ROOT
HETATM    1  C   UNL     1      41.588 -14.646   1.857  1.00  0.00     0.167 C 
HETATM    2  N   UNL     1      41.399 -15.341   3.129  1.00  0.00    -0.074 N 
HETATM    3  C   UNL     1      41.496 -14.747   4.361  1.00  0.00     0.736 A 
HETATM    4  N   UNL     1      41.252 -15.643   5.282  1.00  0.00     0.131 NA
HETATM    5  C   UNL     1      41.069 -16.786   4.562  1.00  0.00     0.753 A 
HETATM    6  N   UNL     1      41.143 -16.657   3.238  1.00  0.00     0.037 NA
HETATM    7  N   UNL     1      41.805 -13.444   4.496  1.00  0.00    -0.214 N 
HETATM    8  C   UNL     1      41.894 -12.564   3.338  1.00  0.00     0.135 C 
HETATM    9  C   UNL     1      42.413 -13.365   2.123  1.00  0.00     0.063 C 
HETATM   10  H   UNL     1      41.736 -13.014   5.412  1.00  0.00     0.178 HD
ENDROOT
BRANCH   1  11
HETATM   11  C   UNL     1      40.289 -14.401   1.082  1.00  0.00     0.001 A 
HETATM   12  C   UNL     1      40.344 -14.099  -0.297  1.00  0.00     0.076 A 
HETATM   13  C   UNL     1      39.164 -13.855  -1.014  1.00  0.00     0.037 A 
HETATM   14  C   UNL     1      37.926 -13.902  -0.376  1.00  0.00     0.003 A 
HETATM   15  C   UNL     1      37.855 -14.205   0.977  1.00  0.00     0.001 A 
HETATM   16  C   UNL     1      39.022 -14.458   1.697  1.00  0.00     0.012 A 
BRANCH  12  17
HETATM   17  O   UNL     1      41.595 -14.088  -0.864  1.00  0.00    -0.355 OA
HETATM   18  C   UNL     1      41.977 -12.911  -1.565  1.00  0.00     0.210 C 
ENDBRANCH  12  17
ENDBRANCH   1  11
BRANCH   8  19
HETATM   19  C   UNL     1      40.611 -11.782   3.079  1.00  0.00    -0.035 A 
HETATM   20  C   UNL     1      39.537 -11.752   3.984  1.00  0.00     0.010 A 
HETATM   21  C   UNL     1      38.365 -11.049   3.690  1.00  0.00     0.019 A 
HETATM   22  C   UNL     1      38.254 -10.357   2.488  1.00  0.00     0.011 A 
HETATM   23 BR   UNL     1      36.661  -9.428   2.079  1.00  0.00    -0.051 Br
HETATM   24  C   UNL     1      39.312 -10.347   1.585  1.00  0.00     0.019 A 
HETATM   25  C   UNL     1      40.484 -11.048   1.883  1.00  0.00     0.010 A 
ENDBRANCH   8  19
BRANCH   5  26
HETATM   26  N   UNL     1      40.801 -17.912   5.214  1.00  0.00    -0.229 N 
HETATM   27  H   UNL     1      40.871 -17.882   6.223  1.00  0.00     0.174 HD
HETATM   28  H   UNL     1      40.049 -18.481   4.851  1.00  0.00     0.174 HD
ENDBRANCH   5  26
TORSDOF 4
ENDMDL
