MODEL 1
REMARK VINA RESULT:      -9.1      0.000      0.000
REMARK  5 active torsions:
REMARK  status: ('A' for Active; 'I' for Inactive)
REMARK    1  A    between atoms: O_2  and  C_3 
REMARK    2  A    between atoms: C_4  and  O_5 
REMARK    3  A    between atoms: C_8  and  C_9 
REMARK    4  A    between atoms: N_10  and  N_11 
REMARK       I    between atoms: N_11  and  C_12 
REMARK    5  A    between atoms: C_12  and  C_13 
ROOT
HETATM    1  N   UNL     1      44.004 -14.443   7.541  1.00  0.00    -0.242 N 
HETATM    2  C   UNL     1      44.981 -13.460   7.580  1.00  0.00     0.292 C 
HETATM    3  O   UNL     1      45.826 -13.267   6.708  1.00  0.00    -0.264 OA
HETATM    4  H   UNL     1      43.358 -14.491   8.325  1.00  0.00     0.192 HD
ENDROOT
BRANCH   2   5
HETATM    5  C   UNL     1      44.906 -12.638   8.800  1.00  0.00     0.154 A 
HETATM    6  N   UNL     1      45.836 -12.715   9.782  1.00  0.00    -0.168 NA
HETATM    7  N   UNL     1      45.396 -11.849  10.723  1.00  0.00    -0.276 N 
HETATM    8  H   UNL     1      45.942 -11.738  11.570  1.00  0.00     0.189 HD
HETATM    9  C   UNL     1      44.235 -11.225  10.389  1.00  0.00     0.069 A 
HETATM   10  C   UNL     1      43.900 -11.699   9.140  1.00  0.00     0.007 A 
HETATM   11  C   UNL     1      43.451 -10.252  11.131  1.00  0.00    -0.001 A 
HETATM   12  C   UNL     1      42.662 -11.258   8.442  1.00  0.00     0.048 C 
HETATM   13  C   UNL     1      42.220  -9.858   8.929  1.00  0.00     0.044 C 
HETATM   14  C   UNL     1      42.406  -9.609  10.422  1.00  0.00    -0.045 A 
HETATM   15  C   UNL     1      41.602  -8.671  11.080  1.00  0.00     0.008 A 
HETATM   16  C   UNL     1      41.813  -8.393  12.430  1.00  0.00     0.001 A 
HETATM   17  C   UNL     1      42.836  -9.036  13.128  1.00  0.00     0.001 A 
HETATM   18  C   UNL     1      43.657  -9.963  12.483  1.00  0.00     0.014 A 
ENDBRANCH   2   5
BRANCH   1  19
HETATM   19  N   UNL     1      43.897 -15.267   6.463  1.00  0.00    -0.184 NA
HETATM   20  C   UNL     1      44.135 -16.520   6.674  1.00  0.00     0.150 C 
BRANCH  20  21
HETATM   21  C   UNL     1      44.034 -17.504   5.574  1.00  0.00    -0.014 A 
HETATM   22  C   UNL     1      43.223 -17.235   4.465  1.00  0.00     0.016 A 
HETATM   23  C   UNL     1      43.121 -18.168   3.436  1.00  0.00     0.040 A 
HETATM   24  C   UNL     1      43.837 -19.354   3.527  1.00  0.00     0.099 A 
HETATM   25  C   UNL     1      44.664 -19.635   4.624  1.00  0.00     0.102 A 
HETATM   26  C   UNL     1      44.756 -18.704   5.660  1.00  0.00     0.052 A 
BRANCH  24  27
HETATM   27  O   UNL     1      43.722 -20.256   2.504  1.00  0.00    -0.358 OA
HETATM   28  H   UNL     1      42.842 -20.090   2.115  1.00  0.00     0.218 HD
ENDBRANCH  24  27
BRANCH  25  29
HETATM   29  O   UNL     1      45.309 -20.844   4.562  1.00  0.00    -0.353 OA
HETATM   30  C   UNL     1      44.794 -21.887   5.380  1.00  0.00     0.210 C 
ENDBRANCH  25  29
ENDBRANCH  20  21
ENDBRANCH   1  19
TORSDOF 5
ENDMDL
MODEL 2
REMARK VINA RESULT:      -9.0      2.638     10.510
REMARK  5 active torsions:
REMARK  status: ('A' for Active; 'I' for Inactive)
REMARK    1  A    between atoms: O_2  and  C_3 
REMARK    2  A    between atoms: C_4  and  O_5 
REMARK    3  A    between atoms: C_8  and  C_9 
REMARK    4  A    between atoms: N_10  and  N_11 
REMARK       I    between atoms: N_11  and  C_12 
REMARK    5  A    between atoms: C_12  and  C_13 
ROOT
HETATM    1  N   UNL     1      43.887 -14.614   5.745  1.00  0.00    -0.242 N 
HETATM    2  C   UNL     1      42.929 -15.608   5.606  1.00  0.00     0.292 C 
HETATM    3  O   UNL     1      41.895 -15.691   6.265  1.00  0.00    -0.264 OA
HETATM    4  H   UNL     1      44.696 -14.657   5.131  1.00  0.00     0.192 HD
ENDROOT
BRANCH   2   5
HETATM    5  C   UNL     1      43.277 -16.583   4.559  1.00  0.00     0.154 A 
HETATM    6  N   UNL     1      43.339 -16.245   3.248  1.00  0.00    -0.168 NA
HETATM    7  N   UNL     1      43.645 -17.404   2.622  1.00  0.00    -0.276 N 
HETATM    8  H   UNL     1      43.745 -17.396   1.613  1.00  0.00     0.189 HD
HETATM    9  C   UNL     1      43.783 -18.461   3.468  1.00  0.00     0.069 A 
HETATM   10  C   UNL     1      43.569 -17.960   4.732  1.00  0.00     0.007 A 
HETATM   11  C   UNL     1      44.090 -19.852   3.180  1.00  0.00    -0.001 A 
HETATM   12  C   UNL     1      43.614 -18.832   5.937  1.00  0.00     0.048 C 
HETATM   13  C   UNL     1      44.504 -20.072   5.690  1.00  0.00     0.044 C 
HETATM   14  C   UNL     1      44.394 -20.674   4.293  1.00  0.00    -0.045 A 
HETATM   15  C   UNL     1      44.686 -22.029   4.091  1.00  0.00     0.008 A 
HETATM   16  C   UNL     1      44.650 -22.567   2.804  1.00  0.00     0.001 A 
HETATM   17  C   UNL     1      44.339 -21.757   1.712  1.00  0.00     0.001 A 
HETATM   18  C   UNL     1      44.061 -20.401   1.895  1.00  0.00     0.014 A 
ENDBRANCH   2   5
BRANCH   1  19
HETATM   19  N   UNL     1      43.707 -13.603   6.638  1.00  0.00    -0.184 NA
HETATM   20  C   UNL     1      44.535 -13.559   7.630  1.00  0.00     0.150 C 
BRANCH  20  21
HETATM   21  C   UNL     1      44.437 -12.493   8.650  1.00  0.00    -0.014 A 
HETATM   22  C   UNL     1      45.460 -12.328   9.592  1.00  0.00     0.016 A 
HETATM   23  C   UNL     1      45.359 -11.330  10.558  1.00  0.00     0.040 A 
HETATM   24  C   UNL     1      44.241 -10.507  10.565  1.00  0.00     0.099 A 
HETATM   25  C   UNL     1      43.214 -10.650   9.622  1.00  0.00     0.102 A 
HETATM   26  C   UNL     1      43.310 -11.658   8.661  1.00  0.00     0.052 A 
BRANCH  24  27
HETATM   27  O   UNL     1      44.165  -9.533  11.524  1.00  0.00    -0.358 OA
HETATM   28  H   UNL     1      45.072  -9.445  11.872  1.00  0.00     0.218 HD
ENDBRANCH  24  27
BRANCH  25  29
HETATM   29  O   UNL     1      42.182  -9.756   9.758  1.00  0.00    -0.353 OA
HETATM   30  C   UNL     1      40.921 -10.287  10.147  1.00  0.00     0.210 C 
ENDBRANCH  25  29
ENDBRANCH  20  21
ENDBRANCH   1  19
TORSDOF 5
ENDMDL
MODEL 3
REMARK VINA RESULT:      -8.7      7.010     10.737
REMARK  5 active torsions:
REMARK  status: ('A' for Active; 'I' for Inactive)
REMARK    1  A    between atoms: O_2  and  C_3 
REMARK    2  A    between atoms: C_4  and  O_5 
REMARK    3  A    between atoms: C_8  and  C_9 
REMARK    4  A    between atoms: N_10  and  N_11 
REMARK       I    between atoms: N_11  and  C_12 
REMARK    5  A    between atoms: C_12  and  C_13 
ROOT
HETATM    1  N   UNL     1      42.124 -15.586   1.414  1.00  0.00    -0.242 N 
HETATM    2  C   UNL     1      42.973 -15.265   2.462  1.00  0.00     0.292 C 
HETATM    3  O   UNL     1      43.460 -14.154   2.663  1.00  0.00    -0.264 OA
HETATM    4  H   UNL     1      41.784 -16.544   1.366  1.00  0.00     0.192 HD
ENDROOT
BRANCH   2   5
HETATM    5  C   UNL     1      43.241 -16.414   3.343  1.00  0.00     0.154 A 
HETATM    6  N   UNL     1      43.243 -16.304   4.694  1.00  0.00    -0.168 NA
HETATM    7  N   UNL     1      43.562 -17.545   5.126  1.00  0.00    -0.276 N 
HETATM    8  H   UNL     1      43.625 -17.707   6.125  1.00  0.00     0.189 HD
HETATM    9  C   UNL     1      43.760 -18.439   4.119  1.00  0.00     0.069 A 
HETATM   10  C   UNL     1      43.542 -17.742   2.952  1.00  0.00     0.007 A 
HETATM   11  C   UNL     1      44.126 -19.844   4.178  1.00  0.00    -0.001 A 
HETATM   12  C   UNL     1      43.690 -18.386   1.618  1.00  0.00     0.048 C 
HETATM   13  C   UNL     1      43.465 -19.913   1.713  1.00  0.00     0.044 C 
HETATM   14  C   UNL     1      44.035 -20.571   2.965  1.00  0.00    -0.045 A 
HETATM   15  C   UNL     1      44.385 -21.926   2.945  1.00  0.00     0.008 A 
HETATM   16  C   UNL     1      44.845 -22.547   4.107  1.00  0.00     0.001 A 
HETATM   17  C   UNL     1      44.943 -21.825   5.296  1.00  0.00     0.001 A 
HETATM   18  C   UNL     1      44.584 -20.476   5.337  1.00  0.00     0.014 A 
ENDBRANCH   2   5
BRANCH   1  19
HETATM   19  N   UNL     1      41.732 -14.633   0.525  1.00  0.00    -0.184 NA
HETATM   20  C   UNL     1      41.419 -15.046  -0.659  1.00  0.00     0.150 C 
BRANCH  20  21
HETATM   21  C   UNL     1      40.968 -14.095  -1.698  1.00  0.00    -0.014 A 
HETATM   22  C   UNL     1      39.616 -14.041  -2.059  1.00  0.00     0.016 A 
HETATM   23  C   UNL     1      39.196 -13.151  -3.045  1.00  0.00     0.040 A 
HETATM   24  C   UNL     1      40.132 -12.324  -3.650  1.00  0.00     0.099 A 
HETATM   25  C   UNL     1      41.487 -12.356  -3.292  1.00  0.00     0.102 A 
HETATM   26  C   UNL     1      41.909 -13.255  -2.312  1.00  0.00     0.052 A 
BRANCH  24  27
HETATM   27  O   UNL     1      39.696 -11.458  -4.617  1.00  0.00    -0.358 OA
HETATM   28  H   UNL     1      39.624 -10.592  -4.171  1.00  0.00     0.218 HD
ENDBRANCH  24  27
BRANCH  25  29
HETATM   29  O   UNL     1      42.282 -11.472  -3.977  1.00  0.00    -0.353 OA
HETATM   30  C   UNL     1      42.685 -10.300  -3.278  1.00  0.00     0.210 C 
ENDBRANCH  25  29
ENDBRANCH  20  21
ENDBRANCH   1  19
TORSDOF 5
ENDMDL
MODEL 4
REMARK VINA RESULT:      -8.7      7.041     10.768
REMARK  5 active torsions:
REMARK  status: ('A' for Active; 'I' for Inactive)
REMARK    1  A    between atoms: O_2  and  C_3 
REMARK    2  A    between atoms: C_4  and  O_5 
REMARK    3  A    between atoms: C_8  and  C_9 
REMARK    4  A    between atoms: N_10  and  N_11 
REMARK       I    between atoms: N_11  and  C_12 
REMARK    5  A    between atoms: C_12  and  C_13 
ROOT
HETATM    1  N   UNL     1      42.080 -15.597   1.407  1.00  0.00    -0.242 N 
HETATM    2  C   UNL     1      42.980 -15.287   2.416  1.00  0.00     0.292 C 
HETATM    3  O   UNL     1      43.508 -14.189   2.581  1.00  0.00    -0.264 OA
HETATM    4  H   UNL     1      41.709 -16.544   1.387  1.00  0.00     0.192 HD
ENDROOT
BRANCH   2   5
HETATM    5  C   UNL     1      43.247 -16.431   3.304  1.00  0.00     0.154 A 
HETATM    6  N   UNL     1      43.246 -16.315   4.654  1.00  0.00    -0.168 NA
HETATM    7  N   UNL     1      43.566 -17.554   5.092  1.00  0.00    -0.276 N 
HETATM    8  H   UNL     1      43.627 -17.710   6.092  1.00  0.00     0.189 HD
HETATM    9  C   UNL     1      43.767 -18.452   4.091  1.00  0.00     0.069 A 
HETATM   10  C   UNL     1      43.550 -17.762   2.919  1.00  0.00     0.007 A 
HETATM   11  C   UNL     1      44.133 -19.856   4.157  1.00  0.00    -0.001 A 
HETATM   12  C   UNL     1      43.700 -18.412   1.589  1.00  0.00     0.048 C 
HETATM   13  C   UNL     1      43.477 -19.939   1.691  1.00  0.00     0.044 C 
HETATM   14  C   UNL     1      44.045 -20.589   2.948  1.00  0.00    -0.045 A 
HETATM   15  C   UNL     1      44.397 -21.945   2.935  1.00  0.00     0.008 A 
HETATM   16  C   UNL     1      44.855 -22.559   4.101  1.00  0.00     0.001 A 
HETATM   17  C   UNL     1      44.951 -21.831   5.287  1.00  0.00     0.001 A 
HETATM   18  C   UNL     1      44.590 -20.482   5.320  1.00  0.00     0.014 A 
ENDBRANCH   2   5
BRANCH   1  19
HETATM   19  N   UNL     1      41.682 -14.644   0.520  1.00  0.00    -0.184 NA
HETATM   20  C   UNL     1      41.426 -15.050  -0.681  1.00  0.00     0.150 C 
BRANCH  20  21
HETATM   21  C   UNL     1      40.975 -14.099  -1.719  1.00  0.00    -0.014 A 
HETATM   22  C   UNL     1      41.893 -13.230  -2.322  1.00  0.00     0.016 A 
HETATM   23  C   UNL     1      41.462 -12.329  -3.292  1.00  0.00     0.040 A 
HETATM   24  C   UNL     1      40.121 -12.312  -3.650  1.00  0.00     0.099 A 
HETATM   25  C   UNL     1      39.190 -13.183  -3.067  1.00  0.00     0.102 A 
HETATM   26  C   UNL     1      39.621 -14.078  -2.087  1.00  0.00     0.052 A 
BRANCH  24  27
HETATM   27  O   UNL     1      39.721 -11.417  -4.606  1.00  0.00    -0.358 OA
HETATM   28  H   UNL     1      38.784 -11.629  -4.778  1.00  0.00     0.218 HD
ENDBRANCH  24  27
BRANCH  25  29
HETATM   29  O   UNL     1      37.908 -13.048  -3.533  1.00  0.00    -0.353 OA
HETATM   30  C   UNL     1      37.220 -14.246  -3.871  1.00  0.00     0.210 C 
ENDBRANCH  25  29
ENDBRANCH  20  21
ENDBRANCH   1  19
TORSDOF 5
ENDMDL
MODEL 5
REMARK VINA RESULT:      -8.5      7.134     10.006
REMARK  5 active torsions:
REMARK  status: ('A' for Active; 'I' for Inactive)
REMARK    1  A    between atoms: O_2  and  C_3 
REMARK    2  A    between atoms: C_4  and  O_5 
REMARK    3  A    between atoms: C_8  and  C_9 
REMARK    4  A    between atoms: N_10  and  N_11 
REMARK       I    between atoms: N_11  and  C_12 
REMARK    5  A    between atoms: C_12  and  C_13 
ROOT
HETATM    1  N   UNL     1      42.502 -16.662   0.321  1.00  0.00    -0.242 N 
HETATM    2  C   UNL     1      41.385 -15.842   0.262  1.00  0.00     0.292 C 
HETATM    3  O   UNL     1      40.490 -15.803   1.103  1.00  0.00    -0.264 OA
HETATM    4  H   UNL     1      43.174 -16.591  -0.438  1.00  0.00     0.192 HD
ENDROOT
BRANCH   2   5
HETATM    5  C   UNL     1      41.375 -14.990  -0.940  1.00  0.00     0.154 A 
HETATM    6  N   UNL     1      41.013 -15.461  -2.158  1.00  0.00    -0.168 NA
HETATM    7  N   UNL     1      41.172 -14.401  -2.983  1.00  0.00    -0.276 N 
HETATM    8  H   UNL     1      40.958 -14.520  -3.966  1.00  0.00     0.189 HD
HETATM    9  C   UNL     1      41.613 -13.280  -2.351  1.00  0.00     0.069 A 
HETATM   10  C   UNL     1      41.737 -13.621  -1.023  1.00  0.00     0.007 A 
HETATM   11  C   UNL     1      41.913 -11.964  -2.889  1.00  0.00    -0.001 A 
HETATM   12  C   UNL     1      42.224 -12.649  -0.008  1.00  0.00     0.048 C 
HETATM   13  C   UNL     1      41.943 -11.195  -0.454  1.00  0.00     0.044 C 
HETATM   14  C   UNL     1      42.135 -10.932  -1.944  1.00  0.00    -0.045 A 
HETATM   15  C   UNL     1      42.443  -9.641  -2.392  1.00  0.00     0.008 A 
HETATM   16  C   UNL     1      42.555  -9.383  -3.758  1.00  0.00     0.001 A 
HETATM   17  C   UNL     1      42.346 -10.405  -4.685  1.00  0.00     0.001 A 
HETATM   18  C   UNL     1      42.023 -11.693  -4.255  1.00  0.00     0.014 A 
ENDBRANCH   2   5
BRANCH   1  19
HETATM   19  N   UNL     1      42.697 -17.485   1.388  1.00  0.00    -0.184 NA
HETATM   20  C   UNL     1      43.695 -18.303   1.306  1.00  0.00     0.150 C 
BRANCH  20  21
HETATM   21  C   UNL     1      44.005 -19.231   2.414  1.00  0.00    -0.014 A 
HETATM   22  C   UNL     1      44.243 -20.586   2.149  1.00  0.00     0.016 A 
HETATM   23  C   UNL     1      44.524 -21.459   3.196  1.00  0.00     0.040 A 
HETATM   24  C   UNL     1      44.569 -20.966   4.493  1.00  0.00     0.099 A 
HETATM   25  C   UNL     1      44.345 -19.611   4.776  1.00  0.00     0.102 A 
HETATM   26  C   UNL     1      44.053 -18.739   3.727  1.00  0.00     0.052 A 
BRANCH  24  27
HETATM   27  O   UNL     1      44.846 -21.844   5.506  1.00  0.00    -0.358 OA
HETATM   28  H   UNL     1      45.266 -21.305   6.204  1.00  0.00     0.218 HD
ENDBRANCH  24  27
BRANCH  25  29
HETATM   29  O   UNL     1      44.431 -19.281   6.104  1.00  0.00    -0.353 OA
HETATM   30  C   UNL     1      45.156 -18.099   6.424  1.00  0.00     0.210 C 
ENDBRANCH  25  29
ENDBRANCH  20  21
ENDBRANCH   1  19
TORSDOF 5
ENDMDL
MODEL 6
REMARK VINA RESULT:      -8.4      4.432     10.618
REMARK  5 active torsions:
REMARK  status: ('A' for Active; 'I' for Inactive)
REMARK    1  A    between atoms: O_2  and  C_3 
REMARK    2  A    between atoms: C_4  and  O_5 
REMARK    3  A    between atoms: C_8  and  C_9 
REMARK    4  A    between atoms: N_10  and  N_11 
REMARK       I    between atoms: N_11  and  C_12 
REMARK    5  A    between atoms: C_12  and  C_13 
ROOT
HETATM    1  N   UNL     1      41.904 -14.868   3.710  1.00  0.00    -0.242 N 
HETATM    2  C   UNL     1      43.190 -14.998   3.206  1.00  0.00     0.292 C 
HETATM    3  O   UNL     1      44.028 -14.100   3.167  1.00  0.00    -0.264 OA
HETATM    4  H   UNL     1      41.310 -15.694   3.691  1.00  0.00     0.192 HD
ENDROOT
BRANCH   2   5
HETATM    5  C   UNL     1      43.467 -16.357   2.711  1.00  0.00     0.154 A 
HETATM    6  N   UNL     1      43.448 -16.664   1.391  1.00  0.00    -0.168 NA
HETATM    7  N   UNL     1      43.709 -17.990   1.357  1.00  0.00    -0.276 N 
HETATM    8  H   UNL     1      43.745 -18.451   0.454  1.00  0.00     0.189 HD
HETATM    9  C   UNL     1      43.897 -18.542   2.586  1.00  0.00     0.069 A 
HETATM   10  C   UNL     1      43.765 -17.507   3.485  1.00  0.00     0.007 A 
HETATM   11  C   UNL     1      44.179 -19.917   2.958  1.00  0.00    -0.001 A 
HETATM   12  C   UNL     1      43.882 -17.726   4.952  1.00  0.00     0.048 C 
HETATM   13  C   UNL     1      44.750 -18.968   5.258  1.00  0.00     0.044 C 
HETATM   14  C   UNL     1      44.550 -20.143   4.307  1.00  0.00    -0.045 A 
HETATM   15  C   UNL     1      44.823 -21.447   4.738  1.00  0.00     0.008 A 
HETATM   16  C   UNL     1      44.704 -22.516   3.851  1.00  0.00     0.001 A 
HETATM   17  C   UNL     1      44.328 -22.291   2.526  1.00  0.00     0.001 A 
HETATM   18  C   UNL     1      44.067 -20.996   2.076  1.00  0.00     0.014 A 
ENDBRANCH   2   5
BRANCH   1  19
HETATM   19  N   UNL     1      41.491 -13.690   4.252  1.00  0.00    -0.184 NA
HETATM   20  C   UNL     1      40.256 -13.365   4.044  1.00  0.00     0.150 C 
BRANCH  20  21
HETATM   21  C   UNL     1      39.701 -12.112   4.599  1.00  0.00    -0.014 A 
HETATM   22  C   UNL     1      38.881 -11.298   3.808  1.00  0.00     0.016 A 
HETATM   23  C   UNL     1      38.368 -10.113   4.331  1.00  0.00     0.040 A 
HETATM   24  C   UNL     1      38.677  -9.763   5.638  1.00  0.00     0.099 A 
HETATM   25  C   UNL     1      39.487 -10.571   6.448  1.00  0.00     0.102 A 
HETATM   26  C   UNL     1      40.009 -11.753   5.920  1.00  0.00     0.052 A 
BRANCH  24  27
HETATM   27  O   UNL     1      38.162  -8.593   6.129  1.00  0.00    -0.358 OA
HETATM   28  H   UNL     1      37.302  -8.484   5.680  1.00  0.00     0.218 HD
ENDBRANCH  24  27
BRANCH  25  29
HETATM   29  O   UNL     1      39.693 -10.090   7.715  1.00  0.00    -0.353 OA
HETATM   30  C   UNL     1      39.265 -10.917   8.791  1.00  0.00     0.210 C 
ENDBRANCH  25  29
ENDBRANCH  20  21
ENDBRANCH   1  19
TORSDOF 5
ENDMDL
MODEL 7
REMARK VINA RESULT:      -8.0      3.332     10.365
REMARK  5 active torsions:
REMARK  status: ('A' for Active; 'I' for Inactive)
REMARK    1  A    between atoms: O_2  and  C_3 
REMARK    2  A    between atoms: C_4  and  O_5 
REMARK    3  A    between atoms: C_8  and  C_9 
REMARK    4  A    between atoms: N_10  and  N_11 
REMARK       I    between atoms: N_11  and  C_12 
REMARK    5  A    between atoms: C_12  and  C_13 
ROOT
HETATM    1  N   UNL     1      42.880 -12.259   7.101  1.00  0.00    -0.242 N 
HETATM    2  C   UNL     1      41.935 -12.616   6.151  1.00  0.00     0.292 C 
HETATM    3  O   UNL     1      40.752 -12.282   6.169  1.00  0.00    -0.264 OA
HETATM    4  H   UNL     1      43.830 -12.596   6.964  1.00  0.00     0.192 HD
ENDROOT
BRANCH   2   5
HETATM    5  C   UNL     1      42.500 -13.456   5.082  1.00  0.00     0.154 A 
HETATM    6  N   UNL     1      42.969 -12.933   3.923  1.00  0.00    -0.168 NA
HETATM    7  N   UNL     1      43.357 -14.013   3.206  1.00  0.00    -0.276 N 
HETATM    8  H   UNL     1      43.748 -13.863   2.283  1.00  0.00     0.189 HD
HETATM    9  C   UNL     1      43.162 -15.194   3.851  1.00  0.00     0.069 A 
HETATM   10  C   UNL     1      42.625 -14.869   5.077  1.00  0.00     0.007 A 
HETATM   11  C   UNL     1      43.434 -16.552   3.413  1.00  0.00    -0.001 A 
HETATM   12  C   UNL     1      42.250 -15.912   6.069  1.00  0.00     0.048 C 
HETATM   13  C   UNL     1      43.078 -17.201   5.856  1.00  0.00     0.044 C 
HETATM   14  C   UNL     1      43.337 -17.566   4.399  1.00  0.00    -0.045 A 
HETATM   15  C   UNL     1      43.573 -18.899   4.043  1.00  0.00     0.008 A 
HETATM   16  C   UNL     1      43.875 -19.227   2.721  1.00  0.00     0.001 A 
HETATM   17  C   UNL     1      43.960 -18.228   1.751  1.00  0.00     0.001 A 
HETATM   18  C   UNL     1      43.742 -16.892   2.093  1.00  0.00     0.014 A 
ENDBRANCH   2   5
BRANCH   1  19
HETATM   19  N   UNL     1      42.542 -11.445   8.139  1.00  0.00    -0.184 NA
HETATM   20  C   UNL     1      43.409 -11.343   9.093  1.00  0.00     0.150 C 
BRANCH  20  21
HETATM   21  C   UNL     1      43.148 -10.476  10.262  1.00  0.00    -0.014 A 
HETATM   22  C   UNL     1      43.935 -10.595  11.414  1.00  0.00     0.016 A 
HETATM   23  C   UNL     1      43.679  -9.784  12.516  1.00  0.00     0.040 A 
HETATM   24  C   UNL     1      42.645  -8.860  12.449  1.00  0.00     0.099 A 
HETATM   25  C   UNL     1      41.855  -8.719  11.300  1.00  0.00     0.102 A 
HETATM   26  C   UNL     1      42.104  -9.540  10.200  1.00  0.00     0.052 A 
BRANCH  24  27
HETATM   27  O   UNL     1      42.412  -8.074  13.546  1.00  0.00    -0.358 OA
HETATM   28  H   UNL     1      42.084  -7.227  13.188  1.00  0.00     0.218 HD
ENDBRANCH  24  27
BRANCH  25  29
HETATM   29  O   UNL     1      40.879  -7.758  11.390  1.00  0.00    -0.353 OA
HETATM   30  C   UNL     1      39.876  -7.769  10.382  1.00  0.00     0.210 C 
ENDBRANCH  25  29
ENDBRANCH  20  21
ENDBRANCH   1  19
TORSDOF 5
ENDMDL
MODEL 8
REMARK VINA RESULT:      -7.8      5.206     10.583
REMARK  5 active torsions:
REMARK  status: ('A' for Active; 'I' for Inactive)
REMARK    1  A    between atoms: O_2  and  C_3 
REMARK    2  A    between atoms: C_4  and  O_5 
REMARK    3  A    between atoms: C_8  and  C_9 
REMARK    4  A    between atoms: N_10  and  N_11 
REMARK       I    between atoms: N_11  and  C_12 
REMARK    5  A    between atoms: C_12  and  C_13 
ROOT
HETATM    1  N   UNL     1      41.497 -14.905   4.490  1.00  0.00    -0.242 N 
HETATM    2  C   UNL     1      42.828 -15.179   4.212  1.00  0.00     0.292 C 
HETATM    3  O   UNL     1      43.621 -14.392   3.701  1.00  0.00    -0.264 OA
HETATM    4  H   UNL     1      40.948 -15.644   4.923  1.00  0.00     0.192 HD
ENDROOT
BRANCH   2   5
HETATM    5  C   UNL     1      43.215 -16.545   4.605  1.00  0.00     0.154 A 
HETATM    6  N   UNL     1      43.467 -16.883   5.892  1.00  0.00    -0.168 NA
HETATM    7  N   UNL     1      43.820 -18.187   5.828  1.00  0.00    -0.276 N 
HETATM    8  H   UNL     1      44.059 -18.665   6.690  1.00  0.00     0.189 HD
HETATM    9  C   UNL     1      43.802 -18.696   4.567  1.00  0.00     0.069 A 
HETATM   10  C   UNL     1      43.397 -17.663   3.752  1.00  0.00     0.007 A 
HETATM   11  C   UNL     1      44.128 -20.031   4.095  1.00  0.00    -0.001 A 
HETATM   12  C   UNL     1      43.278 -17.830   2.278  1.00  0.00     0.048 C 
HETATM   13  C   UNL     1      43.026 -19.310   1.907  1.00  0.00     0.044 C 
HETATM   14  C   UNL     1      43.794 -20.323   2.749  1.00  0.00    -0.045 A 
HETATM   15  C   UNL     1      44.091 -21.587   2.223  1.00  0.00     0.008 A 
HETATM   16  C   UNL     1      44.735 -22.539   3.014  1.00  0.00     0.001 A 
HETATM   17  C   UNL     1      45.072 -22.243   4.334  1.00  0.00     0.001 A 
HETATM   18  C   UNL     1      44.769 -20.994   4.879  1.00  0.00     0.014 A 
ENDBRANCH   2   5
BRANCH   1  19
HETATM   19  N   UNL     1      40.978 -13.673   4.234  1.00  0.00    -0.184 NA
HETATM   20  C   UNL     1      39.870 -13.644   3.568  1.00  0.00     0.150 C 
BRANCH  20  21
HETATM   21  C   UNL     1      39.214 -12.358   3.247  1.00  0.00    -0.014 A 
HETATM   22  C   UNL     1      39.002 -11.994   1.912  1.00  0.00     0.016 A 
HETATM   23  C   UNL     1      38.394 -10.777   1.613  1.00  0.00     0.040 A 
HETATM   24  C   UNL     1      38.000  -9.946   2.653  1.00  0.00     0.099 A 
HETATM   25  C   UNL     1      38.193 -10.300   3.995  1.00  0.00     0.102 A 
HETATM   26  C   UNL     1      38.812 -11.514   4.293  1.00  0.00     0.052 A 
BRANCH  24  27
HETATM   27  O   UNL     1      37.404  -8.755   2.334  1.00  0.00    -0.358 OA
HETATM   28  H   UNL     1      37.439  -8.704   1.360  1.00  0.00     0.218 HD
ENDBRANCH  24  27
BRANCH  25  29
HETATM   29  O   UNL     1      37.742  -9.376   4.903  1.00  0.00    -0.353 OA
HETATM   30  C   UNL     1      38.718  -8.786   5.753  1.00  0.00     0.210 C 
ENDBRANCH  25  29
ENDBRANCH  20  21
ENDBRANCH   1  19
TORSDOF 5
ENDMDL
MODEL 9
REMARK VINA RESULT:      -7.8      6.685     10.699
REMARK  5 active torsions:
REMARK  status: ('A' for Active; 'I' for Inactive)
REMARK    1  A    between atoms: O_2  and  C_3 
REMARK    2  A    between atoms: C_4  and  O_5 
REMARK    3  A    between atoms: C_8  and  C_9 
REMARK    4  A    between atoms: N_10  and  N_11 
REMARK       I    between atoms: N_11  and  C_12 
REMARK    5  A    between atoms: C_12  and  C_13 
ROOT
HETATM    1  N   UNL     1      41.458 -15.293   2.752  1.00  0.00    -0.242 N 
HETATM    2  C   UNL     1      42.785 -15.300   3.153  1.00  0.00     0.292 C 
HETATM    3  O   UNL     1      43.584 -14.383   2.973  1.00  0.00    -0.264 OA
HETATM    4  H   UNL     1      40.900 -16.115   2.970  1.00  0.00     0.192 HD
ENDROOT
BRANCH   2   5
HETATM    5  C   UNL     1      43.160 -16.547   3.841  1.00  0.00     0.154 A 
HETATM    6  N   UNL     1      43.299 -16.616   5.187  1.00  0.00    -0.168 NA
HETATM    7  N   UNL     1      43.679 -17.895   5.414  1.00  0.00    -0.276 N 
HETATM    8  H   UNL     1      43.847 -18.185   6.371  1.00  0.00     0.189 HD
HETATM    9  C   UNL     1      43.785 -18.642   4.283  1.00  0.00     0.069 A 
HETATM   10  C   UNL     1      43.437 -17.804   3.247  1.00  0.00     0.007 A 
HETATM   11  C   UNL     1      44.174 -20.031   4.116  1.00  0.00    -0.001 A 
HETATM   12  C   UNL     1      43.455 -18.262   1.831  1.00  0.00     0.048 C 
HETATM   13  C   UNL     1      43.263 -19.794   1.742  1.00  0.00     0.044 C 
HETATM   14  C   UNL     1      43.969 -20.594   2.831  1.00  0.00    -0.045 A 
HETATM   15  C   UNL     1      44.334 -21.926   2.595  1.00  0.00     0.008 A 
HETATM   16  C   UNL     1      44.920 -22.680   3.611  1.00  0.00     0.001 A 
HETATM   17  C   UNL     1      45.131 -22.119   4.871  1.00  0.00     0.001 A 
HETATM   18  C   UNL     1      44.758 -20.798   5.127  1.00  0.00     0.014 A 
ENDBRANCH   2   5
BRANCH   1  19
HETATM   19  N   UNL     1      40.928 -14.199   2.139  1.00  0.00    -0.184 NA
HETATM   20  C   UNL     1      39.743 -14.339   1.640  1.00  0.00     0.150 C 
BRANCH  20  21
HETATM   21  C   UNL     1      39.069 -13.209   0.965  1.00  0.00    -0.014 A 
HETATM   22  C   UNL     1      37.671 -13.150   0.923  1.00  0.00     0.016 A 
HETATM   23  C   UNL     1      37.040 -12.090   0.276  1.00  0.00     0.040 A 
HETATM   24  C   UNL     1      37.816 -11.101  -0.313  1.00  0.00     0.099 A 
HETATM   25  C   UNL     1      39.216 -11.138  -0.271  1.00  0.00     0.102 A 
HETATM   26  C   UNL     1      39.848 -12.206   0.367  1.00  0.00     0.052 A 
BRANCH  24  27
HETATM   27  O   UNL     1      37.173 -10.069  -0.943  1.00  0.00    -0.358 OA
HETATM   28  H   UNL     1      36.354 -10.460  -1.303  1.00  0.00     0.218 HD
ENDBRANCH  24  27
BRANCH  25  29
HETATM   29  O   UNL     1      39.837 -10.084  -0.893  1.00  0.00    -0.353 OA
HETATM   30  C   UNL     1      40.930  -9.488  -0.206  1.00  0.00     0.210 C 
ENDBRANCH  25  29
ENDBRANCH  20  21
ENDBRANCH   1  19
TORSDOF 5
ENDMDL
MODEL 10
REMARK VINA RESULT:      -7.8      3.050      4.129
REMARK  5 active torsions:
REMARK  status: ('A' for Active; 'I' for Inactive)
REMARK    1  A    between atoms: O_2  and  C_3 
REMARK    2  A    between atoms: C_4  and  O_5 
REMARK    3  A    between atoms: C_8  and  C_9 
REMARK    4  A    between atoms: N_10  and  N_11 
REMARK       I    between atoms: N_11  and  C_12 
REMARK    5  A    between atoms: C_12  and  C_13 
ROOT
HETATM    1  N   UNL     1      42.754 -12.694   6.870  1.00  0.00    -0.242 N 
HETATM    2  C   UNL     1      42.201 -11.481   7.252  1.00  0.00     0.292 C 
HETATM    3  O   UNL     1      41.375 -10.844   6.601  1.00  0.00    -0.264 OA
HETATM    4  H   UNL     1      43.423 -13.123   7.506  1.00  0.00     0.192 HD
ENDROOT
BRANCH   2   5
HETATM    5  C   UNL     1      42.706 -11.016   8.554  1.00  0.00     0.154 A 
HETATM    6  N   UNL     1      44.031 -10.946   8.833  1.00  0.00    -0.168 NA
HETATM    7  N   UNL     1      44.076 -10.517  10.115  1.00  0.00    -0.276 N 
HETATM    8  H   UNL     1      44.984 -10.390  10.549  1.00  0.00     0.189 HD
HETATM    9  C   UNL     1      42.850 -10.308  10.664  1.00  0.00     0.069 A 
HETATM   10  C   UNL     1      41.940 -10.604   9.674  1.00  0.00     0.007 A 
HETATM   11  C   UNL     1      42.489  -9.867  12.001  1.00  0.00    -0.001 A 
HETATM   12  C   UNL     1      40.473 -10.514   9.907  1.00  0.00     0.048 C 
HETATM   13  C   UNL     1      40.152  -9.508  11.036  1.00  0.00     0.044 C 
HETATM   14  C   UNL     1      41.130  -9.522  12.206  1.00  0.00    -0.045 A 
HETATM   15  C   UNL     1      40.709  -9.102  13.474  1.00  0.00     0.008 A 
HETATM   16  C   UNL     1      41.618  -9.051  14.531  1.00  0.00     0.001 A 
HETATM   17  C   UNL     1      42.953  -9.402  14.327  1.00  0.00     0.001 A 
HETATM   18  C   UNL     1      43.392  -9.809  13.066  1.00  0.00     0.014 A 
ENDBRANCH   2   5
BRANCH   1  19
HETATM   19  N   UNL     1      42.367 -13.296   5.713  1.00  0.00    -0.184 NA
HETATM   20  C   UNL     1      41.941 -14.513   5.813  1.00  0.00     0.150 C 
BRANCH  20  21
HETATM   21  C   UNL     1      41.484 -15.255   4.619  1.00  0.00    -0.014 A 
HETATM   22  C   UNL     1      42.078 -16.478   4.283  1.00  0.00     0.016 A 
HETATM   23  C   UNL     1      41.652 -17.169   3.151  1.00  0.00     0.040 A 
HETATM   24  C   UNL     1      40.633 -16.631   2.375  1.00  0.00     0.099 A 
HETATM   25  C   UNL     1      40.019 -15.414   2.704  1.00  0.00     0.102 A 
HETATM   26  C   UNL     1      40.454 -14.718   3.832  1.00  0.00     0.052 A 
BRANCH  24  27
HETATM   27  O   UNL     1      40.232 -17.328   1.268  1.00  0.00    -0.358 OA
HETATM   28  H   UNL     1      40.313 -16.699   0.526  1.00  0.00     0.218 HD
ENDBRANCH  24  27
BRANCH  25  29
HETATM   29  O   UNL     1      39.026 -15.023   1.843  1.00  0.00    -0.353 OA
HETATM   30  C   UNL     1      38.830 -13.622   1.686  1.00  0.00     0.210 C 
ENDBRANCH  25  29
ENDBRANCH  20  21
ENDBRANCH   1  19
TORSDOF 5
ENDMDL
