MODEL 1
REMARK VINA RESULT:      -9.9      0.000      0.000
REMARK  5 active torsions:
REMARK  status: ('A' for Active; 'I' for Inactive)
REMARK    1  A    between atoms: C_5  and  C_6 
REMARK    2  A    between atoms: C_6  and  O_7 
REMARK    3  A    between atoms: O_7  and  C_8 
REMARK    4  A    between atoms: C_12  and  C_13 
REMARK    5  A    between atoms: C_30  and  O_31 
ROOT
HETATM    1  C   UNL     1      42.808 -15.543   5.157  1.00  0.00     0.130 A 
HETATM    2  C   UNL     1      42.179 -14.298   4.995  1.00  0.00     0.048 A 
HETATM    3 BR   UNL     1      40.959 -13.966   3.576  1.00  0.00    -0.048 Br
HETATM    4  C   UNL     1      42.446 -13.252   5.881  1.00  0.00     0.033 A 
HETATM    5  C   UNL     1      43.374 -13.417   6.921  1.00  0.00    -0.012 A 
HETATM    6  C   UNL     1      44.012 -14.663   7.052  1.00  0.00     0.050 A 
HETATM    7  C   UNL     1      43.758 -15.722   6.169  1.00  0.00     0.104 A 
ENDROOT
BRANCH   5   8
HETATM    8  C   UNL     1      43.651 -12.323   7.928  1.00  0.00     0.219 C 
HETATM    9  N   UNL     1      44.067 -12.891   9.183  1.00  0.00    -0.332 N 
HETATM   10  C   UNL     1      44.116 -12.152  10.334  1.00  0.00     0.256 C 
HETATM   11  H   UNL     1      44.710 -13.670   9.159  1.00  0.00     0.165 HD
HETATM   12  O   UNL     1      44.807 -12.477  11.292  1.00  0.00    -0.267 OA
HETATM   13  C   UNL     1      43.255 -10.981  10.349  1.00  0.00     0.073 A 
HETATM   14  C   UNL     1      42.466 -10.720   9.252  1.00  0.00     0.088 A 
HETATM   15  C   UNL     1      43.056 -10.019  11.389  1.00  0.00    -0.023 A 
HETATM   16  S   UNL     1      41.468  -9.362   9.471  1.00  0.00    -0.074 SA
HETATM   17  N   UNL     1      42.484 -11.484   8.139  1.00  0.00    -0.358 N 
HETATM   18  C   UNL     1      42.078  -9.104  11.041  1.00  0.00     0.018 A 
HETATM   19  C   UNL     1      41.596  -7.994  11.909  1.00  0.00     0.281 C 
HETATM   20  N   UNL     1      42.030  -8.195  13.358  1.00  0.00    -0.070 N 
HETATM   21  C   UNL     1      43.488  -8.642  13.448  1.00  0.00     0.239 C 
HETATM   22  H   UNL     1      41.978  -7.270  13.801  1.00  0.00     0.279 HD
HETATM   23  C   UNL     1      41.092  -9.082  14.126  1.00  0.00     0.270 C 
HETATM   24  C   UNL     1      43.734  -9.979  12.726  1.00  0.00     0.068 C 
HETATM   25  H   UNL     1      42.067 -11.120   7.285  1.00  0.00     0.162 HD
ENDBRANCH   5   8
BRANCH   7  26
HETATM   26  O   UNL     1      44.477 -16.848   6.459  1.00  0.00    -0.353 OA
HETATM   27  C   UNL     1      43.953 -17.731   7.441  1.00  0.00     0.210 C 
ENDBRANCH   7  26
BRANCH   1  28
HETATM   28  O   UNL     1      42.486 -16.586   4.284  1.00  0.00    -0.271 OA
BRANCH  28  29
HETATM   29  C   UNL     1      43.411 -16.722   3.263  1.00  0.00     0.298 C 
HETATM   30  O   UNL     1      43.956 -15.823   2.641  1.00  0.00    -0.259 OA
BRANCH  29  31
HETATM   31  C   UNL     1      43.713 -18.165   3.062  1.00  0.00     0.040 A 
HETATM   32  C   UNL     1      43.269 -18.772   1.881  1.00  0.00     0.018 A 
HETATM   33  C   UNL     1      43.548 -20.118   1.632  1.00  0.00     0.007 A 
HETATM   34  C   UNL     1      44.276 -20.873   2.558  1.00  0.00    -0.062 A 
HETATM   35  C   UNL     1      44.555 -22.326   2.306  1.00  0.00     0.048 C 
HETATM   36  C   UNL     1      44.696 -20.272   3.751  1.00  0.00     0.007 A 
HETATM   37  C   UNL     1      44.422 -18.924   4.001  1.00  0.00     0.018 A 
ENDBRANCH  29  31
ENDBRANCH  28  29
ENDBRANCH   1  28
TORSDOF 5
ENDMDL
MODEL 2
REMARK VINA RESULT:      -9.7      1.372      2.053
REMARK  5 active torsions:
REMARK  status: ('A' for Active; 'I' for Inactive)
REMARK    1  A    between atoms: C_5  and  C_6 
REMARK    2  A    between atoms: C_6  and  O_7 
REMARK    3  A    between atoms: O_7  and  C_8 
REMARK    4  A    between atoms: C_12  and  C_13 
REMARK    5  A    between atoms: C_30  and  O_31 
ROOT
HETATM    1  C   UNL     1      43.622 -15.415   5.070  1.00  0.00     0.130 A 
HETATM    2  C   UNL     1      44.306 -15.680   6.267  1.00  0.00     0.048 A 
HETATM    3 BR   UNL     1      45.103 -17.369   6.617  1.00  0.00    -0.048 Br
HETATM    4  C   UNL     1      44.411 -14.695   7.251  1.00  0.00     0.033 A 
HETATM    5  C   UNL     1      43.804 -13.442   7.075  1.00  0.00    -0.012 A 
HETATM    6  C   UNL     1      43.102 -13.205   5.880  1.00  0.00     0.050 A 
HETATM    7  C   UNL     1      42.984 -14.184   4.884  1.00  0.00     0.104 A 
ENDROOT
BRANCH   5   8
HETATM    8  C   UNL     1      43.937 -12.336   8.098  1.00  0.00     0.219 C 
HETATM    9  N   UNL     1      44.188 -12.888   9.403  1.00  0.00    -0.332 N 
HETATM   10  C   UNL     1      44.078 -12.137  10.543  1.00  0.00     0.256 C 
HETATM   11  H   UNL     1      44.834 -13.661   9.472  1.00  0.00     0.165 HD
HETATM   12  O   UNL     1      44.640 -12.447  11.587  1.00  0.00    -0.267 OA
HETATM   13  C   UNL     1      43.214 -10.975  10.432  1.00  0.00     0.073 A 
HETATM   14  C   UNL     1      42.575 -10.731   9.237  1.00  0.00     0.088 A 
HETATM   15  C   UNL     1      42.872 -10.004  11.425  1.00  0.00    -0.023 A 
HETATM   16  S   UNL     1      41.547  -9.380   9.308  1.00  0.00    -0.074 SA
HETATM   17  N   UNL     1      42.745 -11.505   8.144  1.00  0.00    -0.358 N 
HETATM   18  C   UNL     1      41.942  -9.102  10.942  1.00  0.00     0.018 A 
HETATM   19  C   UNL     1      41.340  -7.988  11.727  1.00  0.00     0.281 C 
HETATM   20  N   UNL     1      41.581  -8.172  13.223  1.00  0.00    -0.070 N 
HETATM   21  C   UNL     1      43.018  -8.604  13.509  1.00  0.00     0.239 C 
HETATM   22  H   UNL     1      41.463  -7.243  13.645  1.00  0.00     0.279 HD
HETATM   23  C   UNL     1      40.556  -9.059  13.870  1.00  0.00     0.270 C 
HETATM   24  C   UNL     1      43.367  -9.946  12.840  1.00  0.00     0.068 C 
HETATM   25  H   UNL     1      42.443 -11.153   7.239  1.00  0.00     0.162 HD
ENDBRANCH   5   8
BRANCH   7  26
HETATM   26  O   UNL     1      42.263 -13.764   3.801  1.00  0.00    -0.353 OA
HETATM   27  C   UNL     1      40.897 -14.149   3.727  1.00  0.00     0.210 C 
ENDBRANCH   7  26
BRANCH   1  28
HETATM   28  O   UNL     1      43.574 -16.403   4.083  1.00  0.00    -0.271 OA
BRANCH  28  29
HETATM   29  C   UNL     1      42.752 -17.460   4.436  1.00  0.00     0.298 C 
HETATM   30  O   UNL     1      41.761 -17.413   5.148  1.00  0.00    -0.259 OA
BRANCH  29  31
HETATM   31  C   UNL     1      43.218 -18.696   3.751  1.00  0.00     0.040 A 
HETATM   32  C   UNL     1      42.775 -18.931   2.444  1.00  0.00     0.018 A 
HETATM   33  C   UNL     1      43.203 -20.064   1.748  1.00  0.00     0.007 A 
HETATM   34  C   UNL     1      44.078 -20.976   2.348  1.00  0.00    -0.062 A 
HETATM   35  C   UNL     1      44.520 -22.207   1.612  1.00  0.00     0.048 C 
HETATM   36  C   UNL     1      44.498 -20.754   3.666  1.00  0.00     0.007 A 
HETATM   37  C   UNL     1      44.076 -19.618   4.363  1.00  0.00     0.018 A 
ENDBRANCH  29  31
ENDBRANCH  28  29
ENDBRANCH   1  28
TORSDOF 5
ENDMDL
MODEL 3
REMARK VINA RESULT:      -9.6      1.474      1.972
REMARK  5 active torsions:
REMARK  status: ('A' for Active; 'I' for Inactive)
REMARK    1  A    between atoms: C_5  and  C_6 
REMARK    2  A    between atoms: C_6  and  O_7 
REMARK    3  A    between atoms: O_7  and  C_8 
REMARK    4  A    between atoms: C_12  and  C_13 
REMARK    5  A    between atoms: C_30  and  O_31 
ROOT
HETATM    1  C   UNL     1      41.985 -15.545   4.548  1.00  0.00     0.130 A 
HETATM    2  C   UNL     1      41.058 -14.564   4.163  1.00  0.00     0.048 A 
HETATM    3 BR   UNL     1      39.866 -14.825   2.706  1.00  0.00    -0.048 Br
HETATM    4  C   UNL     1      40.994 -13.347   4.845  1.00  0.00     0.033 A 
HETATM    5  C   UNL     1      41.880 -13.072   5.899  1.00  0.00    -0.012 A 
HETATM    6  C   UNL     1      42.818 -14.058   6.254  1.00  0.00     0.050 A 
HETATM    7  C   UNL     1      42.897 -15.283   5.577  1.00  0.00     0.104 A 
ENDROOT
BRANCH   5   8
HETATM    8  C   UNL     1      41.808 -11.785   6.690  1.00  0.00     0.219 C 
HETATM    9  N   UNL     1      42.835 -11.760   7.698  1.00  0.00    -0.332 N 
HETATM   10  C   UNL     1      42.826 -10.850   8.721  1.00  0.00     0.256 C 
HETATM   11  H   UNL     1      43.753 -12.094   7.444  1.00  0.00     0.165 HD
HETATM   12  O   UNL     1      43.840 -10.552   9.341  1.00  0.00    -0.267 OA
HETATM   13  C   UNL     1      41.520 -10.299   9.042  1.00  0.00     0.073 A 
HETATM   14  C   UNL     1      40.423 -10.730   8.332  1.00  0.00     0.088 A 
HETATM   15  C   UNL     1      41.162  -9.352  10.053  1.00  0.00    -0.023 A 
HETATM   16  S   UNL     1      38.971 -10.043   8.890  1.00  0.00    -0.074 SA
HETATM   17  N   UNL     1      40.508 -11.619   7.319  1.00  0.00    -0.358 N 
HETATM   18  C   UNL     1      39.793  -9.158  10.091  1.00  0.00     0.018 A 
HETATM   19  C   UNL     1      39.081  -8.269  11.051  1.00  0.00     0.281 C 
HETATM   20  N   UNL     1      39.981  -7.882  12.221  1.00  0.00    -0.070 N 
HETATM   21  C   UNL     1      41.383  -7.507  11.746  1.00  0.00     0.239 C 
HETATM   22  H   UNL     1      39.570  -7.033  12.627  1.00  0.00     0.279 HD
HETATM   23  C   UNL     1      39.983  -8.911  13.315  1.00  0.00     0.270 C 
HETATM   24  C   UNL     1      42.084  -8.669  11.018  1.00  0.00     0.068 C 
HETATM   25  H   UNL     1      39.718 -11.722   6.687  1.00  0.00     0.162 HD
ENDBRANCH   5   8
BRANCH   7  26
HETATM   26  O   UNL     1      43.873 -16.105   6.068  1.00  0.00    -0.353 OA
HETATM   27  C   UNL     1      43.622 -16.765   7.301  1.00  0.00     0.210 C 
ENDBRANCH   7  26
BRANCH   1  28
HETATM   28  O   UNL     1      41.994 -16.772   3.879  1.00  0.00    -0.271 OA
BRANCH  28  29
HETATM   29  C   UNL     1      43.083 -16.902   3.033  1.00  0.00     0.298 C 
HETATM   30  O   UNL     1      43.680 -16.002   2.462  1.00  0.00    -0.259 OA
BRANCH  29  31
HETATM   31  C   UNL     1      43.485 -18.332   2.964  1.00  0.00     0.040 A 
HETATM   32  C   UNL     1      44.168 -18.878   4.059  1.00  0.00     0.018 A 
HETATM   33  C   UNL     1      44.546 -20.222   4.054  1.00  0.00     0.007 A 
HETATM   34  C   UNL     1      44.246 -21.039   2.958  1.00  0.00    -0.062 A 
HETATM   35  C   UNL     1      44.673 -22.478   2.940  1.00  0.00     0.048 C 
HETATM   36  C   UNL     1      43.587 -20.485   1.853  1.00  0.00     0.007 A 
HETATM   37  C   UNL     1      43.204 -19.141   1.856  1.00  0.00     0.018 A 
ENDBRANCH  29  31
ENDBRANCH  28  29
ENDBRANCH   1  28
TORSDOF 5
ENDMDL
MODEL 4
REMARK VINA RESULT:      -9.0      1.649      2.379
REMARK  5 active torsions:
REMARK  status: ('A' for Active; 'I' for Inactive)
REMARK    1  A    between atoms: C_5  and  C_6 
REMARK    2  A    between atoms: C_6  and  O_7 
REMARK    3  A    between atoms: O_7  and  C_8 
REMARK    4  A    between atoms: C_12  and  C_13 
REMARK    5  A    between atoms: C_30  and  O_31 
ROOT
HETATM    1  C   UNL     1      42.605 -15.991   3.728  1.00  0.00     0.130 A 
HETATM    2  C   UNL     1      42.652 -16.248   5.108  1.00  0.00     0.048 A 
HETATM    3 BR   UNL     1      42.424 -17.997   5.813  1.00  0.00    -0.048 Br
HETATM    4  C   UNL     1      42.860 -15.204   6.013  1.00  0.00     0.033 A 
HETATM    5  C   UNL     1      42.987 -13.882   5.560  1.00  0.00    -0.012 A 
HETATM    6  C   UNL     1      42.913 -13.642   4.176  1.00  0.00     0.050 A 
HETATM    7  C   UNL     1      42.700 -14.677   3.255  1.00  0.00     0.104 A 
ENDROOT
BRANCH   5   8
HETATM    8  C   UNL     1      43.262 -12.734   6.506  1.00  0.00     0.219 C 
HETATM    9  N   UNL     1      43.912 -13.212   7.697  1.00  0.00    -0.332 N 
HETATM   10  C   UNL     1      44.025 -12.440   8.823  1.00  0.00     0.256 C 
HETATM   11  H   UNL     1      44.637 -13.907   7.593  1.00  0.00     0.165 HD
HETATM   12  O   UNL     1      44.876 -12.652   9.678  1.00  0.00    -0.267 OA
HETATM   13  C   UNL     1      43.036 -11.383   8.944  1.00  0.00     0.073 A 
HETATM   14  C   UNL     1      42.079 -11.250   7.964  1.00  0.00     0.088 A 
HETATM   15  C   UNL     1      42.863 -10.422   9.990  1.00  0.00    -0.023 A 
HETATM   16  S   UNL     1      40.960 -10.017   8.304  1.00  0.00    -0.074 SA
HETATM   17  N   UNL     1      42.039 -12.037   6.868  1.00  0.00    -0.358 N 
HETATM   18  C   UNL     1      41.741  -9.643   9.771  1.00  0.00     0.018 A 
HETATM   19  C   UNL     1      41.248  -8.576  10.686  1.00  0.00     0.281 C 
HETATM   20  N   UNL     1      41.897  -8.682  12.063  1.00  0.00    -0.070 N 
HETATM   21  C   UNL     1      43.398  -8.946  11.954  1.00  0.00     0.239 C 
HETATM   22  H   UNL     1      41.791  -7.758  12.498  1.00  0.00     0.279 HD
HETATM   23  C   UNL     1      41.190  -9.654  12.963  1.00  0.00     0.270 C 
HETATM   24  C   UNL     1      43.707 -10.264  11.220  1.00  0.00     0.068 C 
HETATM   25  H   UNL     1      41.468 -11.751   6.076  1.00  0.00     0.162 HD
ENDBRANCH   5   8
BRANCH   7  26
HETATM   26  O   UNL     1      42.656 -14.243   1.960  1.00  0.00    -0.353 OA
HETATM   27  C   UNL     1      42.130 -12.946   1.716  1.00  0.00     0.210 C 
ENDBRANCH   7  26
BRANCH   1  28
HETATM   28  O   UNL     1      42.443 -17.060   2.844  1.00  0.00    -0.271 OA
BRANCH  28  29
HETATM   29  C   UNL     1      43.640 -17.454   2.270  1.00  0.00     0.298 C 
HETATM   30  O   UNL     1      44.388 -16.770   1.588  1.00  0.00    -0.259 OA
BRANCH  29  31
HETATM   31  C   UNL     1      43.938 -18.857   2.666  1.00  0.00     0.040 A 
HETATM   32  C   UNL     1      43.427 -19.889   1.868  1.00  0.00     0.018 A 
HETATM   33  C   UNL     1      43.698 -21.223   2.181  1.00  0.00     0.007 A 
HETATM   34  C   UNL     1      44.483 -21.543   3.295  1.00  0.00    -0.062 A 
HETATM   35  C   UNL     1      44.755 -22.976   3.649  1.00  0.00     0.048 C 
HETATM   36  C   UNL     1      44.970 -20.511   4.107  1.00  0.00     0.007 A 
HETATM   37  C   UNL     1      44.704 -19.175   3.793  1.00  0.00     0.018 A 
ENDBRANCH  29  31
ENDBRANCH  28  29
ENDBRANCH   1  28
TORSDOF 5
ENDMDL
MODEL 5
REMARK VINA RESULT:      -8.6      6.116      7.401
REMARK  5 active torsions:
REMARK  status: ('A' for Active; 'I' for Inactive)
REMARK    1  A    between atoms: C_5  and  C_6 
REMARK    2  A    between atoms: C_6  and  O_7 
REMARK    3  A    between atoms: O_7  and  C_8 
REMARK    4  A    between atoms: C_12  and  C_13 
REMARK    5  A    between atoms: C_30  and  O_31 
ROOT
HETATM    1  C   UNL     1      41.426 -16.746   2.038  1.00  0.00     0.130 A 
HETATM    2  C   UNL     1      41.085 -16.262   3.311  1.00  0.00     0.048 A 
HETATM    3 BR   UNL     1      41.274 -17.324   4.875  1.00  0.00    -0.048 Br
HETATM    4  C   UNL     1      40.581 -14.968   3.462  1.00  0.00     0.033 A 
HETATM    5  C   UNL     1      40.371 -14.149   2.341  1.00  0.00    -0.012 A 
HETATM    6  C   UNL     1      40.695 -14.661   1.073  1.00  0.00     0.050 A 
HETATM    7  C   UNL     1      41.199 -15.958   0.904  1.00  0.00     0.104 A 
ENDROOT
BRANCH   5   8
HETATM    8  C   UNL     1      39.873 -12.727   2.471  1.00  0.00     0.219 C 
HETATM    9  N   UNL     1      39.468 -12.460   3.826  1.00  0.00    -0.332 N 
HETATM   10  C   UNL     1      38.730 -11.355   4.160  1.00  0.00     0.256 C 
HETATM   11  H   UNL     1      40.050 -12.814   4.571  1.00  0.00     0.165 HD
HETATM   12  O   UNL     1      38.705 -10.905   5.299  1.00  0.00    -0.267 OA
HETATM   13  C   UNL     1      37.950 -10.787   3.073  1.00  0.00     0.073 A 
HETATM   14  C   UNL     1      37.992 -11.389   1.837  1.00  0.00     0.088 A 
HETATM   15  C   UNL     1      37.070  -9.659   3.086  1.00  0.00    -0.023 A 
HETATM   16  S   UNL     1      36.963 -10.642   0.709  1.00  0.00    -0.074 SA
HETATM   17  N   UNL     1      38.759 -12.468   1.573  1.00  0.00    -0.358 N 
HETATM   18  C   UNL     1      36.445  -9.500   1.862  1.00  0.00     0.018 A 
HETATM   19  C   UNL     1      35.437  -8.450   1.546  1.00  0.00     0.281 C 
HETATM   20  N   UNL     1      34.896  -7.800   2.816  1.00  0.00    -0.070 N 
HETATM   21  C   UNL     1      36.017  -7.493   3.807  1.00  0.00     0.239 C 
HETATM   22  H   UNL     1      34.503  -6.896   2.526  1.00  0.00     0.279 HD
HETATM   23  C   UNL     1      33.763  -8.575   3.425  1.00  0.00     0.270 C 
HETATM   24  C   UNL     1      36.768  -8.761   4.249  1.00  0.00     0.068 C 
HETATM   25  H   UNL     1      38.932 -12.725   0.604  1.00  0.00     0.162 HD
ENDBRANCH   5   8
BRANCH   7  26
HETATM   26  O   UNL     1      41.449 -16.272  -0.403  1.00  0.00    -0.353 OA
HETATM   27  C   UNL     1      40.990 -15.368  -1.398  1.00  0.00     0.210 C 
ENDBRANCH   7  26
BRANCH   1  28
HETATM   28  O   UNL     1      41.973 -18.026   1.923  1.00  0.00    -0.271 OA
BRANCH  28  29
HETATM   29  C   UNL     1      43.357 -18.012   1.957  1.00  0.00     0.298 C 
HETATM   30  O   UNL     1      44.095 -17.180   1.451  1.00  0.00    -0.259 OA
BRANCH  29  31
HETATM   31  C   UNL     1      43.842 -19.153   2.779  1.00  0.00     0.040 A 
HETATM   32  C   UNL     1      43.871 -20.423   2.189  1.00  0.00     0.018 A 
HETATM   33  C   UNL     1      44.340 -21.524   2.910  1.00  0.00     0.007 A 
HETATM   34  C   UNL     1      44.788 -21.370   4.227  1.00  0.00    -0.062 A 
HETATM   35  C   UNL     1      45.269 -22.555   5.012  1.00  0.00     0.048 C 
HETATM   36  C   UNL     1      44.733 -20.104   4.823  1.00  0.00     0.007 A 
HETATM   37  C   UNL     1      44.268 -19.000   4.104  1.00  0.00     0.018 A 
ENDBRANCH  29  31
ENDBRANCH  28  29
ENDBRANCH   1  28
TORSDOF 5
ENDMDL
MODEL 6
REMARK VINA RESULT:      -8.6      2.388      3.418
REMARK  5 active torsions:
REMARK  status: ('A' for Active; 'I' for Inactive)
REMARK    1  A    between atoms: C_5  and  C_6 
REMARK    2  A    between atoms: C_6  and  O_7 
REMARK    3  A    between atoms: O_7  and  C_8 
REMARK    4  A    between atoms: C_12  and  C_13 
REMARK    5  A    between atoms: C_30  and  O_31 
ROOT
HETATM    1  C   UNL     1      40.219 -14.144   3.900  1.00  0.00     0.130 A 
HETATM    2  C   UNL     1      40.808 -14.569   5.101  1.00  0.00     0.048 A 
HETATM    3 BR   UNL     1      41.254 -16.388   5.414  1.00  0.00    -0.048 Br
HETATM    4  C   UNL     1      41.075 -13.650   6.119  1.00  0.00     0.033 A 
HETATM    5  C   UNL     1      40.725 -12.298   5.970  1.00  0.00    -0.012 A 
HETATM    6  C   UNL     1      40.114 -11.897   4.769  1.00  0.00     0.050 A 
HETATM    7  C   UNL     1      39.835 -12.807   3.740  1.00  0.00     0.104 A 
ENDROOT
BRANCH   5   8
HETATM    8  C   UNL     1      41.044 -11.268   7.030  1.00  0.00     0.219 C 
HETATM    9  N   UNL     1      42.356 -11.497   7.574  1.00  0.00    -0.332 N 
HETATM   10  C   UNL     1      42.782 -10.890   8.725  1.00  0.00     0.256 C 
HETATM   11  H   UNL     1      43.096 -11.742   6.933  1.00  0.00     0.165 HD
HETATM   12  O   UNL     1      43.970 -10.755   8.993  1.00  0.00    -0.267 OA
HETATM   13  C   UNL     1      41.722 -10.458   9.620  1.00  0.00     0.073 A 
HETATM   14  C   UNL     1      40.413 -10.699   9.268  1.00  0.00     0.088 A 
HETATM   15  C   UNL     1      41.820  -9.816  10.895  1.00  0.00    -0.023 A 
HETATM   16  S   UNL     1      39.311 -10.200  10.462  1.00  0.00    -0.074 SA
HETATM   17  N   UNL     1      40.064 -11.287   8.104  1.00  0.00    -0.358 N 
HETATM   18  C   UNL     1      40.572  -9.654  11.469  1.00  0.00     0.018 A 
HETATM   19  C   UNL     1      40.318  -9.059  12.811  1.00  0.00     0.281 C 
HETATM   20  N   UNL     1      41.599  -8.985  13.637  1.00  0.00    -0.070 N 
HETATM   21  C   UNL     1      42.774  -8.482  12.801  1.00  0.00     0.239 C 
HETATM   22  H   UNL     1      41.429  -8.278  14.362  1.00  0.00     0.279 HD
HETATM   23  C   UNL     1      41.896 -10.267  14.362  1.00  0.00     0.270 C 
HETATM   24  C   UNL     1      43.075  -9.402  11.604  1.00  0.00     0.068 C 
HETATM   25  H   UNL     1      39.098 -11.229   7.793  1.00  0.00     0.162 HD
ENDBRANCH   5   8
BRANCH   7  26
HETATM   26  O   UNL     1      39.238 -12.226   2.657  1.00  0.00    -0.353 OA
HETATM   27  C   UNL     1      39.807 -11.026   2.153  1.00  0.00     0.210 C 
ENDBRANCH   7  26
BRANCH   1  28
HETATM   28  O   UNL     1      40.007 -15.076   2.881  1.00  0.00    -0.271 OA
BRANCH  28  29
HETATM   29  C   UNL     1      40.986 -15.019   1.903  1.00  0.00     0.298 C 
HETATM   30  O   UNL     1      41.175 -14.113   1.106  1.00  0.00    -0.259 OA
BRANCH  29  31
HETATM   31  C   UNL     1      41.851 -16.225   2.002  1.00  0.00     0.040 A 
HETATM   32  C   UNL     1      41.267 -17.476   1.766  1.00  0.00     0.018 A 
HETATM   33  C   UNL     1      42.041 -18.637   1.822  1.00  0.00     0.007 A 
HETATM   34  C   UNL     1      43.408 -18.564   2.113  1.00  0.00    -0.062 A 
HETATM   35  C   UNL     1      44.237 -19.813   2.198  1.00  0.00     0.048 C 
HETATM   36  C   UNL     1      43.985 -17.316   2.376  1.00  0.00     0.007 A 
HETATM   37  C   UNL     1      43.214 -16.151   2.316  1.00  0.00     0.018 A 
ENDBRANCH  29  31
ENDBRANCH  28  29
ENDBRANCH   1  28
TORSDOF 5
ENDMDL
MODEL 7
REMARK VINA RESULT:      -8.5      1.977      3.154
REMARK  5 active torsions:
REMARK  status: ('A' for Active; 'I' for Inactive)
REMARK    1  A    between atoms: C_5  and  C_6 
REMARK    2  A    between atoms: C_6  and  O_7 
REMARK    3  A    between atoms: O_7  and  C_8 
REMARK    4  A    between atoms: C_12  and  C_13 
REMARK    5  A    between atoms: C_30  and  O_31 
ROOT
HETATM    1  C   UNL     1      43.541 -15.819   5.091  1.00  0.00     0.130 A 
HETATM    2  C   UNL     1      43.519 -14.476   4.681  1.00  0.00     0.048 A 
HETATM    3 BR   UNL     1      43.247 -13.984   2.866  1.00  0.00    -0.048 Br
HETATM    4  C   UNL     1      43.712 -13.452   5.610  1.00  0.00     0.033 A 
HETATM    5  C   UNL     1      43.967 -13.750   6.958  1.00  0.00    -0.012 A 
HETATM    6  C   UNL     1      44.009 -15.101   7.345  1.00  0.00     0.050 A 
HETATM    7  C   UNL     1      43.822 -16.141   6.424  1.00  0.00     0.104 A 
ENDROOT
BRANCH   5   8
HETATM    8  C   UNL     1      44.132 -12.666   8.000  1.00  0.00     0.219 C 
HETATM    9  N   UNL     1      44.343 -13.248   9.299  1.00  0.00    -0.332 N 
HETATM   10  C   UNL     1      44.249 -12.512  10.450  1.00  0.00     0.256 C 
HETATM   11  H   UNL     1      44.957 -14.048   9.364  1.00  0.00     0.165 HD
HETATM   12  O   UNL     1      44.785 -12.860  11.495  1.00  0.00    -0.267 OA
HETATM   13  C   UNL     1      43.434 -11.314  10.347  1.00  0.00     0.073 A 
HETATM   14  C   UNL     1      42.821 -11.026   9.149  1.00  0.00     0.088 A 
HETATM   15  C   UNL     1      43.119 -10.346  11.352  1.00  0.00    -0.023 A 
HETATM   16  S   UNL     1      41.847  -9.635   9.229  1.00  0.00    -0.074 SA
HETATM   17  N   UNL     1      42.974 -11.789   8.046  1.00  0.00    -0.358 N 
HETATM   18  C   UNL     1      42.232  -9.399  10.872  1.00  0.00     0.018 A 
HETATM   19  C   UNL     1      41.666  -8.275  11.668  1.00  0.00     0.281 C 
HETATM   20  N   UNL     1      41.879  -8.491  13.163  1.00  0.00    -0.070 N 
HETATM   21  C   UNL     1      43.294  -8.986  13.460  1.00  0.00     0.239 C 
HETATM   22  H   UNL     1      41.794  -7.565  13.599  1.00  0.00     0.279 HD
HETATM   23  C   UNL     1      40.812  -9.347  13.783  1.00  0.00     0.270 C 
HETATM   24  C   UNL     1      43.598 -10.330  12.773  1.00  0.00     0.068 C 
HETATM   25  H   UNL     1      42.697 -11.411   7.143  1.00  0.00     0.162 HD
ENDBRANCH   5   8
BRANCH   7  26
HETATM   26  O   UNL     1      43.902 -17.382   6.992  1.00  0.00    -0.353 OA
HETATM   27  C   UNL     1      45.095 -18.126   6.787  1.00  0.00     0.210 C 
ENDBRANCH   7  26
BRANCH   1  28
HETATM   28  O   UNL     1      43.298 -16.821   4.149  1.00  0.00    -0.271 OA
BRANCH  28  29
HETATM   29  C   UNL     1      41.999 -17.299   4.211  1.00  0.00     0.298 C 
HETATM   30  O   UNL     1      41.567 -18.154   4.969  1.00  0.00    -0.259 OA
BRANCH  29  31
HETATM   31  C   UNL     1      41.153 -16.555   3.240  1.00  0.00     0.040 A 
HETATM   32  C   UNL     1      40.270 -15.590   3.740  1.00  0.00     0.018 A 
HETATM   33  C   UNL     1      39.471 -14.846   2.868  1.00  0.00     0.007 A 
HETATM   34  C   UNL     1      39.546 -15.056   1.486  1.00  0.00    -0.062 A 
HETATM   35  C   UNL     1      38.671 -14.276   0.549  1.00  0.00     0.048 C 
HETATM   36  C   UNL     1      40.410 -16.040   0.990  1.00  0.00     0.007 A 
HETATM   37  C   UNL     1      41.214 -16.783   1.859  1.00  0.00     0.018 A 
ENDBRANCH  29  31
ENDBRANCH  28  29
ENDBRANCH   1  28
TORSDOF 5
ENDMDL
MODEL 8
REMARK VINA RESULT:      -8.5      5.399      6.855
REMARK  5 active torsions:
REMARK  status: ('A' for Active; 'I' for Inactive)
REMARK    1  A    between atoms: C_5  and  C_6 
REMARK    2  A    between atoms: C_6  and  O_7 
REMARK    3  A    between atoms: O_7  and  C_8 
REMARK    4  A    between atoms: C_12  and  C_13 
REMARK    5  A    between atoms: C_30  and  O_31 
ROOT
HETATM    1  C   UNL     1      42.666 -14.893   2.944  1.00  0.00     0.130 A 
HETATM    2  C   UNL     1      41.538 -14.819   2.111  1.00  0.00     0.048 A 
HETATM    3 BR   UNL     1      41.061 -16.233   0.935  1.00  0.00    -0.048 Br
HETATM    4  C   UNL     1      40.729 -13.680   2.119  1.00  0.00     0.033 A 
HETATM    5  C   UNL     1      41.054 -12.580   2.929  1.00  0.00    -0.012 A 
HETATM    6  C   UNL     1      42.201 -12.664   3.737  1.00  0.00     0.050 A 
HETATM    7  C   UNL     1      43.025 -13.798   3.739  1.00  0.00     0.104 A 
ENDROOT
BRANCH   5   8
HETATM    8  C   UNL     1      40.175 -11.350   2.999  1.00  0.00     0.219 C 
HETATM    9  N   UNL     1      39.801 -11.079   4.362  1.00  0.00    -0.332 N 
HETATM   10  C   UNL     1      38.800 -10.200   4.680  1.00  0.00     0.256 C 
HETATM   11  H   UNL     1      40.509 -11.182   5.075  1.00  0.00     0.165 HD
HETATM   12  O   UNL     1      38.722  -9.668   5.780  1.00  0.00    -0.267 OA
HETATM   13  C   UNL     1      37.819  -9.982   3.630  1.00  0.00     0.073 A 
HETATM   14  C   UNL     1      37.951 -10.665   2.442  1.00  0.00     0.088 A 
HETATM   15  C   UNL     1      36.654  -9.152   3.641  1.00  0.00    -0.023 A 
HETATM   16  S   UNL     1      36.677 -10.350   1.361  1.00  0.00    -0.074 SA
HETATM   17  N   UNL     1      38.978 -11.504   2.190  1.00  0.00    -0.358 N 
HETATM   18  C   UNL     1      35.930  -9.294   2.470  1.00  0.00     0.018 A 
HETATM   19  C   UNL     1      34.643  -8.606   2.171  1.00  0.00     0.281 C 
HETATM   20  N   UNL     1      34.023  -8.016   3.434  1.00  0.00    -0.070 N 
HETATM   21  C   UNL     1      35.070  -7.312   4.294  1.00  0.00     0.239 C 
HETATM   22  H   UNL     1      33.368  -7.292   3.116  1.00  0.00     0.279 HD
HETATM   23  C   UNL     1      33.205  -9.016   4.199  1.00  0.00     0.270 C 
HETATM   24  C   UNL     1      36.184  -8.268   4.757  1.00  0.00     0.068 C 
HETATM   25  H   UNL     1      39.153 -11.793   1.231  1.00  0.00     0.162 HD
ENDBRANCH   5   8
BRANCH   7  26
HETATM   26  O   UNL     1      44.090 -13.687   4.587  1.00  0.00    -0.353 OA
HETATM   27  C   UNL     1      43.887 -14.027   5.952  1.00  0.00     0.210 C 
ENDBRANCH   7  26
BRANCH   1  28
HETATM   28  O   UNL     1      43.429 -16.063   2.951  1.00  0.00    -0.271 OA
BRANCH  28  29
HETATM   29  C   UNL     1      42.946 -17.001   3.848  1.00  0.00     0.298 C 
HETATM   30  O   UNL     1      42.206 -16.795   4.798  1.00  0.00    -0.259 OA
BRANCH  29  31
HETATM   31  C   UNL     1      43.414 -18.355   3.446  1.00  0.00     0.040 A 
HETATM   32  C   UNL     1      42.960 -18.873   2.227  1.00  0.00     0.018 A 
HETATM   33  C   UNL     1      43.388 -20.129   1.791  1.00  0.00     0.007 A 
HETATM   34  C   UNL     1      44.277 -20.882   2.566  1.00  0.00    -0.062 A 
HETATM   35  C   UNL     1      44.720 -22.242   2.113  1.00  0.00     0.048 C 
HETATM   36  C   UNL     1      44.709 -20.374   3.798  1.00  0.00     0.007 A 
HETATM   37  C   UNL     1      44.286 -19.115   4.235  1.00  0.00     0.018 A 
ENDBRANCH  29  31
ENDBRANCH  28  29
ENDBRANCH   1  28
TORSDOF 5
ENDMDL
MODEL 9
REMARK VINA RESULT:      -8.5      6.959     10.215
REMARK  5 active torsions:
REMARK  status: ('A' for Active; 'I' for Inactive)
REMARK    1  A    between atoms: C_5  and  C_6 
REMARK    2  A    between atoms: C_6  and  O_7 
REMARK    3  A    between atoms: O_7  and  C_8 
REMARK    4  A    between atoms: C_12  and  C_13 
REMARK    5  A    between atoms: C_30  and  O_31 
ROOT
HETATM    1  C   UNL     1      40.978 -16.282   3.467  1.00  0.00     0.130 A 
HETATM    2  C   UNL     1      40.365 -15.135   3.996  1.00  0.00     0.048 A 
HETATM    3 BR   UNL     1      40.236 -14.838   5.868  1.00  0.00    -0.048 Br
HETATM    4  C   UNL     1      39.814 -14.174   3.146  1.00  0.00     0.033 A 
HETATM    5  C   UNL     1      39.833 -14.357   1.755  1.00  0.00    -0.012 A 
HETATM    6  C   UNL     1      40.430 -15.523   1.244  1.00  0.00     0.050 A 
HETATM    7  C   UNL     1      40.983 -16.500   2.084  1.00  0.00     0.104 A 
ENDROOT
BRANCH   5   8
HETATM    8  C   UNL     1      39.290 -13.315   0.802  1.00  0.00     0.219 C 
HETATM    9  N   UNL     1      38.007 -12.845   1.253  1.00  0.00    -0.332 N 
HETATM   10  C   UNL     1      37.177 -12.112   0.447  1.00  0.00     0.256 C 
HETATM   11  H   UNL     1      37.887 -12.674   2.241  1.00  0.00     0.165 HD
HETATM   12  O   UNL     1      36.295 -11.391   0.898  1.00  0.00    -0.267 OA
HETATM   13  C   UNL     1      37.394 -12.288  -0.980  1.00  0.00     0.073 A 
HETATM   14  C   UNL     1      38.370 -13.162  -1.402  1.00  0.00     0.088 A 
HETATM   15  C   UNL     1      36.699 -11.693  -2.080  1.00  0.00    -0.023 A 
HETATM   16  S   UNL     1      38.434 -13.303  -3.095  1.00  0.00    -0.074 SA
HETATM   17  N   UNL     1      39.167 -13.839  -0.548  1.00  0.00    -0.358 N 
HETATM   18  C   UNL     1      37.154 -12.196  -3.286  1.00  0.00     0.018 A 
HETATM   19  C   UNL     1      36.618 -11.822  -4.625  1.00  0.00     0.281 C 
HETATM   20  N   UNL     1      35.274 -11.109  -4.505  1.00  0.00    -0.070 N 
HETATM   21  C   UNL     1      35.291 -10.071  -3.385  1.00  0.00     0.239 C 
HETATM   22  H   UNL     1      35.149 -10.592  -5.384  1.00  0.00     0.279 HD
HETATM   23  C   UNL     1      34.118 -12.063  -4.411  1.00  0.00     0.270 C 
HETATM   24  C   UNL     1      35.577 -10.701  -2.010  1.00  0.00     0.068 C 
HETATM   25  H   UNL     1      40.010 -14.280  -0.906  1.00  0.00     0.162 HD
ENDBRANCH   5   8
BRANCH   7  26
HETATM   26  O   UNL     1      41.512 -17.558   1.401  1.00  0.00    -0.353 OA
HETATM   27  C   UNL     1      42.722 -17.345   0.685  1.00  0.00     0.210 C 
ENDBRANCH   7  26
BRANCH   1  28
HETATM   28  O   UNL     1      41.563 -17.204   4.339  1.00  0.00    -0.271 OA
BRANCH  28  29
HETATM   29  C   UNL     1      42.941 -17.077   4.392  1.00  0.00     0.298 C 
HETATM   30  O   UNL     1      43.584 -16.039   4.367  1.00  0.00    -0.259 OA
BRANCH  29  31
HETATM   31  C   UNL     1      43.553 -18.423   4.556  1.00  0.00     0.040 A 
HETATM   32  C   UNL     1      43.542 -18.999   5.832  1.00  0.00     0.018 A 
HETATM   33  C   UNL     1      44.082 -20.272   6.036  1.00  0.00     0.007 A 
HETATM   34  C   UNL     1      44.637 -20.985   4.967  1.00  0.00    -0.062 A 
HETATM   35  C   UNL     1      45.240 -22.341   5.187  1.00  0.00     0.048 C 
HETATM   36  C   UNL     1      44.672 -20.395   3.697  1.00  0.00     0.007 A 
HETATM   37  C   UNL     1      44.129 -19.124   3.490  1.00  0.00     0.018 A 
ENDBRANCH  29  31
ENDBRANCH  28  29
ENDBRANCH   1  28
TORSDOF 5
ENDMDL
MODEL 10
REMARK VINA RESULT:      -8.3      6.652     10.017
REMARK  5 active torsions:
REMARK  status: ('A' for Active; 'I' for Inactive)
REMARK    1  A    between atoms: C_5  and  C_6 
REMARK    2  A    between atoms: C_6  and  O_7 
REMARK    3  A    between atoms: O_7  and  C_8 
REMARK    4  A    between atoms: C_12  and  C_13 
REMARK    5  A    between atoms: C_30  and  O_31 
ROOT
HETATM    1  C   UNL     1      40.991 -16.317   3.629  1.00  0.00     0.130 A 
HETATM    2  C   UNL     1      40.353 -15.156   4.094  1.00  0.00     0.048 A 
HETATM    3 BR   UNL     1      40.234 -14.747   5.945  1.00  0.00    -0.048 Br
HETATM    4  C   UNL     1      39.770 -14.263   3.192  1.00  0.00     0.033 A 
HETATM    5  C   UNL     1      39.780 -14.532   1.814  1.00  0.00    -0.012 A 
HETATM    6  C   UNL     1      40.403 -15.712   1.370  1.00  0.00     0.050 A 
HETATM    7  C   UNL     1      40.989 -16.620   2.262  1.00  0.00     0.104 A 
ENDROOT
BRANCH   5   8
HETATM    8  C   UNL     1      39.202 -13.564   0.805  1.00  0.00     0.219 C 
HETATM    9  N   UNL     1      38.777 -14.267  -0.376  1.00  0.00    -0.332 N 
HETATM   10  C   UNL     1      38.475 -13.614  -1.541  1.00  0.00     0.256 C 
HETATM   11  H   UNL     1      38.298 -15.148  -0.254  1.00  0.00     0.165 HD
HETATM   12  O   UNL     1      37.764 -14.113  -2.406  1.00  0.00    -0.267 OA
HETATM   13  C   UNL     1      39.094 -12.308  -1.692  1.00  0.00     0.073 A 
HETATM   14  C   UNL     1      39.926 -11.847  -0.697  1.00  0.00     0.088 A 
HETATM   15  C   UNL     1      39.003 -11.385  -2.780  1.00  0.00    -0.023 A 
HETATM   16  S   UNL     1      40.623 -10.343  -1.072  1.00  0.00    -0.074 SA
HETATM   17  N   UNL     1      40.164 -12.538   0.438  1.00  0.00    -0.358 N 
HETATM   18  C   UNL     1      39.821 -10.288  -2.573  1.00  0.00     0.018 A 
HETATM   19  C   UNL     1      39.996  -9.159  -3.529  1.00  0.00     0.281 C 
HETATM   20  N   UNL     1      39.465  -9.516  -4.914  1.00  0.00    -0.070 N 
HETATM   21  C   UNL     1      38.115 -10.227  -4.828  1.00  0.00     0.239 C 
HETATM   22  H   UNL     1      39.298  -8.623  -5.392  1.00  0.00     0.279 HD
HETATM   23  C   UNL     1      40.471 -10.257  -5.747  1.00  0.00     0.270 C 
HETATM   24  C   UNL     1      38.199 -11.544  -4.036  1.00  0.00     0.068 C 
HETATM   25  H   UNL     1      40.588 -12.058   1.228  1.00  0.00     0.162 HD
ENDBRANCH   5   8
BRANCH   7  26
HETATM   26  O   UNL     1      41.539 -17.706   1.640  1.00  0.00    -0.353 OA
HETATM   27  C   UNL     1      42.665 -17.485   0.800  1.00  0.00     0.210 C 
ENDBRANCH   7  26
BRANCH   1  28
HETATM   28  O   UNL     1      41.607 -17.169   4.550  1.00  0.00    -0.271 OA
BRANCH  28  29
HETATM   29  C   UNL     1      42.987 -17.059   4.526  1.00  0.00     0.298 C 
HETATM   30  O   UNL     1      43.641 -16.028   4.475  1.00  0.00    -0.259 OA
BRANCH  29  31
HETATM   31  C   UNL     1      43.591 -18.413   4.643  1.00  0.00     0.040 A 
HETATM   32  C   UNL     1      43.607 -19.020   5.905  1.00  0.00     0.018 A 
HETATM   33  C   UNL     1      44.140 -20.302   6.064  1.00  0.00     0.007 A 
HETATM   34  C   UNL     1      44.663 -20.993   4.965  1.00  0.00    -0.062 A 
HETATM   35  C   UNL     1      45.259 -22.359   5.138  1.00  0.00     0.048 C 
HETATM   36  C   UNL     1      44.671 -20.373   3.709  1.00  0.00     0.007 A 
HETATM   37  C   UNL     1      44.134 -19.093   3.546  1.00  0.00     0.018 A 
ENDBRANCH  29  31
ENDBRANCH  28  29
ENDBRANCH   1  28
TORSDOF 5
ENDMDL
