MODEL 1
REMARK VINA RESULT:      -8.6      0.000      0.000
REMARK  7 active torsions:
REMARK  status: ('A' for Active; 'I' for Inactive)
REMARK    1  A    between atoms: C_3  and  N_4 
REMARK       I    between atoms: N_4  and  C_5 
REMARK    2  A    between atoms: C_5  and  C_6 
REMARK    3  A    between atoms: C_6  and  C_14 
REMARK    4  A    between atoms: C_8  and  C_9 
REMARK    5  A    between atoms: C_9  and  O_15 
REMARK    6  A    between atoms: C_10  and  O_17 
REMARK    7  A    between atoms: C_22  and  N_23 
REMARK       I    between atoms: N_23  and  C_24 
REMARK       I    between atoms: C_24  and  N_25 
ROOT
HETATM    1  C           1      40.059 -15.405   1.361  0.00  0.00     0.016 C 
HETATM    2  C           1      41.795 -13.825   0.254  0.00  0.00     0.012 C 
HETATM    3  C           1      41.381 -15.301   0.571  0.00  0.00    -0.030 C 
HETATM    4  C           1      41.077 -13.070  -0.918  0.00  0.00     0.008 C 
HETATM    5  C           1      41.023 -14.006  -2.142  0.00  0.00     0.128 C 
HETATM    6  C           1      41.250 -16.087  -0.758  0.00  0.00     0.013 C 
HETATM    7  C           1      42.837 -15.067   2.613  0.00  0.00     0.056 A 
HETATM    8  C           1      42.521 -15.950   1.433  0.00  0.00     0.056 C 
HETATM    9  C           1      41.939 -11.837  -1.312  0.00  0.00     0.020 C 
HETATM   10  C           1      40.424 -15.370  -1.828  0.00  0.00     0.033 C 
HETATM   11  C           1      41.940 -12.984   1.541  0.00  0.00     0.055 C 
HETATM   12  C           1      42.596 -13.752   2.650  0.00  0.00     0.012 A 
HETATM   13  N           1      43.332 -15.480   3.700  0.00  0.00    -0.227 NA
HETATM   14  C           1      43.452 -14.493   4.482  0.00  0.00     0.175 A 
HETATM   15  S           1      43.006 -13.206   3.946  0.00  0.00    -0.055 SA
ENDROOT
BRANCH  14  16
HETATM   16  N           1      43.899 -14.481   5.751  0.00  0.00    -0.287 N 
HETATM   17  C           1      43.849 -15.355   6.799  0.00  0.00     0.324 C 
HETATM   18  O           1      44.005 -14.869   7.889  0.00  0.00    -0.247 OA
HETATM   19  N           1      43.581 -16.697   6.683  0.00  0.00    -0.330 N 
HETATM   20  C           1      44.041 -17.528   5.580  0.00  0.00     0.153 C 
HETATM   21  C           1      42.961 -17.475   7.751  0.00  0.00     0.153 C 
HETATM   22  C           1      44.934 -18.647   6.114  0.00  0.00     0.187 C 
HETATM   23  O           1      44.264 -19.389   7.102  0.00  0.00    -0.388 OA
HETATM   24  C           1      43.907 -18.585   8.197  0.00  0.00     0.187 C 
HETATM   25  H           1      44.289 -13.580   5.990  0.00  0.00     0.172 HD
ENDBRANCH  14  16
BRANCH   8  26
HETATM   26  C           1      42.311 -17.422   1.849  0.00  0.00     0.114 C 
BRANCH  26  27
HETATM   27  C           1      43.564 -18.293   1.868  0.00  0.00     0.218 C 
HETATM   28  N           1      43.328 -19.571   2.302  0.00  0.00    -0.357 N 
HETATM   29  H           1      42.382 -19.781   2.621  0.00  0.00     0.162 HD
HETATM   30  O           1      44.639 -17.878   1.514  0.00  0.00    -0.274 OA
BRANCH  28  31
HETATM   31  C           1      44.320 -20.654   2.410  0.00  0.00     0.076 C 
HETATM   32  C           1      43.939 -21.800   1.460  0.00  0.00     0.032 C 
HETATM   33  C           1      44.665 -21.205   3.802  0.00  0.00     0.032 C 
ENDBRANCH  28  31
ENDBRANCH  26  27
ENDBRANCH   8  26
BRANCH   4  34
HETATM   34  C           1      39.672 -12.547  -0.560  0.00  0.00     0.176 C 
BRANCH  34  35
HETATM   35  O           1      39.332 -11.397  -1.314  0.00  0.00    -0.400 OA
HETATM   36  H           1      39.253 -11.625  -2.241  0.00  0.00     0.209 HD
ENDBRANCH  34  35
ENDBRANCH   4  34
BRANCH   5  37
HETATM   37  O           1      40.277 -13.430  -3.188  0.00  0.00    -0.395 OA
HETATM   38  H           1      40.786 -12.740  -3.616  0.00  0.00     0.210 HD
ENDBRANCH   5  37
TORSDOF 7
ENDMDL
MODEL 2
REMARK VINA RESULT:      -8.4      3.084      8.817
REMARK  7 active torsions:
REMARK  status: ('A' for Active; 'I' for Inactive)
REMARK    1  A    between atoms: C_3  and  N_4 
REMARK       I    between atoms: N_4  and  C_5 
REMARK    2  A    between atoms: C_5  and  C_6 
REMARK    3  A    between atoms: C_6  and  C_14 
REMARK    4  A    between atoms: C_8  and  C_9 
REMARK    5  A    between atoms: C_9  and  O_15 
REMARK    6  A    between atoms: C_10  and  O_17 
REMARK    7  A    between atoms: C_22  and  N_23 
REMARK       I    between atoms: N_23  and  C_24 
REMARK       I    between atoms: C_24  and  N_25 
ROOT
HETATM    1  C           1      40.703 -16.611   6.233  0.00  0.00     0.016 C 
HETATM    2  C           1      42.784 -16.926   4.715  0.00  0.00     0.012 C 
HETATM    3  C           1      41.974 -15.961   5.645  0.00  0.00    -0.030 C 
HETATM    4  C           1      43.693 -18.025   5.367  0.00  0.00     0.008 C 
HETATM    5  C           1      44.512 -17.373   6.499  0.00  0.00     0.128 C 
HETATM    6  C           1      42.890 -15.482   6.799  0.00  0.00     0.013 C 
HETATM    7  C           1      40.855 -15.174   3.530  0.00  0.00     0.056 A 
HETATM    8  C           1      41.539 -14.716   4.793  0.00  0.00     0.056 C 
HETATM    9  C           1      44.699 -18.533   4.297  0.00  0.00     0.020 C 
HETATM   10  C           1      43.654 -16.609   7.498  0.00  0.00     0.033 C 
HETATM   11  C           1      41.925 -17.444   3.542  0.00  0.00     0.055 C 
HETATM   12  C           1      41.042 -16.373   2.969  0.00  0.00     0.012 A 
HETATM   13  N           1      40.011 -14.486   2.888  0.00  0.00    -0.227 NA
HETATM   14  C           1      39.619 -15.166   1.896  0.00  0.00     0.175 A 
HETATM   15  S           1      40.214 -16.497   1.767  0.00  0.00    -0.055 SA
ENDROOT
BRANCH  14  16
HETATM   16  N           1      38.699 -14.838   0.970  0.00  0.00    -0.287 N 
HETATM   17  C           1      38.735 -14.241  -0.257  0.00  0.00     0.324 C 
HETATM   18  O           1      37.699 -13.757  -0.631  0.00  0.00    -0.247 OA
HETATM   19  N           1      39.865 -14.115  -1.030  0.00  0.00    -0.330 N 
HETATM   20  C           1      40.905 -15.128  -1.122  0.00  0.00     0.153 C 
HETATM   21  C           1      40.052 -13.028  -1.986  0.00  0.00     0.153 C 
HETATM   22  C           1      41.033 -15.606  -2.568  0.00  0.00     0.187 C 
HETATM   23  O           1      41.262 -14.521  -3.432  0.00  0.00    -0.388 OA
HETATM   24  C           1      40.202 -13.599  -3.392  0.00  0.00     0.187 C 
HETATM   25  H           1      37.763 -15.009   1.312  0.00  0.00     0.172 HD
ENDBRANCH  14  16
BRANCH   8  26
HETATM   26  C           1      40.728 -13.631   5.532  0.00  0.00     0.114 C 
BRANCH  26  27
HETATM   27  C           1      41.416 -12.276   5.684  0.00  0.00     0.218 C 
HETATM   28  N           1      41.415 -11.811   6.973  0.00  0.00    -0.357 N 
HETATM   29  H           1      40.911 -12.369   7.664  0.00  0.00     0.162 HD
HETATM   30  O           1      41.916 -11.703   4.750  0.00  0.00    -0.274 OA
BRANCH  28  31
HETATM   31  C           1      42.016 -10.553   7.448  0.00  0.00     0.076 C 
HETATM   32  C           1      42.360 -10.677   8.940  0.00  0.00     0.032 C 
HETATM   33  C           1      41.280  -9.232   7.177  0.00  0.00     0.032 C 
ENDBRANCH  28  31
ENDBRANCH  26  27
ENDBRANCH   8  26
BRANCH   4  34
HETATM   34  C           1      42.918 -19.254   5.883  0.00  0.00     0.176 C 
BRANCH  34  35
HETATM   35  O           1      43.782 -20.344   6.148  0.00  0.00    -0.400 OA
HETATM   36  H           1      44.453 -20.085   6.780  0.00  0.00     0.209 HD
ENDBRANCH  34  35
ENDBRANCH   4  34
BRANCH   5  37
HETATM   37  O           1      45.254 -18.337   7.208  0.00  0.00    -0.395 OA
HETATM   38  H           1      45.380 -18.055   8.115  0.00  0.00     0.210 HD
ENDBRANCH   5  37
TORSDOF 7
ENDMDL
MODEL 3
REMARK VINA RESULT:      -8.2      2.805      8.626
REMARK  7 active torsions:
REMARK  status: ('A' for Active; 'I' for Inactive)
REMARK    1  A    between atoms: C_3  and  N_4 
REMARK       I    between atoms: N_4  and  C_5 
REMARK    2  A    between atoms: C_5  and  C_6 
REMARK    3  A    between atoms: C_6  and  C_14 
REMARK    4  A    between atoms: C_8  and  C_9 
REMARK    5  A    between atoms: C_9  and  O_15 
REMARK    6  A    between atoms: C_10  and  O_17 
REMARK    7  A    between atoms: C_22  and  N_23 
REMARK       I    between atoms: N_23  and  C_24 
REMARK       I    between atoms: C_24  and  N_25 
ROOT
HETATM    1  C           1      41.027 -17.949   5.003  0.00  0.00     0.016 C 
HETATM    2  C           1      43.570 -17.432   4.982  0.00  0.00     0.012 C 
HETATM    3  C           1      42.126 -16.895   5.260  0.00  0.00    -0.030 C 
HETATM    4  C           1      44.256 -18.354   6.049  0.00  0.00     0.008 C 
HETATM    5  C           1      44.054 -17.724   7.442  0.00  0.00     0.128 C 
HETATM    6  C           1      42.040 -16.408   6.728  0.00  0.00     0.013 C 
HETATM    7  C           1      42.187 -16.063   2.884  0.00  0.00     0.056 A 
HETATM    8  C           1      41.869 -15.675   4.305  0.00  0.00     0.056 C 
HETATM    9  C           1      45.785 -18.382   5.768  0.00  0.00     0.020 C 
HETATM   10  C           1      42.598 -17.402   7.749  0.00  0.00     0.033 C 
HETATM   11  C           1      43.722 -17.938   3.531  0.00  0.00     0.055 C 
HETATM   12  C           1      43.021 -17.051   2.544  0.00  0.00     0.012 A 
HETATM   13  N           1      41.675 -15.516   1.866  0.00  0.00    -0.227 NA
HETATM   14  C           1      42.138 -16.086   0.835  0.00  0.00     0.175 A 
HETATM   15  S           1      43.088 -17.170   1.086  0.00  0.00    -0.055 SA
ENDROOT
BRANCH  14  16
HETATM   16  N           1      41.838 -15.850  -0.456  0.00  0.00    -0.287 N 
HETATM   17  C           1      41.201 -14.849  -1.130  0.00  0.00     0.324 C 
HETATM   18  O           1      40.771 -15.144  -2.215  0.00  0.00    -0.247 OA
HETATM   19  N           1      40.980 -13.588  -0.630  0.00  0.00    -0.330 N 
HETATM   20  C           1      41.922 -12.871   0.215  0.00  0.00     0.153 C 
HETATM   21  C           1      39.854 -12.758  -1.046  0.00  0.00     0.153 C 
HETATM   22  C           1      42.345 -11.572  -0.469  0.00  0.00     0.187 C 
HETATM   23  O           1      41.221 -10.795  -0.799  0.00  0.00    -0.388 OA
HETATM   24  C           1      40.369 -11.474  -1.686  0.00  0.00     0.187 C 
HETATM   25  H           1      42.078 -16.642  -1.035  0.00  0.00     0.172 HD
ENDBRANCH  14  16
BRANCH   8  26
HETATM   26  C           1      40.492 -14.989   4.427  0.00  0.00     0.114 C 
BRANCH  26  27
HETATM   27  C           1      40.519 -13.493   4.725  0.00  0.00     0.218 C 
HETATM   28  N           1      40.385 -13.203   6.057  0.00  0.00    -0.357 N 
HETATM   29  H           1      40.219 -13.991   6.684  0.00  0.00     0.162 HD
HETATM   30  O           1      40.663 -12.669   3.856  0.00  0.00    -0.274 OA
BRANCH  28  31
HETATM   31  C           1      40.396 -11.862   6.665  0.00  0.00     0.076 C 
HETATM   32  C           1      41.842 -11.452   6.983  0.00  0.00     0.032 C 
HETATM   33  C           1      39.485 -11.590   7.872  0.00  0.00     0.032 C 
ENDBRANCH  28  31
ENDBRANCH  26  27
ENDBRANCH   8  26
BRANCH   4  34
HETATM   34  C           1      43.762 -19.815   6.026  0.00  0.00     0.176 C 
BRANCH  34  35
HETATM   35  O           1      44.718 -20.682   5.442  0.00  0.00    -0.400 OA
HETATM   36  H           1      44.646 -20.653   4.487  0.00  0.00     0.209 HD
ENDBRANCH  34  35
ENDBRANCH   4  34
BRANCH   5  37
HETATM   37  O           1      44.538 -18.572   8.457  0.00  0.00    -0.395 OA
HETATM   38  H           1      45.008 -19.313   8.071  0.00  0.00     0.210 HD
ENDBRANCH   5  37
TORSDOF 7
ENDMDL
MODEL 4
REMARK VINA RESULT:      -8.1      2.917      8.727
REMARK  7 active torsions:
REMARK  status: ('A' for Active; 'I' for Inactive)
REMARK    1  A    between atoms: C_3  and  N_4 
REMARK       I    between atoms: N_4  and  C_5 
REMARK    2  A    between atoms: C_5  and  C_6 
REMARK    3  A    between atoms: C_6  and  C_14 
REMARK    4  A    between atoms: C_8  and  C_9 
REMARK    5  A    between atoms: C_9  and  O_15 
REMARK    6  A    between atoms: C_10  and  O_17 
REMARK    7  A    between atoms: C_22  and  N_23 
REMARK       I    between atoms: N_23  and  C_24 
REMARK       I    between atoms: C_24  and  N_25 
ROOT
HETATM    1  C           1      40.912 -16.362   6.226  0.00  0.00     0.016 C 
HETATM    2  C           1      42.890 -16.957   4.655  0.00  0.00     0.012 C 
HETATM    3  C           1      42.196 -15.860   5.531  0.00  0.00    -0.030 C 
HETATM    4  C           1      43.749 -18.062   5.362  0.00  0.00     0.008 C 
HETATM    5  C           1      44.666 -17.381   6.397  0.00  0.00     0.128 C 
HETATM    6  C           1      43.198 -15.356   6.599  0.00  0.00     0.013 C 
HETATM    7  C           1      41.035 -15.172   3.404  0.00  0.00     0.056 A 
HETATM    8  C           1      41.810 -14.662   4.593  0.00  0.00     0.056 C 
HETATM    9  C           1      44.664 -18.732   4.298  0.00  0.00     0.020 C 
HETATM   10  C           1      43.914 -16.474   7.361  0.00  0.00     0.033 C 
HETATM   11  C           1      41.940 -17.506   3.569  0.00  0.00     0.055 C 
HETATM   12  C           1      41.109 -16.424   2.942  0.00  0.00     0.012 A 
HETATM   13  N           1      40.212 -14.479   2.741  0.00  0.00    -0.227 NA
HETATM   14  C           1      39.724 -15.209   1.829  0.00  0.00     0.175 A 
HETATM   15  S           1      40.217 -16.586   1.792  0.00  0.00    -0.055 SA
ENDROOT
BRANCH  14  16
HETATM   16  N           1      38.786 -14.892   0.917  0.00  0.00    -0.287 N 
HETATM   17  C           1      38.796 -14.289  -0.307  0.00  0.00     0.324 C 
HETATM   18  O           1      37.747 -13.820  -0.664  0.00  0.00    -0.247 OA
HETATM   19  N           1      39.913 -14.141  -1.095  0.00  0.00    -0.330 N 
HETATM   20  C           1      40.968 -15.137  -1.207  0.00  0.00     0.153 C 
HETATM   21  C           1      40.069 -13.048  -2.049  0.00  0.00     0.153 C 
HETATM   22  C           1      41.083 -15.607  -2.656  0.00  0.00     0.187 C 
HETATM   23  O           1      41.282 -14.515  -3.519  0.00  0.00    -0.388 OA
HETATM   24  C           1      40.209 -13.610  -3.460  0.00  0.00     0.187 C 
HETATM   25  H           1      37.859 -15.079   1.271  0.00  0.00     0.172 HD
ENDBRANCH  14  16
BRANCH   8  26
HETATM   26  C           1      41.115 -13.461   5.268  0.00  0.00     0.114 C 
BRANCH  26  27
HETATM   27  C           1      40.974 -12.206   4.410  0.00  0.00     0.218 C 
HETATM   28  N           1      39.679 -11.938   4.052  0.00  0.00    -0.357 N 
HETATM   29  H           1      38.973 -12.620   4.333  0.00  0.00     0.162 HD
HETATM   30  O           1      41.923 -11.528   4.105  0.00  0.00    -0.274 OA
BRANCH  28  31
HETATM   31  C           1      39.213 -10.793   3.252  0.00  0.00     0.076 C 
HETATM   32  C           1      38.012 -10.132   3.947  0.00  0.00     0.032 C 
HETATM   33  C           1      38.917 -11.005   1.760  0.00  0.00     0.032 C 
ENDBRANCH  28  31
ENDBRANCH  26  27
ENDBRANCH   8  26
BRANCH   4  34
HETATM   34  C           1      42.914 -19.182   6.015  0.00  0.00     0.176 C 
BRANCH  34  35
HETATM   35  O           1      43.704 -20.323   6.304  0.00  0.00    -0.400 OA
HETATM   36  H           1      44.262 -20.151   7.064  0.00  0.00     0.209 HD
ENDBRANCH  34  35
ENDBRANCH   4  34
BRANCH   5  37
HETATM   37  O           1      45.371 -18.335   7.156  0.00  0.00    -0.395 OA
HETATM   38  H           1      46.311 -18.146   7.133  0.00  0.00     0.210 HD
ENDBRANCH   5  37
TORSDOF 7
ENDMDL
MODEL 5
REMARK VINA RESULT:      -8.1      3.866      7.335
REMARK  7 active torsions:
REMARK  status: ('A' for Active; 'I' for Inactive)
REMARK    1  A    between atoms: C_3  and  N_4 
REMARK       I    between atoms: N_4  and  C_5 
REMARK    2  A    between atoms: C_5  and  C_6 
REMARK    3  A    between atoms: C_6  and  C_14 
REMARK    4  A    between atoms: C_8  and  C_9 
REMARK    5  A    between atoms: C_9  and  O_15 
REMARK    6  A    between atoms: C_10  and  O_17 
REMARK    7  A    between atoms: C_22  and  N_23 
REMARK       I    between atoms: N_23  and  C_24 
REMARK       I    between atoms: C_24  and  N_25 
ROOT
HETATM    1  C           1      43.568 -14.399   3.154  0.00  0.00     0.016 C 
HETATM    2  C           1      41.881 -16.215   3.924  0.00  0.00     0.012 C 
HETATM    3  C           1      42.463 -15.390   2.727  0.00  0.00    -0.030 C 
HETATM    4  C           1      42.703 -17.428   4.481  0.00  0.00     0.008 C 
HETATM    5  C           1      43.197 -18.273   3.289  0.00  0.00     0.128 C 
HETATM    6  C           1      43.028 -16.366   1.665  0.00  0.00     0.013 C 
HETATM    7  C           1      40.563 -13.793   3.156  0.00  0.00     0.056 A 
HETATM    8  C           1      41.288 -14.569   2.086  0.00  0.00     0.056 C 
HETATM    9  C           1      41.752 -18.324   5.324  0.00  0.00     0.020 C 
HETATM   10  C           1      43.938 -17.455   2.240  0.00  0.00     0.033 C 
HETATM   11  C           1      41.303 -15.297   5.022  0.00  0.00     0.055 C 
HETATM   12  C           1      40.555 -14.128   4.450  0.00  0.00     0.012 A 
HETATM   13  N           1      39.914 -12.729   2.947  0.00  0.00    -0.227 NA
HETATM   14  C           1      39.448 -12.325   4.052  0.00  0.00     0.175 A 
HETATM   15  S           1      39.773 -13.154   5.214  0.00  0.00    -0.055 SA
ENDROOT
BRANCH  14  16
HETATM   16  N           1      38.729 -11.215   4.300  0.00  0.00    -0.287 N 
HETATM   17  C           1      38.896 -10.114   5.090  0.00  0.00     0.324 C 
HETATM   18  O           1      37.889  -9.514   5.364  0.00  0.00    -0.247 OA
HETATM   19  N           1      40.098  -9.707   5.616  0.00  0.00    -0.330 N 
HETATM   20  C           1      41.370  -9.811   4.917  0.00  0.00     0.153 C 
HETATM   21  C           1      40.201  -8.955   6.862  0.00  0.00     0.153 C 
HETATM   22  C           1      41.976  -8.419   4.739  0.00  0.00     0.187 C 
HETATM   23  O           1      42.096  -7.767   5.978  0.00  0.00    -0.388 OA
HETATM   24  C           1      40.845  -7.598   6.594  0.00  0.00     0.187 C 
HETATM   25  H           1      37.824 -11.261   3.852  0.00  0.00     0.172 HD
ENDBRANCH  14  16
BRANCH   8  26
HETATM   26  C           1      41.652 -13.686   0.874  0.00  0.00     0.114 C 
BRANCH  26  27
HETATM   27  C           1      40.911 -14.001  -0.423  0.00  0.00     0.218 C 
HETATM   28  N           1      41.749 -14.262  -1.476  0.00  0.00    -0.357 N 
HETATM   29  H           1      42.750 -14.157  -1.304  0.00  0.00     0.162 HD
HETATM   30  O           1      39.708 -14.027  -0.485  0.00  0.00    -0.274 OA
BRANCH  28  31
HETATM   31  C           1      41.346 -14.620  -2.846  0.00  0.00     0.076 C 
HETATM   32  C           1      40.654 -13.421  -3.511  0.00  0.00     0.032 C 
HETATM   33  C           1      40.525 -15.901  -3.064  0.00  0.00     0.032 C 
ENDBRANCH  28  31
ENDBRANCH  26  27
ENDBRANCH   8  26
BRANCH   4  34
HETATM   34  C           1      43.877 -17.023   5.395  0.00  0.00     0.176 C 
BRANCH  34  35
HETATM   35  O           1      44.209 -18.054   6.308  0.00  0.00    -0.400 OA
HETATM   36  H           1      44.123 -18.909   5.884  0.00  0.00     0.209 HD
ENDBRANCH  34  35
ENDBRANCH   4  34
BRANCH   5  37
HETATM   37  O           1      44.050 -19.307   3.719  0.00  0.00    -0.395 OA
HETATM   38  H           1      43.876 -19.517   4.638  0.00  0.00     0.210 HD
ENDBRANCH   5  37
TORSDOF 7
ENDMDL
MODEL 6
REMARK VINA RESULT:      -8.0      1.907      2.435
REMARK  7 active torsions:
REMARK  status: ('A' for Active; 'I' for Inactive)
REMARK    1  A    between atoms: C_3  and  N_4 
REMARK       I    between atoms: N_4  and  C_5 
REMARK    2  A    between atoms: C_5  and  C_6 
REMARK    3  A    between atoms: C_6  and  C_14 
REMARK    4  A    between atoms: C_8  and  C_9 
REMARK    5  A    between atoms: C_9  and  O_15 
REMARK    6  A    between atoms: C_10  and  O_17 
REMARK    7  A    between atoms: C_22  and  N_23 
REMARK       I    between atoms: N_23  and  C_24 
REMARK       I    between atoms: C_24  and  N_25 
ROOT
HETATM    1  C           1      39.804 -14.338  -0.570  0.00  0.00     0.016 C 
HETATM    2  C           1      41.515 -12.575   0.267  0.00  0.00     0.012 C 
HETATM    3  C           1      41.290 -14.018  -0.299  0.00  0.00    -0.030 C 
HETATM    4  C           1      41.470 -11.357  -0.719  0.00  0.00     0.008 C 
HETATM    5  C           1      42.310 -11.705  -1.964  0.00  0.00     0.128 C 
HETATM    6  C           1      42.100 -14.180  -1.610  0.00  0.00     0.013 C 
HETATM    7  C           1      41.231 -14.745   2.111  0.00  0.00     0.056 A 
HETATM    8  C           1      41.828 -15.045   0.760  0.00  0.00     0.056 C 
HETATM    9  C           1      42.143 -10.138  -0.028  0.00  0.00     0.020 C 
HETATM   10  C           1      41.917 -13.030  -2.603  0.00  0.00     0.033 C 
HETATM   11  C           1      40.729 -12.347   1.576  0.00  0.00     0.055 C 
HETATM   12  C           1      40.764 -13.547   2.476  0.00  0.00     0.012 A 
HETATM   13  N           1      41.082 -15.602   3.028  0.00  0.00    -0.227 NA
HETATM   14  C           1      40.538 -15.032   4.019  0.00  0.00     0.175 A 
HETATM   15  S           1      40.241 -13.610   3.843  0.00  0.00    -0.055 SA
ENDROOT
BRANCH  14  16
HETATM   16  N           1      40.163 -15.573   5.193  0.00  0.00    -0.287 N 
HETATM   17  C           1      40.770 -16.357   6.131  0.00  0.00     0.324 C 
HETATM   18  O           1      40.030 -16.971   6.854  0.00  0.00    -0.247 OA
HETATM   19  N           1      42.130 -16.521   6.248  0.00  0.00    -0.330 N 
HETATM   20  C           1      43.101 -15.462   6.021  0.00  0.00     0.153 C 
HETATM   21  C           1      42.736 -17.731   6.795  0.00  0.00     0.153 C 
HETATM   22  C           1      43.904 -15.215   7.297  0.00  0.00     0.187 C 
HETATM   23  O           1      44.503 -16.406   7.745  0.00  0.00    -0.388 OA
HETATM   24  C           1      43.542 -17.385   8.043  0.00  0.00     0.187 C 
HETATM   25  H           1      39.179 -15.421   5.365  0.00  0.00     0.172 HD
ENDBRANCH  14  16
BRANCH   8  26
HETATM   26  C           1      41.706 -16.538   0.388  0.00  0.00     0.114 C 
BRANCH  26  27
HETATM   27  C           1      42.761 -17.461   0.992  0.00  0.00     0.218 C 
HETATM   28  N           1      42.250 -18.338   1.912  0.00  0.00    -0.357 N 
HETATM   29  H           1      41.259 -18.241   2.139  0.00  0.00     0.162 HD
HETATM   30  O           1      43.920 -17.413   0.663  0.00  0.00    -0.274 OA
BRANCH  28  31
HETATM   31  C           1      43.001 -19.368   2.649  0.00  0.00     0.076 C 
HETATM   32  C           1      44.042 -18.696   3.558  0.00  0.00     0.032 C 
HETATM   33  C           1      43.643 -20.521   1.862  0.00  0.00     0.032 C 
ENDBRANCH  28  31
ENDBRANCH  26  27
ENDBRANCH   8  26
BRANCH   4  34
HETATM   34  C           1      40.045 -10.925  -1.117  0.00  0.00     0.176 C 
BRANCH  34  35
HETATM   35  O           1      40.015  -9.590  -1.591  0.00  0.00    -0.400 OA
HETATM   36  H           1      40.362  -8.997  -0.923  0.00  0.00     0.209 HD
ENDBRANCH  34  35
ENDBRANCH   4  34
BRANCH   5  37
HETATM   37  O           1      42.205 -10.699  -2.944  0.00  0.00    -0.395 OA
HETATM   38  H           1      41.307 -10.365  -2.979  0.00  0.00     0.210 HD
ENDBRANCH   5  37
TORSDOF 7
ENDMDL
MODEL 7
REMARK VINA RESULT:      -7.9      2.284      7.996
REMARK  7 active torsions:
REMARK  status: ('A' for Active; 'I' for Inactive)
REMARK    1  A    between atoms: C_3  and  N_4 
REMARK       I    between atoms: N_4  and  C_5 
REMARK    2  A    between atoms: C_5  and  C_6 
REMARK    3  A    between atoms: C_6  and  C_14 
REMARK    4  A    between atoms: C_8  and  C_9 
REMARK    5  A    between atoms: C_9  and  O_15 
REMARK    6  A    between atoms: C_10  and  O_17 
REMARK    7  A    between atoms: C_22  and  N_23 
REMARK       I    between atoms: N_23  and  C_24 
REMARK       I    between atoms: C_24  and  N_25 
ROOT
HETATM    1  C           1      41.731 -18.178   4.661  0.00  0.00     0.016 C 
HETATM    2  C           1      44.052 -18.385   3.519  0.00  0.00     0.012 C 
HETATM    3  C           1      43.247 -17.910   4.776  0.00  0.00    -0.030 C 
HETATM    4  C           1      44.371 -19.911   3.354  0.00  0.00     0.008 C 
HETATM    5  C           1      44.892 -20.451   4.701  0.00  0.00     0.128 C 
HETATM    6  C           1      43.803 -18.624   6.033  0.00  0.00     0.013 C 
HETATM    7  C           1      43.158 -15.668   3.632  0.00  0.00     0.056 A 
HETATM    8  C           1      43.461 -16.363   4.934  0.00  0.00     0.056 C 
HETATM    9  C           1      45.519 -20.066   2.316  0.00  0.00     0.020 C 
HETATM   10  C           1      43.969 -20.137   5.870  0.00  0.00     0.033 C 
HETATM   11  C           1      43.544 -17.710   2.227  0.00  0.00     0.055 C 
HETATM   12  C           1      43.214 -16.261   2.435  0.00  0.00     0.012 A 
HETATM   13  N           1      42.789 -14.463   3.537  0.00  0.00    -0.227 NA
HETATM   14  C           1      42.600 -14.201   2.314  0.00  0.00     0.175 A 
HETATM   15  S           1      42.843 -15.307   1.387  0.00  0.00    -0.055 SA
ENDROOT
BRANCH  14  16
HETATM   16  N           1      42.167 -13.052   1.762  0.00  0.00    -0.287 N 
HETATM   17  C           1      41.253 -12.727   0.802  0.00  0.00     0.324 C 
HETATM   18  O           1      41.401 -11.650   0.287  0.00  0.00    -0.247 OA
HETATM   19  N           1      40.249 -13.559   0.368  0.00  0.00    -0.330 N 
HETATM   20  C           1      39.513 -14.468   1.234  0.00  0.00     0.153 C 
HETATM   21  C           1      39.686 -13.485  -0.976  0.00  0.00     0.153 C 
HETATM   22  C           1      38.027 -14.109   1.216  0.00  0.00     0.187 C 
HETATM   23  O           1      37.533 -14.103  -0.100  0.00  0.00    -0.388 OA
HETATM   24  C           1      38.199 -13.156  -0.896  0.00  0.00     0.187 C 
HETATM   25  H           1      42.712 -12.266   2.088  0.00  0.00     0.172 HD
ENDBRANCH  14  16
BRANCH   8  26
HETATM   26  C           1      42.751 -15.693   6.130  0.00  0.00     0.114 C 
BRANCH  26  27
HETATM   27  C           1      43.658 -15.235   7.269  0.00  0.00     0.218 C 
HETATM   28  N           1      44.008 -13.913   7.184  0.00  0.00    -0.357 N 
HETATM   29  H           1      43.690 -13.406   6.357  0.00  0.00     0.162 HD
HETATM   30  O           1      44.004 -15.978   8.153  0.00  0.00    -0.274 OA
BRANCH  28  31
HETATM   31  C           1      44.848 -13.168   8.137  0.00  0.00     0.076 C 
HETATM   32  C           1      44.062 -11.971   8.692  0.00  0.00     0.032 C 
HETATM   33  C           1      46.253 -12.728   7.697  0.00  0.00     0.032 C 
ENDBRANCH  28  31
ENDBRANCH  26  27
ENDBRANCH   8  26
BRANCH   4  34
HETATM   34  C           1      43.181 -20.749   2.846  0.00  0.00     0.176 C 
BRANCH  34  35
HETATM   35  O           1      43.607 -21.812   2.012  0.00  0.00    -0.400 OA
HETATM   36  H           1      44.244 -22.357   2.475  0.00  0.00     0.209 HD
ENDBRANCH  34  35
ENDBRANCH   4  34
BRANCH   5  37
HETATM   37  O           1      45.076 -21.846   4.652  0.00  0.00    -0.395 OA
HETATM   38  H           1      45.314 -22.178   5.519  0.00  0.00     0.210 HD
ENDBRANCH   5  37
TORSDOF 7
ENDMDL
MODEL 8
REMARK VINA RESULT:      -7.8      2.735      7.621
REMARK  7 active torsions:
REMARK  status: ('A' for Active; 'I' for Inactive)
REMARK    1  A    between atoms: C_3  and  N_4 
REMARK       I    between atoms: N_4  and  C_5 
REMARK    2  A    between atoms: C_5  and  C_6 
REMARK    3  A    between atoms: C_6  and  C_14 
REMARK    4  A    between atoms: C_8  and  C_9 
REMARK    5  A    between atoms: C_9  and  O_15 
REMARK    6  A    between atoms: C_10  and  O_17 
REMARK    7  A    between atoms: C_22  and  N_23 
REMARK       I    between atoms: N_23  and  C_24 
REMARK       I    between atoms: C_24  and  N_25 
ROOT
HETATM    1  C           1      43.728 -16.567   2.327  0.00  0.00     0.016 C 
HETATM    2  C           1      42.465 -17.757   4.256  0.00  0.00     0.012 C 
HETATM    3  C           1      42.695 -17.648   2.711  0.00  0.00    -0.030 C 
HETATM    4  C           1      43.526 -18.512   5.130  0.00  0.00     0.008 C 
HETATM    5  C           1      43.880 -19.840   4.430  0.00  0.00     0.128 C 
HETATM    6  C           1      43.161 -19.022   2.169  0.00  0.00     0.013 C 
HETATM    7  C           1      40.729 -16.073   2.726  0.00  0.00     0.056 A 
HETATM    8  C           1      41.324 -17.277   2.041  0.00  0.00     0.056 C 
HETATM    9  C           1      42.877 -18.866   6.498  0.00  0.00     0.020 C 
HETATM   10  C           1      44.294 -19.660   2.976  0.00  0.00     0.033 C 
HETATM   11  C           1      42.001 -16.415   4.861  0.00  0.00     0.055 C 
HETATM   12  C           1      41.016 -15.705   3.979  0.00  0.00     0.012 A 
HETATM   13  N           1      39.924 -15.268   2.178  0.00  0.00    -0.227 NA
HETATM   14  C           1      39.635 -14.364   3.015  0.00  0.00     0.175 A 
HETATM   15  S           1      40.281 -14.486   4.322  0.00  0.00    -0.055 SA
ENDROOT
BRANCH  14  16
HETATM   16  N           1      38.844 -13.289   2.844  0.00  0.00    -0.287 N 
HETATM   17  C           1      39.056 -11.947   2.711  0.00  0.00     0.324 C 
HETATM   18  O           1      38.113 -11.244   2.966  0.00  0.00    -0.247 OA
HETATM   19  N           1      40.260 -11.377   2.373  0.00  0.00    -0.330 N 
HETATM   20  C           1      41.198 -11.958   1.424  0.00  0.00     0.153 C 
HETATM   21  C           1      40.644 -10.034   2.792  0.00  0.00     0.153 C 
HETATM   22  C           1      41.413 -10.995   0.256  0.00  0.00     0.187 C 
HETATM   23  O           1      41.829  -9.736   0.721  0.00  0.00    -0.388 OA
HETATM   24  C           1      40.869  -9.155   1.566  0.00  0.00     0.187 C 
HETATM   25  H           1      37.868 -13.542   2.912  0.00  0.00     0.172 HD
ENDBRANCH  14  16
BRANCH   8  26
HETATM   26  C           1      41.332 -17.128   0.505  0.00  0.00     0.114 C 
BRANCH  26  27
HETATM   27  C           1      41.345 -15.696  -0.023  0.00  0.00     0.218 C 
HETATM   28  N           1      40.208 -15.362  -0.711  0.00  0.00    -0.357 N 
HETATM   29  H           1      39.521 -16.103  -0.851  0.00  0.00     0.162 HD
HETATM   30  O           1      42.270 -14.948   0.173  0.00  0.00    -0.274 OA
BRANCH  28  31
HETATM   31  C           1      39.907 -14.055  -1.319  0.00  0.00     0.076 C 
HETATM   32  C           1      38.542 -13.556  -0.821  0.00  0.00     0.032 C 
HETATM   33  C           1      40.004 -13.911  -2.846  0.00  0.00     0.032 C 
ENDBRANCH  28  31
ENDBRANCH  26  27
ENDBRANCH   8  26
BRANCH   4  34
HETATM   34  C           1      44.795 -17.688   5.427  0.00  0.00     0.176 C 
BRANCH  34  35
HETATM   35  O           1      45.454 -18.144   6.595  0.00  0.00    -0.400 OA
HETATM   36  H           1      45.852 -17.406   7.056  0.00  0.00     0.209 HD
ENDBRANCH  34  35
ENDBRANCH   4  34
BRANCH   5  37
HETATM   37  O           1      44.924 -20.505   5.102  0.00  0.00    -0.395 OA
HETATM   38  H           1      45.761 -20.324   4.672  0.00  0.00     0.210 HD
ENDBRANCH   5  37
TORSDOF 7
ENDMDL
MODEL 9
REMARK VINA RESULT:      -7.7      2.518      7.387
REMARK  7 active torsions:
REMARK  status: ('A' for Active; 'I' for Inactive)
REMARK    1  A    between atoms: C_3  and  N_4 
REMARK       I    between atoms: N_4  and  C_5 
REMARK    2  A    between atoms: C_5  and  C_6 
REMARK    3  A    between atoms: C_6  and  C_14 
REMARK    4  A    between atoms: C_8  and  C_9 
REMARK    5  A    between atoms: C_9  and  O_15 
REMARK    6  A    between atoms: C_10  and  O_17 
REMARK    7  A    between atoms: C_22  and  N_23 
REMARK       I    between atoms: N_23  and  C_24 
REMARK       I    between atoms: C_24  and  N_25 
ROOT
HETATM    1  C           1      44.023 -15.544   2.827  0.00  0.00     0.016 C 
HETATM    2  C           1      41.781 -15.636   4.131  0.00  0.00     0.012 C 
HETATM    3  C           1      42.912 -16.444   3.410  0.00  0.00    -0.030 C 
HETATM    4  C           1      42.044 -15.086   5.576  0.00  0.00     0.008 C 
HETATM    5  C           1      42.678 -16.211   6.419  0.00  0.00     0.128 C 
HETATM    6  C           1      43.535 -17.448   4.412  0.00  0.00     0.013 C 
HETATM    7  C           1      41.437 -16.316   1.372  0.00  0.00     0.056 A 
HETATM    8  C           1      42.259 -17.245   2.229  0.00  0.00     0.056 C 
HETATM    9  C           1      40.677 -14.731   6.225  0.00  0.00     0.020 C 
HETATM   10  C           1      43.903 -16.834   5.765  0.00  0.00     0.033 C 
HETATM   11  C           1      41.119 -14.611   3.185  0.00  0.00     0.055 C 
HETATM   12  C           1      40.919 -15.162   1.803  0.00  0.00     0.012 A 
HETATM   13  N           1      41.180 -16.515   0.151  0.00  0.00    -0.227 NA
HETATM   14  C           1      40.491 -15.542  -0.272  0.00  0.00     0.175 A 
HETATM   15  S           1      40.196 -14.502   0.714  0.00  0.00    -0.055 SA
ENDROOT
BRANCH  14  16
HETATM   16  N           1      40.030 -15.323  -1.518  0.00  0.00    -0.287 N 
HETATM   17  C           1      39.973 -14.242  -2.349  0.00  0.00     0.324 C 
HETATM   18  O           1      39.153 -14.304  -3.228  0.00  0.00    -0.247 OA
HETATM   19  N           1      40.732 -13.106  -2.205  0.00  0.00    -0.330 N 
HETATM   20  C           1      42.114 -13.103  -1.749  0.00  0.00     0.153 C 
HETATM   21  C           1      40.291 -11.796  -2.671  0.00  0.00     0.153 C 
HETATM   22  C           1      43.014 -12.508  -2.832  0.00  0.00     0.187 C 
HETATM   23  O           1      42.567 -11.228  -3.202  0.00  0.00    -0.388 OA
HETATM   24  C           1      41.263 -11.268  -3.721  0.00  0.00     0.187 C 
HETATM   25  H           1      39.547 -16.136  -1.873  0.00  0.00     0.172 HD
ENDBRANCH  14  16
BRANCH   8  26
HETATM   26  C           1      43.211 -18.122   1.388  0.00  0.00     0.114 C 
BRANCH  26  27
HETATM   27  C           1      43.389 -19.560   1.868  0.00  0.00     0.218 C 
HETATM   28  N           1      44.624 -19.801   2.411  0.00  0.00    -0.357 N 
HETATM   29  H           1      45.298 -19.035   2.377  0.00  0.00     0.162 HD
HETATM   30  O           1      42.508 -20.378   1.782  0.00  0.00    -0.274 OA
BRANCH  28  31
HETATM   31  C           1      45.094 -21.074   2.983  0.00  0.00     0.076 C 
HETATM   32  C           1      44.622 -22.241   2.102  0.00  0.00     0.032 C 
HETATM   33  C           1      44.807 -21.370   4.463  0.00  0.00     0.032 C 
ENDBRANCH  28  31
ENDBRANCH  26  27
ENDBRANCH   8  26
BRANCH   4  34
HETATM   34  C           1      42.910 -13.811   5.614  0.00  0.00     0.176 C 
BRANCH  34  35
HETATM   35  O           1      42.526 -12.948   6.669  0.00  0.00    -0.400 OA
HETATM   36  H           1      42.165 -12.136   6.314  0.00  0.00     0.209 HD
ENDBRANCH  34  35
ENDBRANCH   4  34
BRANCH   5  37
HETATM   37  O           1      43.055 -15.739   7.692  0.00  0.00    -0.395 OA
HETATM   38  H           1      42.815 -14.815   7.785  0.00  0.00     0.210 HD
ENDBRANCH   5  37
TORSDOF 7
ENDMDL
MODEL 10
REMARK VINA RESULT:      -7.7      3.288      4.895
REMARK  7 active torsions:
REMARK  status: ('A' for Active; 'I' for Inactive)
REMARK    1  A    between atoms: C_3  and  N_4 
REMARK       I    between atoms: N_4  and  C_5 
REMARK    2  A    between atoms: C_5  and  C_6 
REMARK    3  A    between atoms: C_6  and  C_14 
REMARK    4  A    between atoms: C_8  and  C_9 
REMARK    5  A    between atoms: C_9  and  O_15 
REMARK    6  A    between atoms: C_10  and  O_17 
REMARK    7  A    between atoms: C_22  and  N_23 
REMARK       I    between atoms: N_23  and  C_24 
REMARK       I    between atoms: C_24  and  N_25 
ROOT
HETATM    1  C           1      39.807 -14.942   4.336  0.00  0.00     0.016 C 
HETATM    2  C           1      41.484 -13.904   2.649  0.00  0.00     0.012 C 
HETATM    3  C           1      41.271 -14.886   3.850  0.00  0.00    -0.030 C 
HETATM    4  C           1      41.063 -14.362   1.210  0.00  0.00     0.008 C 
HETATM    5  C           1      41.588 -15.794   0.980  0.00  0.00     0.128 C 
HETATM    6  C           1      41.731 -16.305   3.433  0.00  0.00     0.013 C 
HETATM    7  C           1      41.907 -12.932   5.308  0.00  0.00     0.056 A 
HETATM    8  C           1      42.165 -14.394   5.044  0.00  0.00     0.056 C 
HETATM    9  C           1      41.761 -13.438   0.173  0.00  0.00     0.020 C 
HETATM   10  C           1      41.183 -16.766   2.080  0.00  0.00     0.033 C 
HETATM   11  C           1      41.040 -12.467   3.000  0.00  0.00     0.055 C 
HETATM   12  C           1      41.428 -12.079   4.397  0.00  0.00     0.012 A 
HETATM   13  N           1      42.086 -12.369   6.425  0.00  0.00    -0.227 NA
HETATM   14  C           1      41.758 -11.152   6.312  0.00  0.00     0.175 A 
HETATM   15  S           1      41.281 -10.748   4.989  0.00  0.00    -0.055 SA
ENDROOT
BRANCH  14  16
HETATM   16  N           1      41.755 -10.196   7.260  0.00  0.00    -0.287 N 
HETATM   17  C           1      42.105 -10.143   8.577  0.00  0.00     0.324 C 
HETATM   18  O           1      41.611  -9.248   9.212  0.00  0.00    -0.247 OA
HETATM   19  N           1      42.914 -11.059   9.207  0.00  0.00    -0.330 N 
HETATM   20  C           1      44.064 -11.694   8.582  0.00  0.00     0.153 C 
HETATM   21  C           1      42.815 -11.353  10.632  0.00  0.00     0.153 C 
HETATM   22  C           1      45.332 -11.350   9.363  0.00  0.00     0.187 C 
HETATM   23  O           1      45.193 -11.703  10.716  0.00  0.00    -0.388 OA
HETATM   24  C           1      44.132 -11.011  11.322  0.00  0.00     0.187 C 
HETATM   25  H           1      41.313  -9.352   6.922  0.00  0.00     0.172 HD
ENDBRANCH  14  16
BRANCH   8  26
HETATM   26  C           1      42.107 -15.238   6.335  0.00  0.00     0.114 C 
BRANCH  26  27
HETATM   27  C           1      43.373 -16.021   6.674  0.00  0.00     0.218 C 
HETATM   28  N           1      43.195 -17.379   6.636  0.00  0.00    -0.357 N 
HETATM   29  H           1      42.247 -17.714   6.456  0.00  0.00     0.162 HD
HETATM   30  O           1      44.416 -15.475   6.929  0.00  0.00    -0.274 OA
BRANCH  28  31
HETATM   31  C           1      44.223 -18.403   6.889  0.00  0.00     0.076 C 
HETATM   32  C           1      44.994 -18.692   5.592  0.00  0.00     0.032 C 
HETATM   33  C           1      43.807 -19.716   7.569  0.00  0.00     0.032 C 
ENDBRANCH  28  31
ENDBRANCH  26  27
ENDBRANCH   8  26
BRANCH   4  34
HETATM   34  C           1      39.546 -14.281   0.945  0.00  0.00     0.176 C 
BRANCH  34  35
HETATM   35  O           1      39.250 -14.381  -0.437  0.00  0.00    -0.400 OA
HETATM   36  H           1      38.304 -14.326  -0.575  0.00  0.00     0.209 HD
ENDBRANCH  34  35
ENDBRANCH   4  34
BRANCH   5  37
HETATM   37  O           1      41.131 -16.310  -0.248  0.00  0.00    -0.395 OA
HETATM   38  H           1      41.583 -17.131  -0.449  0.00  0.00     0.210 HD
ENDBRANCH   5  37
TORSDOF 7
ENDMDL
