MODEL 1
REMARK VINA RESULT:      -9.3      0.000      0.000
REMARK  3 active torsions:
REMARK  status: ('A' for Active; 'I' for Inactive)
REMARK    1  A    between atoms: C_3  and  N_4 
REMARK       I    between atoms: N_4  and  C_5 
REMARK    2  A    between atoms: C_5  and  C_6 
REMARK    3  A    between atoms: N_20  and  C_21 
ROOT
HETATM    1  N   UNL     1      41.929 -15.975   1.689  1.00  0.00    -0.305 N 
HETATM    2  C   UNL     1      42.860 -15.743   2.681  1.00  0.00     0.257 C 
HETATM    3  O   UNL     1      43.301 -14.669   3.070  1.00  0.00    -0.267 OA
HETATM    4  H   UNL     1      41.566 -16.906   1.566  1.00  0.00     0.170 HD
ENDROOT
BRANCH   2   5
HETATM    5  C   UNL     1      43.335 -16.973   3.379  1.00  0.00     0.034 A 
HETATM    6  C   UNL     1      43.477 -18.148   2.630  1.00  0.00     0.049 A 
HETATM    7  C   UNL     1      43.929 -19.311   3.251  1.00  0.00     0.063 A 
HETATM    8  C   UNL     1      44.230 -19.311   4.617  1.00  0.00     0.062 A 
HETATM    9  N   UNL     1      44.082 -20.482   2.504  1.00  0.00    -0.317 N 
HETATM   10  N   UNL     1      44.690 -20.478   5.228  1.00  0.00    -0.317 N 
HETATM   11  C   UNL     1      44.068 -18.151   5.373  1.00  0.00     0.033 A 
HETATM   12  C   UNL     1      44.872 -21.665   4.552  1.00  0.00     0.314 A 
HETATM   13  H   UNL     1      44.914 -20.499   6.215  1.00  0.00     0.169 HD
HETATM   14  O   UNL     1      45.286 -22.668   5.119  1.00  0.00    -0.262 OA
HETATM   15  C   UNL     1      44.529 -21.669   3.042  1.00  0.00     0.314 A 
HETATM   16  O   UNL     1      44.654 -22.679   2.362  1.00  0.00    -0.262 OA
HETATM   17  C   UNL     1      43.615 -16.981   4.756  1.00  0.00     0.019 A 
HETATM   18  H   UNL     1      43.858 -20.501   1.518  1.00  0.00     0.169 HD
ENDBRANCH   2   5
BRANCH   1  19
HETATM   19  C   UNL     1      41.376 -15.008   0.872  1.00  0.00     0.158 A 
HETATM   20  C   UNL     1      40.020 -14.594   0.928  1.00  0.00     0.003 A 
HETATM   21  C   UNL     1      38.933 -15.039   1.831  1.00  0.00     0.054 C 
HETATM   22  C   UNL     1      39.921 -13.621  -0.045  1.00  0.00     0.129 A 
HETATM   23  N   UNL     1      41.146 -13.518  -0.664  1.00  0.00    -0.241 N 
HETATM   24  N   UNL     1      42.041 -14.340  -0.065  1.00  0.00    -0.149 NA
BRANCH  23  25
HETATM   25  C   UNL     1      41.569 -12.668  -1.729  1.00  0.00     0.079 A 
HETATM   26  C   UNL     1      41.184 -12.810  -3.072  1.00  0.00     0.062 A 
HETATM   27 CL   UNL     1      40.293 -14.140  -3.727  1.00  0.00    -0.082 Cl
HETATM   28  C   UNL     1      41.622 -11.875  -4.026  1.00  0.00     0.026 A 
HETATM   29  C   UNL     1      42.450 -10.813  -3.666  1.00  0.00     0.002 A 
HETATM   30  C   UNL     1      42.865 -10.684  -2.349  1.00  0.00     0.002 A 
HETATM   31  C   UNL     1      42.437 -11.605  -1.391  1.00  0.00     0.033 A 
ENDBRANCH  23  25
ENDBRANCH   1  19
TORSDOF 3
ENDMDL
MODEL 2
REMARK VINA RESULT:      -9.0      1.089      1.415
REMARK  3 active torsions:
REMARK  status: ('A' for Active; 'I' for Inactive)
REMARK    1  A    between atoms: C_3  and  N_4 
REMARK       I    between atoms: N_4  and  C_5 
REMARK    2  A    between atoms: C_5  and  C_6 
REMARK    3  A    between atoms: N_20  and  C_21 
ROOT
HETATM    1  N   UNL     1      41.873 -15.833   1.592  1.00  0.00    -0.305 N 
HETATM    2  C   UNL     1      42.828 -15.624   2.566  1.00  0.00     0.257 C 
HETATM    3  O   UNL     1      43.299 -14.560   2.950  1.00  0.00    -0.267 OA
HETATM    4  H   UNL     1      41.488 -16.756   1.474  1.00  0.00     0.170 HD
ENDROOT
BRANCH   2   5
HETATM    5  C   UNL     1      43.289 -16.865   3.254  1.00  0.00     0.034 A 
HETATM    6  C   UNL     1      43.445 -18.028   2.488  1.00  0.00     0.049 A 
HETATM    7  C   UNL     1      43.885 -19.201   3.098  1.00  0.00     0.063 A 
HETATM    8  C   UNL     1      44.160 -19.223   4.469  1.00  0.00     0.062 A 
HETATM    9  N   UNL     1      44.052 -20.359   2.335  1.00  0.00    -0.317 N 
HETATM   10  N   UNL     1      44.608 -20.401   5.070  1.00  0.00    -0.317 N 
HETATM   11  C   UNL     1      43.984 -18.076   5.241  1.00  0.00     0.033 A 
HETATM   12  C   UNL     1      44.802 -21.577   4.378  1.00  0.00     0.314 A 
HETATM   13  H   UNL     1      44.813 -20.438   6.060  1.00  0.00     0.169 HD
HETATM   14  O   UNL     1      45.206 -22.588   4.937  1.00  0.00    -0.262 OA
HETATM   15  C   UNL     1      44.489 -21.556   2.862  1.00  0.00     0.314 A 
HETATM   16  O   UNL     1      44.627 -22.554   2.167  1.00  0.00    -0.262 OA
HETATM   17  C   UNL     1      43.543 -16.896   4.635  1.00  0.00     0.019 A 
HETATM   18  H   UNL     1      43.846 -20.362   1.345  1.00  0.00     0.169 HD
ENDBRANCH   2   5
BRANCH   1  19
HETATM   19  C   UNL     1      41.326 -14.853   0.787  1.00  0.00     0.158 A 
HETATM   20  C   UNL     1      39.968 -14.445   0.836  1.00  0.00     0.003 A 
HETATM   21  C   UNL     1      38.872 -14.910   1.718  1.00  0.00     0.054 C 
HETATM   22  C   UNL     1      39.876 -13.454  -0.120  1.00  0.00     0.129 A 
HETATM   23  N   UNL     1      41.108 -13.334  -0.722  1.00  0.00    -0.241 N 
HETATM   24  N   UNL     1      41.999 -14.165  -0.129  1.00  0.00    -0.149 NA
BRANCH  23  25
HETATM   25  C   UNL     1      41.540 -12.463  -1.766  1.00  0.00     0.079 A 
HETATM   26  C   UNL     1      42.263 -11.274  -1.573  1.00  0.00     0.062 A 
HETATM   27 CL   UNL     1      42.596 -10.536  -0.044  1.00  0.00    -0.082 Cl
HETATM   28  C   UNL     1      42.682 -10.525  -2.686  1.00  0.00     0.026 A 
HETATM   29  C   UNL     1      42.380 -10.932  -3.985  1.00  0.00     0.002 A 
HETATM   30  C   UNL     1      41.637 -12.087  -4.185  1.00  0.00     0.002 A 
HETATM   31  C   UNL     1      41.215 -12.841  -3.088  1.00  0.00     0.033 A 
ENDBRANCH  23  25
ENDBRANCH   1  19
TORSDOF 3
ENDMDL
MODEL 3
REMARK VINA RESULT:      -8.6      1.574      2.328
REMARK  3 active torsions:
REMARK  status: ('A' for Active; 'I' for Inactive)
REMARK    1  A    between atoms: C_3  and  N_4 
REMARK       I    between atoms: N_4  and  C_5 
REMARK    2  A    between atoms: C_5  and  C_6 
REMARK    3  A    between atoms: N_20  and  C_21 
ROOT
HETATM    1  N   UNL     1      42.013 -15.764   0.910  1.00  0.00    -0.305 N 
HETATM    2  C   UNL     1      42.590 -15.754   2.164  1.00  0.00     0.257 C 
HETATM    3  O   UNL     1      42.660 -14.825   2.958  1.00  0.00    -0.267 OA
HETATM    4  H   UNL     1      41.917 -16.639   0.422  1.00  0.00     0.170 HD
ENDROOT
BRANCH   2   5
HETATM    5  C   UNL     1      43.146 -17.069   2.597  1.00  0.00     0.034 A 
HETATM    6  C   UNL     1      43.045 -17.419   3.950  1.00  0.00     0.049 A 
HETATM    7  C   UNL     1      43.546 -18.645   4.385  1.00  0.00     0.063 A 
HETATM    8  C   UNL     1      44.156 -19.519   3.479  1.00  0.00     0.062 A 
HETATM    9  N   UNL     1      43.435 -19.001   5.731  1.00  0.00    -0.317 N 
HETATM   10  N   UNL     1      44.648 -20.748   3.921  1.00  0.00    -0.317 N 
HETATM   11  C   UNL     1      44.282 -19.166   2.136  1.00  0.00     0.033 A 
HETATM   12  C   UNL     1      44.566 -21.168   5.231  1.00  0.00     0.314 A 
HETATM   13  H   UNL     1      45.092 -21.394   3.283  1.00  0.00     0.169 HD
HETATM   14  O   UNL     1      45.000 -22.257   5.582  1.00  0.00    -0.262 OA
HETATM   15  C   UNL     1      43.899 -20.197   6.237  1.00  0.00     0.314 A 
HETATM   16  O   UNL     1      43.787 -20.482   7.421  1.00  0.00    -0.262 OA
HETATM   17  C   UNL     1      43.782 -17.937   1.694  1.00  0.00     0.019 A 
HETATM   18  H   UNL     1      43.007 -18.376   6.400  1.00  0.00     0.169 HD
ENDBRANCH   2   5
BRANCH   1  19
HETATM   19  C   UNL     1      41.473 -14.664   0.272  1.00  0.00     0.158 A 
HETATM   20  C   UNL     1      40.146 -14.202   0.463  1.00  0.00     0.003 A 
HETATM   21  C   UNL     1      39.082 -14.722   1.353  1.00  0.00     0.054 C 
HETATM   22  C   UNL     1      40.051 -13.094  -0.355  1.00  0.00     0.129 A 
HETATM   23  N   UNL     1      41.249 -12.959  -1.020  1.00  0.00    -0.241 N 
HETATM   24  N   UNL     1      42.126 -13.899  -0.596  1.00  0.00    -0.149 NA
BRANCH  23  25
HETATM   25  C   UNL     1      41.663 -11.983  -1.976  1.00  0.00     0.079 A 
HETATM   26  C   UNL     1      42.142 -10.701  -1.660  1.00  0.00     0.062 A 
HETATM   27 CL   UNL     1      42.137  -9.986  -0.085  1.00  0.00    -0.082 Cl
HETATM   28  C   UNL     1      42.575  -9.846  -2.688  1.00  0.00     0.026 A 
HETATM   29  C   UNL     1      42.524 -10.241  -4.024  1.00  0.00     0.002 A 
HETATM   30  C   UNL     1      42.020 -11.492  -4.350  1.00  0.00     0.002 A 
HETATM   31  C   UNL     1      41.587 -12.352  -3.338  1.00  0.00     0.033 A 
ENDBRANCH  23  25
ENDBRANCH   1  19
TORSDOF 3
ENDMDL
MODEL 4
REMARK VINA RESULT:      -8.5      3.653      9.570
REMARK  3 active torsions:
REMARK  status: ('A' for Active; 'I' for Inactive)
REMARK    1  A    between atoms: C_3  and  N_4 
REMARK       I    between atoms: N_4  and  C_5 
REMARK    2  A    between atoms: C_5  and  C_6 
REMARK    3  A    between atoms: N_20  and  C_21 
ROOT
HETATM    1  N   UNL     1      42.005 -15.521   1.030  1.00  0.00    -0.305 N 
HETATM    2  C   UNL     1      40.647 -15.318   0.886  1.00  0.00     0.257 C 
HETATM    3  O   UNL     1      39.737 -15.766   1.573  1.00  0.00    -0.267 OA
HETATM    4  H   UNL     1      42.642 -14.983   0.468  1.00  0.00     0.170 HD
ENDROOT
BRANCH   2   5
HETATM    5  C   UNL     1      40.276 -14.395  -0.225  1.00  0.00     0.034 A 
HETATM    6  C   UNL     1      41.294 -13.928  -1.067  1.00  0.00     0.049 A 
HETATM    7  C   UNL     1      40.980 -13.073  -2.121  1.00  0.00     0.063 A 
HETATM    8  C   UNL     1      39.657 -12.672  -2.334  1.00  0.00     0.062 A 
HETATM    9  N   UNL     1      41.992 -12.615  -2.969  1.00  0.00    -0.317 N 
HETATM   10  N   UNL     1      39.349 -11.822  -3.397  1.00  0.00    -0.317 N 
HETATM   11  C   UNL     1      38.643 -13.113  -1.485  1.00  0.00     0.033 A 
HETATM   12  C   UNL     1      40.294 -11.338  -4.276  1.00  0.00     0.314 A 
HETATM   13  H   UNL     1      38.399 -11.521  -3.568  1.00  0.00     0.169 HD
HETATM   14  O   UNL     1      39.987 -10.601  -5.204  1.00  0.00    -0.262 OA
HETATM   15  C   UNL     1      41.761 -11.774  -4.036  1.00  0.00     0.314 A 
HETATM   16  O   UNL     1      42.668 -11.390  -4.762  1.00  0.00    -0.262 OA
HETATM   17  C   UNL     1      38.952 -13.972  -0.425  1.00  0.00     0.019 A 
HETATM   18  H   UNL     1      42.954 -12.887  -2.821  1.00  0.00     0.169 HD
ENDBRANCH   2   5
BRANCH   1  19
HETATM   19  C   UNL     1      42.592 -16.365   1.953  1.00  0.00     0.158 A 
HETATM   20  C   UNL     1      43.023 -15.963   3.243  1.00  0.00     0.003 A 
HETATM   21  C   UNL     1      42.935 -14.637   3.899  1.00  0.00     0.054 C 
HETATM   22  C   UNL     1      43.529 -17.116   3.807  1.00  0.00     0.129 A 
HETATM   23  N   UNL     1      43.439 -18.119   2.868  1.00  0.00    -0.241 N 
HETATM   24  N   UNL     1      42.823 -17.658   1.753  1.00  0.00    -0.149 NA
BRANCH  23  25
HETATM   25  C   UNL     1      43.823 -19.491   2.949  1.00  0.00     0.079 A 
HETATM   26  C   UNL     1      44.502 -20.073   4.032  1.00  0.00     0.062 A 
HETATM   27 CL   UNL     1      45.174 -19.216   5.376  1.00  0.00    -0.082 Cl
HETATM   28  C   UNL     1      44.778 -21.451   4.021  1.00  0.00     0.026 A 
HETATM   29  C   UNL     1      44.405 -22.253   2.944  1.00  0.00     0.002 A 
HETATM   30  C   UNL     1      43.765 -21.682   1.854  1.00  0.00     0.002 A 
HETATM   31  C   UNL     1      43.483 -20.314   1.851  1.00  0.00     0.033 A 
ENDBRANCH  23  25
ENDBRANCH   1  19
TORSDOF 3
ENDMDL
MODEL 5
REMARK VINA RESULT:      -8.4      4.158      9.506
REMARK  3 active torsions:
REMARK  status: ('A' for Active; 'I' for Inactive)
REMARK    1  A    between atoms: C_3  and  N_4 
REMARK       I    between atoms: N_4  and  C_5 
REMARK    2  A    between atoms: C_5  and  C_6 
REMARK    3  A    between atoms: N_20  and  C_21 
ROOT
HETATM    1  N   UNL     1      40.614 -15.667   1.293  1.00  0.00    -0.305 N 
HETATM    2  C   UNL     1      41.021 -14.415   0.880  1.00  0.00     0.257 C 
HETATM    3  O   UNL     1      42.051 -13.819   1.170  1.00  0.00    -0.267 OA
HETATM    4  H   UNL     1      39.801 -16.082   0.870  1.00  0.00     0.170 HD
ENDROOT
BRANCH   2   5
HETATM    5  C   UNL     1      40.090 -13.749  -0.077  1.00  0.00     0.034 A 
HETATM    6  C   UNL     1      39.489 -14.532  -1.070  1.00  0.00     0.049 A 
HETATM    7  C   UNL     1      38.606 -13.943  -1.974  1.00  0.00     0.063 A 
HETATM    8  C   UNL     1      38.328 -12.574  -1.898  1.00  0.00     0.062 A 
HETATM    9  N   UNL     1      37.996 -14.725  -2.958  1.00  0.00    -0.317 N 
HETATM   10  N   UNL     1      37.437 -11.994  -2.801  1.00  0.00    -0.317 N 
HETATM   11  C   UNL     1      38.942 -11.785  -0.927  1.00  0.00     0.033 A 
HETATM   12  C   UNL     1      36.793 -12.704  -3.791  1.00  0.00     0.314 A 
HETATM   13  H   UNL     1      37.222 -11.006  -2.763  1.00  0.00     0.169 HD
HETATM   14  O   UNL     1      36.010 -12.164  -4.561  1.00  0.00    -0.262 OA
HETATM   15  C   UNL     1      37.108 -14.218  -3.882  1.00  0.00     0.314 A 
HETATM   16  O   UNL     1      36.588 -14.928  -4.733  1.00  0.00    -0.262 OA
HETATM   17  C   UNL     1      39.829 -12.370  -0.018  1.00  0.00     0.019 A 
HETATM   18  H   UNL     1      38.195 -15.713  -3.033  1.00  0.00     0.169 HD
ENDBRANCH   2   5
BRANCH   1  19
HETATM   19  C   UNL     1      41.279 -16.460   2.209  1.00  0.00     0.158 A 
HETATM   20  C   UNL     1      41.312 -16.212   3.605  1.00  0.00     0.003 A 
HETATM   21  C   UNL     1      40.666 -15.134   4.389  1.00  0.00     0.054 C 
HETATM   22  C   UNL     1      42.069 -17.246   4.116  1.00  0.00     0.129 A 
HETATM   23  N   UNL     1      42.492 -18.021   3.059  1.00  0.00    -0.241 N 
HETATM   24  N   UNL     1      41.965 -17.555   1.901  1.00  0.00    -0.149 NA
BRANCH  23  25
HETATM   25  C   UNL     1      43.297 -19.199   3.048  1.00  0.00     0.079 A 
HETATM   26  C   UNL     1      44.232 -19.543   4.037  1.00  0.00     0.062 A 
HETATM   27 CL   UNL     1      44.732 -18.527   5.345  1.00  0.00    -0.082 Cl
HETATM   28  C   UNL     1      44.928 -20.761   3.945  1.00  0.00     0.026 A 
HETATM   29  C   UNL     1      44.719 -21.632   2.876  1.00  0.00     0.002 A 
HETATM   30  C   UNL     1      43.823 -21.285   1.875  1.00  0.00     0.002 A 
HETATM   31  C   UNL     1      43.124 -20.078   1.955  1.00  0.00     0.033 A 
ENDBRANCH  23  25
ENDBRANCH   1  19
TORSDOF 3
ENDMDL
MODEL 6
REMARK VINA RESULT:      -8.4      4.509      9.360
REMARK  3 active torsions:
REMARK  status: ('A' for Active; 'I' for Inactive)
REMARK    1  A    between atoms: C_3  and  N_4 
REMARK       I    between atoms: N_4  and  C_5 
REMARK    2  A    between atoms: C_5  and  C_6 
REMARK    3  A    between atoms: N_20  and  C_21 
ROOT
HETATM    1  N   UNL     1      42.055 -16.134   3.513  1.00  0.00    -0.305 N 
HETATM    2  C   UNL     1      40.775 -15.736   3.185  1.00  0.00     0.257 C 
HETATM    3  O   UNL     1      39.934 -16.347   2.539  1.00  0.00    -0.267 OA
HETATM    4  H   UNL     1      42.590 -15.580   4.160  1.00  0.00     0.170 HD
ENDROOT
BRANCH   2   5
HETATM    5  C   UNL     1      40.381 -14.410   3.743  1.00  0.00     0.034 A 
HETATM    6  C   UNL     1      40.216 -14.296   5.130  1.00  0.00     0.049 A 
HETATM    7  C   UNL     1      39.858 -13.068   5.684  1.00  0.00     0.063 A 
HETATM    8  C   UNL     1      39.655 -11.956   4.861  1.00  0.00     0.062 A 
HETATM    9  N   UNL     1      39.705 -12.950   7.067  1.00  0.00    -0.317 N 
HETATM   10  N   UNL     1      39.304 -10.728   5.425  1.00  0.00    -0.317 N 
HETATM   11  C   UNL     1      39.793 -12.068   3.478  1.00  0.00     0.033 A 
HETATM   12  C   UNL     1      39.143 -10.536   6.780  1.00  0.00     0.314 A 
HETATM   13  H   UNL     1      39.153  -9.911   4.847  1.00  0.00     0.169 HD
HETATM   14  O   UNL     1      38.845  -9.442   7.240  1.00  0.00    -0.262 OA
HETATM   15  C   UNL     1      39.360 -11.770   7.691  1.00  0.00     0.314 A 
HETATM   16  O   UNL     1      39.233 -11.697   8.906  1.00  0.00    -0.262 OA
HETATM   17  C   UNL     1      40.151 -13.297   2.917  1.00  0.00     0.019 A 
HETATM   18  H   UNL     1      39.838 -13.747   7.674  1.00  0.00     0.169 HD
ENDBRANCH   2   5
BRANCH   1  19
HETATM   19  C   UNL     1      42.665 -17.296   3.080  1.00  0.00     0.158 A 
HETATM   20  C   UNL     1      42.977 -17.577   1.725  1.00  0.00     0.003 A 
HETATM   21  C   UNL     1      42.773 -16.746   0.516  1.00  0.00     0.054 C 
HETATM   22  C   UNL     1      43.573 -18.821   1.764  1.00  0.00     0.129 A 
HETATM   23  N   UNL     1      43.558 -19.254   3.071  1.00  0.00    -0.241 N 
HETATM   24  N   UNL     1      43.039 -18.294   3.874  1.00  0.00    -0.149 NA
BRANCH  23  25
HETATM   25  C   UNL     1      44.045 -20.467   3.643  1.00  0.00     0.079 A 
HETATM   26  C   UNL     1      44.311 -21.644   2.925  1.00  0.00     0.062 A 
HETATM   27 CL   UNL     1      43.920 -21.918   1.262  1.00  0.00    -0.082 Cl
HETATM   28  C   UNL     1      44.843 -22.762   3.591  1.00  0.00     0.026 A 
HETATM   29  C   UNL     1      45.098 -22.731   4.961  1.00  0.00     0.002 A 
HETATM   30  C   UNL     1      44.806 -21.585   5.686  1.00  0.00     0.002 A 
HETATM   31  C   UNL     1      44.278 -20.467   5.037  1.00  0.00     0.033 A 
ENDBRANCH  23  25
ENDBRANCH   1  19
TORSDOF 3
ENDMDL
MODEL 7
REMARK VINA RESULT:      -8.3      4.146     10.055
REMARK  3 active torsions:
REMARK  status: ('A' for Active; 'I' for Inactive)
REMARK    1  A    between atoms: C_3  and  N_4 
REMARK       I    between atoms: N_4  and  C_5 
REMARK    2  A    between atoms: C_5  and  C_6 
REMARK    3  A    between atoms: N_20  and  C_21 
ROOT
HETATM    1  N   UNL     1      41.542 -14.635  -0.111  1.00  0.00    -0.305 N 
HETATM    2  C   UNL     1      41.119 -14.780  -1.417  1.00  0.00     0.257 C 
HETATM    3  O   UNL     1      40.571 -15.746  -1.932  1.00  0.00    -0.267 OA
HETATM    4  H   UNL     1      41.860 -13.734   0.204  1.00  0.00     0.170 HD
ENDROOT
BRANCH   2   5
HETATM    5  C   UNL     1      41.326 -13.573  -2.269  1.00  0.00     0.034 A 
HETATM    6  C   UNL     1      40.247 -13.109  -3.033  1.00  0.00     0.049 A 
HETATM    7  C   UNL     1      40.405 -11.978  -3.832  1.00  0.00     0.063 A 
HETATM    8  C   UNL     1      41.635 -11.314  -3.880  1.00  0.00     0.062 A 
HETATM    9  N   UNL     1      39.328 -11.506  -4.586  1.00  0.00    -0.317 N 
HETATM   10  N   UNL     1      41.781 -10.177  -4.677  1.00  0.00    -0.317 N 
HETATM   11  C   UNL     1      42.719 -11.785  -3.141  1.00  0.00     0.033 A 
HETATM   12  C   UNL     1      40.761  -9.651  -5.440  1.00  0.00     0.314 A 
HETATM   13  H   UNL     1      42.662  -9.682  -4.725  1.00  0.00     0.169 HD
HETATM   14  O   UNL     1      40.923  -8.646  -6.120  1.00  0.00    -0.262 OA
HETATM   15  C   UNL     1      39.402 -10.391  -5.395  1.00  0.00     0.314 A 
HETATM   16  O   UNL     1      38.440 -10.001  -6.043  1.00  0.00    -0.262 OA
HETATM   17  C   UNL     1      42.567 -12.920  -2.338  1.00  0.00     0.019 A 
HETATM   18  H   UNL     1      38.436 -11.981  -4.571  1.00  0.00     0.169 HD
ENDBRANCH   2   5
BRANCH   1  19
HETATM   19  C   UNL     1      41.501 -15.622   0.855  1.00  0.00     0.158 A 
HETATM   20  C   UNL     1      40.397 -15.851   1.716  1.00  0.00     0.003 A 
HETATM   21  C   UNL     1      39.087 -15.162   1.778  1.00  0.00     0.054 C 
HETATM   22  C   UNL     1      40.790 -16.921   2.495  1.00  0.00     0.129 A 
HETATM   23  N   UNL     1      42.076 -17.255   2.133  1.00  0.00    -0.241 N 
HETATM   24  N   UNL     1      42.484 -16.482   1.098  1.00  0.00    -0.149 NA
BRANCH  23  25
HETATM   25  C   UNL     1      42.933 -18.281   2.632  1.00  0.00     0.079 A 
HETATM   26  C   UNL     1      43.553 -18.268   3.892  1.00  0.00     0.062 A 
HETATM   27 CL   UNL     1      43.561 -16.935   4.995  1.00  0.00    -0.082 Cl
HETATM   28  C   UNL     1      44.334 -19.365   4.296  1.00  0.00     0.026 A 
HETATM   29  C   UNL     1      44.520 -20.464   3.459  1.00  0.00     0.002 A 
HETATM   30  C   UNL     1      43.941 -20.472   2.199  1.00  0.00     0.002 A 
HETATM   31  C   UNL     1      43.162 -19.389   1.785  1.00  0.00     0.033 A 
ENDBRANCH  23  25
ENDBRANCH   1  19
TORSDOF 3
ENDMDL
MODEL 8
REMARK VINA RESULT:      -8.1      3.748      4.885
REMARK  3 active torsions:
REMARK  status: ('A' for Active; 'I' for Inactive)
REMARK    1  A    between atoms: C_3  and  N_4 
REMARK       I    between atoms: N_4  and  C_5 
REMARK    2  A    between atoms: C_5  and  C_6 
REMARK    3  A    between atoms: N_20  and  C_21 
ROOT
HETATM    1  N   UNL     1      41.392 -15.643   4.040  1.00  0.00    -0.305 N 
HETATM    2  C   UNL     1      42.694 -15.833   3.623  1.00  0.00     0.257 C 
HETATM    3  O   UNL     1      43.470 -15.006   3.160  1.00  0.00    -0.267 OA
HETATM    4  H   UNL     1      40.918 -16.390   4.520  1.00  0.00     0.170 HD
ENDROOT
BRANCH   2   5
HETATM    5  C   UNL     1      43.207 -17.220   3.818  1.00  0.00     0.034 A 
HETATM    6  C   UNL     1      43.118 -18.117   2.746  1.00  0.00     0.049 A 
HETATM    7  C   UNL     1      43.598 -19.417   2.892  1.00  0.00     0.063 A 
HETATM    8  C   UNL     1      44.157 -19.831   4.106  1.00  0.00     0.062 A 
HETATM    9  N   UNL     1      43.521 -20.310   1.820  1.00  0.00    -0.317 N 
HETATM   10  N   UNL     1      44.642 -21.132   4.241  1.00  0.00    -0.317 N 
HETATM   11  C   UNL     1      44.226 -18.950   5.185  1.00  0.00     0.033 A 
HETATM   12  C   UNL     1      44.606 -22.062   3.225  1.00  0.00     0.314 A 
HETATM   13  H   UNL     1      45.051 -21.450   5.110  1.00  0.00     0.169 HD
HETATM   14  O   UNL     1      45.050 -23.193   3.377  1.00  0.00    -0.262 OA
HETATM   15  C   UNL     1      43.979 -21.609   1.884  1.00  0.00     0.314 A 
HETATM   16  O   UNL     1      43.899 -22.368   0.927  1.00  0.00    -0.262 OA
HETATM   17  C   UNL     1      43.746 -17.645   5.044  1.00  0.00     0.019 A 
HETATM   18  H   UNL     1      43.110 -20.030   0.940  1.00  0.00     0.169 HD
ENDBRANCH   2   5
BRANCH   1  19
HETATM   19  C   UNL     1      40.680 -14.465   3.922  1.00  0.00     0.158 A 
HETATM   20  C   UNL     1      39.785 -14.175   2.860  1.00  0.00     0.003 A 
HETATM   21  C   UNL     1      39.387 -15.012   1.704  1.00  0.00     0.054 C 
HETATM   22  C   UNL     1      39.305 -12.915   3.154  1.00  0.00     0.129 A 
HETATM   23  N   UNL     1      39.933 -12.483   4.301  1.00  0.00    -0.241 N 
HETATM   24  N   UNL     1      40.740 -13.457   4.786  1.00  0.00    -0.149 NA
BRANCH  23  25
HETATM   25  C   UNL     1      39.795 -11.257   5.017  1.00  0.00     0.079 A 
HETATM   26  C   UNL     1      39.705  -9.986   4.426  1.00  0.00     0.062 A 
HETATM   27 CL   UNL     1      39.941  -9.639   2.748  1.00  0.00    -0.082 Cl
HETATM   28  C   UNL     1      39.515  -8.853   5.235  1.00  0.00     0.026 A 
HETATM   29  C   UNL     1      39.429  -8.963   6.622  1.00  0.00     0.002 A 
HETATM   30  C   UNL     1      39.551 -10.210   7.219  1.00  0.00     0.002 A 
HETATM   31  C   UNL     1      39.740 -11.344   6.427  1.00  0.00     0.033 A 
ENDBRANCH  23  25
ENDBRANCH   1  19
TORSDOF 3
ENDMDL
MODEL 9
REMARK VINA RESULT:      -8.1      3.843      9.708
REMARK  3 active torsions:
REMARK  status: ('A' for Active; 'I' for Inactive)
REMARK    1  A    between atoms: C_3  and  N_4 
REMARK       I    between atoms: N_4  and  C_5 
REMARK    2  A    between atoms: C_5  and  C_6 
REMARK    3  A    between atoms: N_20  and  C_21 
ROOT
HETATM    1  N   UNL     1      41.413 -15.949   3.040  1.00  0.00    -0.305 N 
HETATM    2  C   UNL     1      41.147 -16.215   1.712  1.00  0.00     0.257 C 
HETATM    3  O   UNL     1      41.590 -17.120   1.017  1.00  0.00    -0.267 OA
HETATM    4  H   UNL     1      40.875 -15.245   3.516  1.00  0.00     0.170 HD
ENDROOT
BRANCH   2   5
HETATM    5  C   UNL     1      40.155 -15.293   1.086  1.00  0.00     0.034 A 
HETATM    6  C   UNL     1      40.482 -14.701  -0.141  1.00  0.00     0.049 A 
HETATM    7  C   UNL     1      39.572 -13.843  -0.757  1.00  0.00     0.063 A 
HETATM    8  C   UNL     1      38.343 -13.565  -0.151  1.00  0.00     0.062 A 
HETATM    9  N   UNL     1      39.891 -13.261  -1.986  1.00  0.00    -0.317 N 
HETATM   10  N   UNL     1      37.435 -12.711  -0.779  1.00  0.00    -0.317 N 
HETATM   11  C   UNL     1      38.022 -14.131   1.082  1.00  0.00     0.033 A 
HETATM   12  C   UNL     1      37.679 -12.109  -1.994  1.00  0.00     0.314 A 
HETATM   13  H   UNL     1      36.540 -12.498  -0.357  1.00  0.00     0.169 HD
HETATM   14  O   UNL     1      36.855 -11.373  -2.520  1.00  0.00    -0.262 OA
HETATM   15  C   UNL     1      39.044 -12.409  -2.661  1.00  0.00     0.314 A 
HETATM   16  O   UNL     1      39.350 -11.914  -3.738  1.00  0.00    -0.262 OA
HETATM   17  C   UNL     1      38.931 -14.992   1.705  1.00  0.00     0.019 A 
HETATM   18  H   UNL     1      40.780 -13.444  -2.432  1.00  0.00     0.169 HD
ENDBRANCH   2   5
BRANCH   1  19
HETATM   19  C   UNL     1      42.326 -16.630   3.822  1.00  0.00     0.158 A 
HETATM   20  C   UNL     1      43.167 -16.016   4.786  1.00  0.00     0.003 A 
HETATM   21  C   UNL     1      43.256 -14.595   5.195  1.00  0.00     0.054 C 
HETATM   22  C   UNL     1      43.891 -17.062   5.320  1.00  0.00     0.129 A 
HETATM   23  N   UNL     1      43.521 -18.212   4.659  1.00  0.00    -0.241 N 
HETATM   24  N   UNL     1      42.531 -17.942   3.775  1.00  0.00    -0.149 NA
BRANCH  23  25
HETATM   25  C   UNL     1      43.971 -19.555   4.830  1.00  0.00     0.079 A 
HETATM   26  C   UNL     1      44.024 -20.236   6.057  1.00  0.00     0.062 A 
HETATM   27 CL   UNL     1      43.747 -19.529   7.611  1.00  0.00    -0.082 Cl
HETATM   28  C   UNL     1      44.434 -21.580   6.091  1.00  0.00     0.026 A 
HETATM   29  C   UNL     1      44.808 -22.249   4.927  1.00  0.00     0.002 A 
HETATM   30  C   UNL     1      44.793 -21.576   3.714  1.00  0.00     0.002 A 
HETATM   31  C   UNL     1      44.386 -20.241   3.666  1.00  0.00     0.033 A 
ENDBRANCH  23  25
ENDBRANCH   1  19
TORSDOF 3
ENDMDL
MODEL 10
REMARK VINA RESULT:      -8.0      2.229      3.073
REMARK  3 active torsions:
REMARK  status: ('A' for Active; 'I' for Inactive)
REMARK    1  A    between atoms: C_3  and  N_4 
REMARK       I    between atoms: N_4  and  C_5 
REMARK    2  A    between atoms: C_5  and  C_6 
REMARK    3  A    between atoms: N_20  and  C_21 
ROOT
HETATM    1  N   UNL     1      41.633 -15.866   2.116  1.00  0.00    -0.305 N 
HETATM    2  C   UNL     1      42.847 -15.724   2.757  1.00  0.00     0.257 C 
HETATM    3  O   UNL     1      43.537 -14.717   2.858  1.00  0.00    -0.267 OA
HETATM    4  H   UNL     1      41.119 -16.724   2.226  1.00  0.00     0.170 HD
ENDROOT
BRANCH   2   5
HETATM    5  C   UNL     1      43.328 -16.957   3.445  1.00  0.00     0.034 A 
HETATM    6  C   UNL     1      43.492 -18.121   2.682  1.00  0.00     0.049 A 
HETATM    7  C   UNL     1      43.950 -19.287   3.292  1.00  0.00     0.063 A 
HETATM    8  C   UNL     1      44.237 -19.301   4.661  1.00  0.00     0.062 A 
HETATM    9  N   UNL     1      44.125 -20.445   2.532  1.00  0.00    -0.317 N 
HETATM   10  N   UNL     1      44.703 -20.471   5.263  1.00  0.00    -0.317 N 
HETATM   11  C   UNL     1      44.052 -18.153   5.431  1.00  0.00     0.033 A 
HETATM   12  C   UNL     1      44.906 -21.647   4.574  1.00  0.00     0.314 A 
HETATM   13  H   UNL     1      44.916 -20.502   6.251  1.00  0.00     0.169 HD
HETATM   14  O   UNL     1      45.326 -22.652   5.132  1.00  0.00    -0.262 OA
HETATM   15  C   UNL     1      44.580 -21.635   3.059  1.00  0.00     0.314 A 
HETATM   16  O   UNL     1      44.725 -22.633   2.367  1.00  0.00    -0.262 OA
HETATM   17  C   UNL     1      43.592 -16.980   4.824  1.00  0.00     0.019 A 
HETATM   18  H   UNL     1      43.912 -20.454   1.543  1.00  0.00     0.169 HD
ENDBRANCH   2   5
BRANCH   1  19
HETATM   19  C   UNL     1      41.004 -14.886   1.373  1.00  0.00     0.158 A 
HETATM   20  C   UNL     1      40.885 -14.907  -0.041  1.00  0.00     0.003 A 
HETATM   21  C   UNL     1      41.346 -15.926  -1.013  1.00  0.00     0.054 C 
HETATM   22  C   UNL     1      40.188 -13.755  -0.341  1.00  0.00     0.129 A 
HETATM   23  N   UNL     1      39.961 -13.081   0.838  1.00  0.00    -0.241 N 
HETATM   24  N   UNL     1      40.427 -13.804   1.885  1.00  0.00    -0.149 NA
BRANCH  23  25
HETATM   25  C   UNL     1      39.290 -11.845   1.075  1.00  0.00     0.079 A 
HETATM   26  C   UNL     1      39.834 -10.574   0.827  1.00  0.00     0.062 A 
HETATM   27 CL   UNL     1      41.474 -10.252   0.378  1.00  0.00    -0.082 Cl
HETATM   28  C   UNL     1      39.053  -9.426   1.048  1.00  0.00     0.026 A 
HETATM   29  C   UNL     1      37.748  -9.523   1.528  1.00  0.00     0.002 A 
HETATM   30  C   UNL     1      37.213 -10.772   1.810  1.00  0.00     0.002 A 
HETATM   31  C   UNL     1      37.977 -11.921   1.593  1.00  0.00     0.033 A 
ENDBRANCH  23  25
ENDBRANCH   1  19
TORSDOF 3
ENDMDL
