MODEL 1
REMARK VINA RESULT:      -8.0      0.000      0.000
REMARK  5 active torsions:
REMARK  status: ('A' for Active; 'I' for Inactive)
REMARK    1  A    between atoms: C_8  and  C_9 
REMARK    2  A    between atoms: N_10  and  N_11 
REMARK       I    between atoms: N_11  and  C_12 
REMARK    3  A    between atoms: C_12  and  C_13 
REMARK    4  A    between atoms: C_13  and  N_14 
REMARK    5  A    between atoms: N_14  and  C_15 
ROOT
HETATM    1  N   UNL     1      39.584 -16.141   1.924  1.00  0.00    -0.246 N 
HETATM    2  C   UNL     1      39.197 -14.814   2.111  1.00  0.00     0.250 C 
HETATM    3  O   UNL     1      39.543 -14.092   3.044  1.00  0.00    -0.270 OA
HETATM    4  H   UNL     1      39.445 -16.558   1.008  1.00  0.00     0.192 HD
ENDROOT
BRANCH   1   5
HETATM    5  N   UNL     1      40.480 -16.832   2.706  1.00  0.00    -0.184 NA
HETATM    6  C   UNL     1      41.727 -16.842   2.353  1.00  0.00     0.152 C 
BRANCH   6   7
HETATM    7  C   UNL     1      42.691 -17.588   3.139  1.00  0.00     0.011 A 
HETATM    8  C   UNL     1      43.205 -18.894   2.852  1.00  0.00     0.004 A 
HETATM    9  C   UNL     1      42.987 -19.834   1.822  1.00  0.00     0.014 A 
HETATM   10  C   UNL     1      44.111 -19.219   3.864  1.00  0.00     0.043 A 
HETATM   11  C   UNL     1      43.678 -21.051   1.838  1.00  0.00     0.001 A 
HETATM   12  C   UNL     1      44.576 -21.342   2.861  1.00  0.00     0.002 A 
HETATM   13  C   UNL     1      44.809 -20.432   3.895  1.00  0.00     0.030 A 
HETATM   14  N   UNL     1      44.139 -18.157   4.737  1.00  0.00    -0.364 N 
HETATM   15  H   UNL     1      44.707 -18.117   5.573  1.00  0.00     0.165 HD
HETATM   16  C   UNL     1      43.292 -17.170   4.312  1.00  0.00     0.102 A 
ENDBRANCH   6   7
ENDBRANCH   1   5
BRANCH   2  17
HETATM   17  C   UNL     1      38.212 -14.332   1.043  1.00  0.00     0.197 C 
BRANCH  17  18
HETATM   18  N   UNL     1      38.875 -13.518   0.016  1.00  0.00    -0.283 NA
HETATM   19  H   UNL     1      39.724 -13.048   0.331  1.00  0.00     0.128 HD
BRANCH  18  20
HETATM   20  C   UNL     1      39.092 -14.136  -1.233  1.00  0.00     0.030 A 
HETATM   21  C   UNL     1      40.370 -14.615  -1.593  1.00  0.00     0.055 A 
HETATM   22 CL   UNL     1      41.683 -14.535  -0.467  1.00  0.00    -0.082 Cl
HETATM   23  C   UNL     1      40.605 -15.196  -2.842  1.00  0.00     0.026 A 
HETATM   24  C   UNL     1      39.570 -15.292  -3.769  1.00  0.00     0.002 A 
HETATM   25  C   UNL     1      38.306 -14.803  -3.446  1.00  0.00     0.002 A 
HETATM   26  C   UNL     1      38.074 -14.225  -2.194  1.00  0.00     0.025 A 
ENDBRANCH  18  20
ENDBRANCH  17  18
ENDBRANCH   2  17
TORSDOF 5
ENDMDL
MODEL 2
REMARK VINA RESULT:      -7.9      2.666      3.008
REMARK  5 active torsions:
REMARK  status: ('A' for Active; 'I' for Inactive)
REMARK    1  A    between atoms: C_8  and  C_9 
REMARK    2  A    between atoms: N_10  and  N_11 
REMARK       I    between atoms: N_11  and  C_12 
REMARK    3  A    between atoms: C_12  and  C_13 
REMARK    4  A    between atoms: C_13  and  N_14 
REMARK    5  A    between atoms: N_14  and  C_15 
ROOT
HETATM    1  N   UNL     1      42.555 -15.050   2.127  1.00  0.00    -0.246 N 
HETATM    2  C   UNL     1      42.808 -13.734   2.515  1.00  0.00     0.250 C 
HETATM    3  O   UNL     1      43.653 -13.379   3.334  1.00  0.00    -0.270 OA
HETATM    4  H   UNL     1      42.020 -15.207   1.278  1.00  0.00     0.192 HD
ENDROOT
BRANCH   1   5
HETATM    5  N   UNL     1      43.263 -16.156   2.537  1.00  0.00    -0.184 NA
HETATM    6  C   UNL     1      42.816 -16.833   3.548  1.00  0.00     0.152 C 
BRANCH   6   7
HETATM    7  C   UNL     1      43.556 -17.987   4.025  1.00  0.00     0.011 A 
HETATM    8  C   UNL     1      43.708 -19.244   3.356  1.00  0.00     0.004 A 
HETATM    9  C   UNL     1      43.246 -19.770   2.130  1.00  0.00     0.014 A 
HETATM   10  C   UNL     1      44.503 -20.056   4.168  1.00  0.00     0.043 A 
HETATM   11  C   UNL     1      43.594 -21.074   1.762  1.00  0.00     0.001 A 
HETATM   12  C   UNL     1      44.391 -21.857   2.594  1.00  0.00     0.002 A 
HETATM   13  C   UNL     1      44.860 -21.363   3.814  1.00  0.00     0.030 A 
HETATM   14  N   UNL     1      44.813 -19.325   5.290  1.00  0.00    -0.364 N 
HETATM   15  H   UNL     1      45.376 -19.665   6.058  1.00  0.00     0.165 HD
HETATM   16  C   UNL     1      44.251 -18.080   5.216  1.00  0.00     0.102 A 
ENDBRANCH   6   7
ENDBRANCH   1   5
BRANCH   2  17
HETATM   17  C   UNL     1      41.861 -12.732   1.850  1.00  0.00     0.197 C 
BRANCH  17  18
HETATM   18  N   UNL     1      42.558 -11.891   0.867  1.00  0.00    -0.283 NA
HETATM   19  H   UNL     1      43.552 -11.761   1.051  1.00  0.00     0.128 HD
BRANCH  18  20
HETATM   20  C   UNL     1      42.347 -12.205  -0.492  1.00  0.00     0.030 A 
HETATM   21  C   UNL     1      42.858 -11.378  -1.514  1.00  0.00     0.055 A 
HETATM   22 CL   UNL     1      43.835 -10.003  -1.121  1.00  0.00    -0.082 Cl
HETATM   23  C   UNL     1      42.624 -11.658  -2.863  1.00  0.00     0.026 A 
HETATM   24  C   UNL     1      41.856 -12.763  -3.220  1.00  0.00     0.002 A 
HETATM   25  C   UNL     1      41.319 -13.580  -2.227  1.00  0.00     0.002 A 
HETATM   26  C   UNL     1      41.558 -13.299  -0.878  1.00  0.00     0.025 A 
ENDBRANCH  18  20
ENDBRANCH  17  18
ENDBRANCH   2  17
TORSDOF 5
ENDMDL
MODEL 3
REMARK VINA RESULT:      -7.9      1.653      2.143
REMARK  5 active torsions:
REMARK  status: ('A' for Active; 'I' for Inactive)
REMARK    1  A    between atoms: C_8  and  C_9 
REMARK    2  A    between atoms: N_10  and  N_11 
REMARK       I    between atoms: N_11  and  C_12 
REMARK    3  A    between atoms: C_12  and  C_13 
REMARK    4  A    between atoms: C_13  and  N_14 
REMARK    5  A    between atoms: N_14  and  C_15 
ROOT
HETATM    1  N   UNL     1      40.901 -16.491   1.581  1.00  0.00    -0.246 N 
HETATM    2  C   UNL     1      40.210 -15.357   2.009  1.00  0.00     0.250 C 
HETATM    3  O   UNL     1      39.997 -15.048   3.180  1.00  0.00    -0.270 OA
HETATM    4  H   UNL     1      41.231 -16.520   0.621  1.00  0.00     0.192 HD
ENDROOT
BRANCH   1   5
HETATM    5  N   UNL     1      41.526 -17.404   2.398  1.00  0.00    -0.184 NA
HETATM    6  C   UNL     1      42.815 -17.336   2.525  1.00  0.00     0.152 C 
BRANCH   6   7
HETATM    7  C   UNL     1      43.508 -18.304   3.354  1.00  0.00     0.011 A 
HETATM    8  C   UNL     1      43.774 -19.674   3.033  1.00  0.00     0.004 A 
HETATM    9  C   UNL     1      43.490 -20.499   1.923  1.00  0.00     0.014 A 
HETATM   10  C   UNL     1      44.469 -20.229   4.110  1.00  0.00     0.043 A 
HETATM   11  C   UNL     1      43.911 -21.833   1.927  1.00  0.00     0.001 A 
HETATM   12  C   UNL     1      44.605 -22.354   3.016  1.00  0.00     0.002 A 
HETATM   13  C   UNL     1      44.897 -21.562   4.129  1.00  0.00     0.030 A 
HETATM   14  N   UNL     1      44.612 -19.238   5.052  1.00  0.00    -0.364 N 
HETATM   15  H   UNL     1      45.074 -19.357   5.943  1.00  0.00     0.165 HD
HETATM   16  C   UNL     1      44.040 -18.076   4.610  1.00  0.00     0.102 A 
ENDBRANCH   6   7
ENDBRANCH   1   5
BRANCH   2  17
HETATM   17  C   UNL     1      39.662 -14.528   0.845  1.00  0.00     0.197 C 
BRANCH  17  18
HETATM   18  N   UNL     1      40.088 -15.063  -0.455  1.00  0.00    -0.283 NA
HETATM   19  H   UNL     1      39.339 -15.479  -1.008  1.00  0.00     0.128 HD
BRANCH  18  20
HETATM   20  C   UNL     1      40.877 -14.213  -1.258  1.00  0.00     0.030 A 
HETATM   21  C   UNL     1      40.972 -14.414  -2.651  1.00  0.00     0.055 A 
HETATM   22 CL   UNL     1      40.046 -15.659  -3.421  1.00  0.00    -0.082 Cl
HETATM   23  C   UNL     1      41.779 -13.601  -3.451  1.00  0.00     0.026 A 
HETATM   24  C   UNL     1      42.528 -12.580  -2.872  1.00  0.00     0.002 A 
HETATM   25  C   UNL     1      42.471 -12.379  -1.494  1.00  0.00     0.002 A 
HETATM   26  C   UNL     1      41.659 -13.192  -0.697  1.00  0.00     0.025 A 
ENDBRANCH  18  20
ENDBRANCH  17  18
ENDBRANCH   2  17
TORSDOF 5
ENDMDL
MODEL 4
REMARK VINA RESULT:      -7.9      6.146      8.981
REMARK  5 active torsions:
REMARK  status: ('A' for Active; 'I' for Inactive)
REMARK    1  A    between atoms: C_8  and  C_9 
REMARK    2  A    between atoms: N_10  and  N_11 
REMARK       I    between atoms: N_11  and  C_12 
REMARK    3  A    between atoms: C_12  and  C_13 
REMARK    4  A    between atoms: C_13  and  N_14 
REMARK    5  A    between atoms: N_14  and  C_15 
ROOT
HETATM    1  N   UNL     1      43.644 -14.334   6.896  1.00  0.00    -0.246 N 
HETATM    2  C   UNL     1      44.789 -13.647   7.301  1.00  0.00     0.250 C 
HETATM    3  O   UNL     1      45.869 -13.646   6.713  1.00  0.00    -0.270 OA
HETATM    4  H   UNL     1      42.754 -14.071   7.309  1.00  0.00     0.192 HD
ENDROOT
BRANCH   1   5
HETATM    5  N   UNL     1      43.512 -15.056   5.733  1.00  0.00    -0.184 NA
HETATM    6  C   UNL     1      43.164 -16.302   5.818  1.00  0.00     0.152 C 
BRANCH   6   7
HETATM    7  C   UNL     1      43.047 -17.100   4.612  1.00  0.00     0.011 A 
HETATM    8  C   UNL     1      43.711 -18.339   4.335  1.00  0.00     0.004 A 
HETATM    9  C   UNL     1      44.623 -19.148   5.047  1.00  0.00     0.014 A 
HETATM   10  C   UNL     1      43.302 -18.758   3.068  1.00  0.00     0.043 A 
HETATM   11  C   UNL     1      45.086 -20.337   4.473  1.00  0.00     0.001 A 
HETATM   12  C   UNL     1      44.656 -20.728   3.208  1.00  0.00     0.002 A 
HETATM   13  C   UNL     1      43.756 -19.946   2.480  1.00  0.00     0.030 A 
HETATM   14  N   UNL     1      42.432 -17.808   2.588  1.00  0.00    -0.364 N 
HETATM   15  H   UNL     1      41.980 -17.848   1.685  1.00  0.00     0.165 HD
HETATM   16  C   UNL     1      42.269 -16.807   3.507  1.00  0.00     0.102 A 
ENDBRANCH   6   7
ENDBRANCH   1   5
BRANCH   2  17
HETATM   17  C   UNL     1      44.595 -12.912   8.630  1.00  0.00     0.197 C 
BRANCH  17  18
HETATM   18  N   UNL     1      43.579 -11.856   8.527  1.00  0.00    -0.283 NA
HETATM   19  H   UNL     1      42.687 -12.163   8.139  1.00  0.00     0.128 HD
BRANCH  18  20
HETATM   20  C   UNL     1      43.368 -11.071   9.679  1.00  0.00     0.030 A 
HETATM   21  C   UNL     1      42.281 -10.174   9.757  1.00  0.00     0.055 A 
HETATM   22 CL   UNL     1      41.127 -10.085   8.468  1.00  0.00    -0.082 Cl
HETATM   23  C   UNL     1      42.083  -9.364  10.878  1.00  0.00     0.026 A 
HETATM   24  C   UNL     1      42.981  -9.419  11.941  1.00  0.00     0.002 A 
HETATM   25  C   UNL     1      44.076 -10.277  11.877  1.00  0.00     0.002 A 
HETATM   26  C   UNL     1      44.269 -11.089  10.754  1.00  0.00     0.025 A 
ENDBRANCH  18  20
ENDBRANCH  17  18
ENDBRANCH   2  17
TORSDOF 5
ENDMDL
MODEL 5
REMARK VINA RESULT:      -7.8      1.829      2.137
REMARK  5 active torsions:
REMARK  status: ('A' for Active; 'I' for Inactive)
REMARK    1  A    between atoms: C_8  and  C_9 
REMARK    2  A    between atoms: N_10  and  N_11 
REMARK       I    between atoms: N_11  and  C_12 
REMARK    3  A    between atoms: C_12  and  C_13 
REMARK    4  A    between atoms: C_13  and  N_14 
REMARK    5  A    between atoms: N_14  and  C_15 
ROOT
HETATM    1  N   UNL     1      42.069 -15.344   1.569  1.00  0.00    -0.246 N 
HETATM    2  C   UNL     1      42.286 -13.967   1.531  1.00  0.00     0.250 C 
HETATM    3  O   UNL     1      42.890 -13.313   2.380  1.00  0.00    -0.270 OA
HETATM    4  H   UNL     1      41.783 -15.810   0.713  1.00  0.00     0.192 HD
ENDROOT
BRANCH   1   5
HETATM    5  N   UNL     1      42.564 -16.207   2.519  1.00  0.00    -0.184 NA
HETATM    6  C   UNL     1      43.210 -17.258   2.119  1.00  0.00     0.152 C 
BRANCH   6   7
HETATM    7  C   UNL     1      43.717 -18.204   3.095  1.00  0.00     0.011 A 
HETATM    8  C   UNL     1      43.920 -19.609   2.902  1.00  0.00     0.004 A 
HETATM    9  C   UNL     1      43.720 -20.493   1.820  1.00  0.00     0.014 A 
HETATM   10  C   UNL     1      44.429 -20.126   4.095  1.00  0.00     0.043 A 
HETATM   11  C   UNL     1      44.037 -21.848   1.967  1.00  0.00     0.001 A 
HETATM   12  C   UNL     1      44.545 -22.331   3.170  1.00  0.00     0.002 A 
HETATM   13  C   UNL     1      44.751 -21.479   4.258  1.00  0.00     0.030 A 
HETATM   14  N   UNL     1      44.524 -19.079   4.981  1.00  0.00    -0.364 N 
HETATM   15  H   UNL     1      44.858 -19.161   5.931  1.00  0.00     0.165 HD
HETATM   16  C   UNL     1      44.100 -17.919   4.392  1.00  0.00     0.102 A 
ENDBRANCH   6   7
ENDBRANCH   1   5
BRANCH   2  17
HETATM   17  C   UNL     1      41.625 -13.300   0.322  1.00  0.00     0.197 C 
BRANCH  17  18
HETATM   18  N   UNL     1      40.277 -13.829   0.075  1.00  0.00    -0.283 NA
HETATM   19  H   UNL     1      39.520 -13.214   0.374  1.00  0.00     0.128 HD
BRANCH  18  20
HETATM   20  C   UNL     1      40.024 -14.326  -1.220  1.00  0.00     0.030 A 
HETATM   21  C   UNL     1      38.850 -13.968  -1.917  1.00  0.00     0.055 A 
HETATM   22 CL   UNL     1      37.736 -12.834  -1.230  1.00  0.00    -0.082 Cl
HETATM   23  C   UNL     1      38.570 -14.483  -3.185  1.00  0.00     0.026 A 
HETATM   24  C   UNL     1      39.449 -15.386  -3.778  1.00  0.00     0.002 A 
HETATM   25  C   UNL     1      40.602 -15.775  -3.098  1.00  0.00     0.002 A 
HETATM   26  C   UNL     1      40.880 -15.254  -1.830  1.00  0.00     0.025 A 
ENDBRANCH  18  20
ENDBRANCH  17  18
ENDBRANCH   2  17
TORSDOF 5
ENDMDL
MODEL 6
REMARK VINA RESULT:      -7.4      1.969      2.857
REMARK  5 active torsions:
REMARK  status: ('A' for Active; 'I' for Inactive)
REMARK    1  A    between atoms: C_8  and  C_9 
REMARK    2  A    between atoms: N_10  and  N_11 
REMARK       I    between atoms: N_11  and  C_12 
REMARK    3  A    between atoms: C_12  and  C_13 
REMARK    4  A    between atoms: C_13  and  N_14 
REMARK    5  A    between atoms: N_14  and  C_15 
ROOT
HETATM    1  N   UNL     1      42.047 -16.071  -0.120  1.00  0.00    -0.246 N 
HETATM    2  C   UNL     1      41.686 -14.724  -0.156  1.00  0.00     0.250 C 
HETATM    3  O   UNL     1      41.939 -13.891   0.712  1.00  0.00    -0.270 OA
HETATM    4  H   UNL     1      42.008 -16.603  -0.985  1.00  0.00     0.192 HD
ENDROOT
BRANCH   1   5
HETATM    5  N   UNL     1      42.814 -16.669   0.852  1.00  0.00    -0.184 NA
HETATM    6  C   UNL     1      42.270 -17.586   1.588  1.00  0.00     0.152 C 
BRANCH   6   7
HETATM    7  C   UNL     1      43.043 -18.214   2.643  1.00  0.00     0.011 A 
HETATM    8  C   UNL     1      43.522 -19.564   2.668  1.00  0.00     0.004 A 
HETATM    9  C   UNL     1      43.427 -20.659   1.783  1.00  0.00     0.014 A 
HETATM   10  C   UNL     1      44.223 -19.737   3.863  1.00  0.00     0.043 A 
HETATM   11  C   UNL     1      44.034 -21.874   2.119  1.00  0.00     0.001 A 
HETATM   12  C   UNL     1      44.728 -22.013   3.318  1.00  0.00     0.002 A 
HETATM   13  C   UNL     1      44.836 -20.947   4.214  1.00  0.00     0.030 A 
HETATM   14  N   UNL     1      44.165 -18.543   4.543  1.00  0.00    -0.364 N 
HETATM   15  H   UNL     1      44.584 -18.377   5.447  1.00  0.00     0.165 HD
HETATM   16  C   UNL     1      43.460 -17.620   3.820  1.00  0.00     0.102 A 
ENDBRANCH   6   7
ENDBRANCH   1   5
BRANCH   2  17
HETATM   17  C   UNL     1      40.857 -14.369  -1.394  1.00  0.00     0.197 C 
BRANCH  17  18
HETATM   18  N   UNL     1      39.460 -14.804  -1.258  1.00  0.00    -0.283 NA
HETATM   19  H   UNL     1      39.334 -15.664  -0.725  1.00  0.00     0.128 HD
BRANCH  18  20
HETATM   20  C   UNL     1      38.535 -13.825  -0.839  1.00  0.00     0.030 A 
HETATM   21  C   UNL     1      38.010 -12.886  -1.752  1.00  0.00     0.055 A 
HETATM   22 CL   UNL     1      38.423 -12.973  -3.431  1.00  0.00    -0.082 Cl
HETATM   23  C   UNL     1      37.121 -11.889  -1.340  1.00  0.00     0.026 A 
HETATM   24  C   UNL     1      36.753 -11.796  -0.001  1.00  0.00     0.002 A 
HETATM   25  C   UNL     1      37.279 -12.696   0.924  1.00  0.00     0.002 A 
HETATM   26  C   UNL     1      38.166 -13.695   0.508  1.00  0.00     0.025 A 
ENDBRANCH  18  20
ENDBRANCH  17  18
ENDBRANCH   2  17
TORSDOF 5
ENDMDL
MODEL 7
REMARK VINA RESULT:      -7.4      2.275      2.917
REMARK  5 active torsions:
REMARK  status: ('A' for Active; 'I' for Inactive)
REMARK    1  A    between atoms: C_8  and  C_9 
REMARK    2  A    between atoms: N_10  and  N_11 
REMARK       I    between atoms: N_11  and  C_12 
REMARK    3  A    between atoms: C_12  and  C_13 
REMARK    4  A    between atoms: C_13  and  N_14 
REMARK    5  A    between atoms: N_14  and  C_15 
ROOT
HETATM    1  N   UNL     1      42.292 -15.043   3.777  1.00  0.00    -0.246 N 
HETATM    2  C   UNL     1      42.963 -13.827   3.649  1.00  0.00     0.250 C 
HETATM    3  O   UNL     1      44.101 -13.591   4.052  1.00  0.00    -0.270 OA
HETATM    4  H   UNL     1      41.471 -15.202   3.201  1.00  0.00     0.192 HD
ENDROOT
BRANCH   1   5
HETATM    5  N   UNL     1      42.821 -16.199   4.301  1.00  0.00    -0.184 NA
HETATM    6  C   UNL     1      43.388 -17.038   3.492  1.00  0.00     0.152 C 
BRANCH   6   7
HETATM    7  C   UNL     1      43.929 -18.281   4.009  1.00  0.00     0.011 A 
HETATM    8  C   UNL     1      43.968 -19.545   3.335  1.00  0.00     0.004 A 
HETATM    9  C   UNL     1      43.540 -19.999   2.069  1.00  0.00     0.014 A 
HETATM   10  C   UNL     1      44.579 -20.459   4.195  1.00  0.00     0.043 A 
HETATM   11  C   UNL     1      43.742 -21.337   1.710  1.00  0.00     0.001 A 
HETATM   12  C   UNL     1      44.359 -22.222   2.590  1.00  0.00     0.002 A 
HETATM   13  C   UNL     1      44.789 -21.800   3.851  1.00  0.00     0.030 A 
HETATM   14  N   UNL     1      44.892 -19.781   5.350  1.00  0.00    -0.364 N 
HETATM   15  H   UNL     1      45.341 -20.196   6.155  1.00  0.00     0.165 HD
HETATM   16  C   UNL     1      44.507 -18.471   5.250  1.00  0.00     0.102 A 
ENDBRANCH   6   7
ENDBRANCH   1   5
BRANCH   2  17
HETATM   17  C   UNL     1      42.102 -12.745   2.992  1.00  0.00     0.197 C 
BRANCH  17  18
HETATM   18  N   UNL     1      40.866 -13.301   2.425  1.00  0.00    -0.283 NA
HETATM   19  H   UNL     1      40.008 -12.910   2.814  1.00  0.00     0.128 HD
BRANCH  18  20
HETATM   20  C   UNL     1      40.787 -13.354   1.018  1.00  0.00     0.030 A 
HETATM   21  C   UNL     1      39.670 -13.931   0.376  1.00  0.00     0.055 A 
HETATM   22 CL   UNL     1      38.328 -14.507   1.306  1.00  0.00    -0.082 Cl
HETATM   23  C   UNL     1      39.598 -14.023  -1.017  1.00  0.00     0.026 A 
HETATM   24  C   UNL     1      40.651 -13.556  -1.799  1.00  0.00     0.002 A 
HETATM   25  C   UNL     1      41.775 -13.006  -1.187  1.00  0.00     0.002 A 
HETATM   26  C   UNL     1      41.843 -12.913   0.207  1.00  0.00     0.025 A 
ENDBRANCH  18  20
ENDBRANCH  17  18
ENDBRANCH   2  17
TORSDOF 5
ENDMDL
MODEL 8
REMARK VINA RESULT:      -7.3      6.527      9.528
REMARK  5 active torsions:
REMARK  status: ('A' for Active; 'I' for Inactive)
REMARK    1  A    between atoms: C_8  and  C_9 
REMARK    2  A    between atoms: N_10  and  N_11 
REMARK       I    between atoms: N_11  and  C_12 
REMARK    3  A    between atoms: C_12  and  C_13 
REMARK    4  A    between atoms: C_13  and  N_14 
REMARK    5  A    between atoms: N_14  and  C_15 
ROOT
HETATM    1  N   UNL     1      44.289 -14.510   6.655  1.00  0.00    -0.246 N 
HETATM    2  C   UNL     1      43.618 -15.728   6.543  1.00  0.00     0.250 C 
HETATM    3  O   UNL     1      43.244 -16.428   7.482  1.00  0.00    -0.270 OA
HETATM    4  H   UNL     1      44.328 -13.906   5.839  1.00  0.00     0.192 HD
ENDROOT
BRANCH   1   5
HETATM    5  N   UNL     1      44.569 -13.855   7.831  1.00  0.00    -0.184 NA
HETATM    6  C   UNL     1      44.102 -12.657   7.995  1.00  0.00     0.152 C 
BRANCH   6   7
HETATM    7  C   UNL     1      44.406 -11.927   9.211  1.00  0.00     0.011 A 
HETATM    8  C   UNL     1      43.502 -11.118   9.975  1.00  0.00     0.004 A 
HETATM    9  C   UNL     1      42.142 -10.767   9.841  1.00  0.00     0.014 A 
HETATM   10  C   UNL     1      44.213 -10.614  11.066  1.00  0.00     0.043 A 
HETATM   11  C   UNL     1      41.545  -9.937  10.796  1.00  0.00     0.001 A 
HETATM   12  C   UNL     1      42.281  -9.454  11.875  1.00  0.00     0.002 A 
HETATM   13  C   UNL     1      43.630  -9.782  12.030  1.00  0.00     0.030 A 
HETATM   14  N   UNL     1      45.499 -11.090  10.966  1.00  0.00    -0.364 N 
HETATM   15  H   UNL     1      46.240 -10.881  11.621  1.00  0.00     0.165 HD
HETATM   16  C   UNL     1      45.627 -11.880   9.857  1.00  0.00     0.102 A 
ENDBRANCH   6   7
ENDBRANCH   1   5
BRANCH   2  17
HETATM   17  C   UNL     1      43.434 -16.168   5.088  1.00  0.00     0.197 C 
BRANCH  17  18
HETATM   18  N   UNL     1      42.629 -17.392   4.986  1.00  0.00    -0.283 NA
HETATM   19  H   UNL     1      41.637 -17.234   4.812  1.00  0.00     0.128 HD
BRANCH  18  20
HETATM   20  C   UNL     1      43.123 -18.400   4.132  1.00  0.00     0.030 A 
HETATM   21  C   UNL     1      44.018 -19.380   4.609  1.00  0.00     0.055 A 
HETATM   22 CL   UNL     1      44.461 -19.420   6.283  1.00  0.00    -0.082 Cl
HETATM   23  C   UNL     1      44.543 -20.362   3.764  1.00  0.00     0.026 A 
HETATM   24  C   UNL     1      44.198 -20.372   2.414  1.00  0.00     0.002 A 
HETATM   25  C   UNL     1      43.336 -19.399   1.915  1.00  0.00     0.002 A 
HETATM   26  C   UNL     1      42.810 -18.420   2.765  1.00  0.00     0.025 A 
ENDBRANCH  18  20
ENDBRANCH  17  18
ENDBRANCH   2  17
TORSDOF 5
ENDMDL
MODEL 9
REMARK VINA RESULT:      -7.2      2.843      8.309
REMARK  5 active torsions:
REMARK  status: ('A' for Active; 'I' for Inactive)
REMARK    1  A    between atoms: C_8  and  C_9 
REMARK    2  A    between atoms: N_10  and  N_11 
REMARK       I    between atoms: N_11  and  C_12 
REMARK    3  A    between atoms: C_12  and  C_13 
REMARK    4  A    between atoms: C_13  and  N_14 
REMARK    5  A    between atoms: N_14  and  C_15 
ROOT
HETATM    1  N   UNL     1      41.069 -16.260   1.044  1.00  0.00    -0.246 N 
HETATM    2  C   UNL     1      41.930 -16.100   2.129  1.00  0.00     0.250 C 
HETATM    3  O   UNL     1      42.613 -15.105   2.361  1.00  0.00    -0.270 OA
HETATM    4  H   UNL     1      40.378 -17.004   1.083  1.00  0.00     0.192 HD
ENDROOT
BRANCH   1   5
HETATM    5  N   UNL     1      40.782 -15.300   0.101  1.00  0.00    -0.184 NA
HETATM    6  C   UNL     1      41.091 -15.540  -1.135  1.00  0.00     0.152 C 
BRANCH   6   7
HETATM    7  C   UNL     1      40.831 -14.536  -2.150  1.00  0.00     0.011 A 
HETATM    8  C   UNL     1      41.497 -13.276  -2.300  1.00  0.00     0.004 A 
HETATM    9  C   UNL     1      42.528 -12.618  -1.597  1.00  0.00     0.014 A 
HETATM   10  C   UNL     1      40.936 -12.637  -3.407  1.00  0.00     0.043 A 
HETATM   11  C   UNL     1      42.961 -11.358  -2.025  1.00  0.00     0.001 A 
HETATM   12  C   UNL     1      42.383 -10.749  -3.136  1.00  0.00     0.002 A 
HETATM   13  C   UNL     1      41.358 -11.376  -3.848  1.00  0.00     0.030 A 
HETATM   14  N   UNL     1      39.962 -13.470  -3.906  1.00  0.00    -0.364 N 
HETATM   15  H   UNL     1      39.385 -13.261  -4.708  1.00  0.00     0.165 HD
HETATM   16  C   UNL     1      39.890 -14.615  -3.159  1.00  0.00     0.102 A 
ENDBRANCH   6   7
ENDBRANCH   1   5
BRANCH   2  17
HETATM   17  C   UNL     1      42.001 -17.349   3.013  1.00  0.00     0.197 C 
BRANCH  17  18
HETATM   18  N   UNL     1      43.389 -17.741   3.291  1.00  0.00    -0.283 NA
HETATM   19  H   UNL     1      43.758 -17.394   4.176  1.00  0.00     0.128 HD
BRANCH  18  20
HETATM   20  C   UNL     1      43.701 -19.107   3.131  1.00  0.00     0.030 A 
HETATM   21  C   UNL     1      44.474 -19.792   4.092  1.00  0.00     0.055 A 
HETATM   22 CL   UNL     1      44.982 -18.988   5.540  1.00  0.00    -0.082 Cl
HETATM   23  C   UNL     1      44.820 -21.136   3.926  1.00  0.00     0.026 A 
HETATM   24  C   UNL     1      44.417 -21.821   2.783  1.00  0.00     0.002 A 
HETATM   25  C   UNL     1      43.675 -21.159   1.808  1.00  0.00     0.002 A 
HETATM   26  C   UNL     1      43.327 -19.814   1.978  1.00  0.00     0.025 A 
ENDBRANCH  18  20
ENDBRANCH  17  18
ENDBRANCH   2  17
TORSDOF 5
ENDMDL
MODEL 10
REMARK VINA RESULT:      -7.2      1.597      2.513
REMARK  5 active torsions:
REMARK  status: ('A' for Active; 'I' for Inactive)
REMARK    1  A    between atoms: C_8  and  C_9 
REMARK    2  A    between atoms: N_10  and  N_11 
REMARK       I    between atoms: N_11  and  C_12 
REMARK    3  A    between atoms: C_12  and  C_13 
REMARK    4  A    between atoms: C_13  and  N_14 
REMARK    5  A    between atoms: N_14  and  C_15 
ROOT
HETATM    1  N   UNL     1      40.291 -16.265   1.270  1.00  0.00    -0.246 N 
HETATM    2  C   UNL     1      40.283 -14.881   1.443  1.00  0.00     0.250 C 
HETATM    3  O   UNL     1      40.893 -14.265   2.314  1.00  0.00    -0.270 OA
HETATM    4  H   UNL     1      39.961 -16.642   0.386  1.00  0.00     0.192 HD
ENDROOT
BRANCH   1   5
HETATM    5  N   UNL     1      41.046 -17.159   1.994  1.00  0.00    -0.184 NA
HETATM    6  C   UNL     1      42.141 -17.609   1.466  1.00  0.00     0.152 C 
BRANCH   6   7
HETATM    7  C   UNL     1      42.944 -18.576   2.191  1.00  0.00     0.011 A 
HETATM    8  C   UNL     1      43.501 -18.419   3.501  1.00  0.00     0.004 A 
HETATM    9  C   UNL     1      43.484 -17.383   4.460  1.00  0.00     0.014 A 
HETATM   10  C   UNL     1      44.189 -19.594   3.807  1.00  0.00     0.043 A 
HETATM   11  C   UNL     1      44.145 -17.561   5.681  1.00  0.00     0.001 A 
HETATM   12  C   UNL     1      44.819 -18.747   5.956  1.00  0.00     0.002 A 
HETATM   13  C   UNL     1      44.855 -19.787   5.024  1.00  0.00     0.030 A 
HETATM   14  N   UNL     1      44.063 -20.431   2.723  1.00  0.00    -0.364 N 
HETATM   15  H   UNL     1      44.468 -21.355   2.662  1.00  0.00     0.165 HD
HETATM   16  C   UNL     1      43.316 -19.831   1.746  1.00  0.00     0.102 A 
ENDBRANCH   6   7
ENDBRANCH   1   5
BRANCH   2  17
HETATM   17  C   UNL     1      39.360 -14.170   0.450  1.00  0.00     0.197 C 
BRANCH  17  18
HETATM   18  N   UNL     1      40.064 -13.810  -0.788  1.00  0.00    -0.283 NA
HETATM   19  H   UNL     1      41.080 -13.781  -0.705  1.00  0.00     0.128 HD
BRANCH  18  20
HETATM   20  C   UNL     1      39.686 -14.511  -1.952  1.00  0.00     0.030 A 
HETATM   21  C   UNL     1      38.505 -14.177  -2.648  1.00  0.00     0.055 A 
HETATM   22 CL   UNL     1      37.537 -12.836  -2.135  1.00  0.00    -0.082 Cl
HETATM   23  C   UNL     1      38.101 -14.889  -3.781  1.00  0.00     0.026 A 
HETATM   24  C   UNL     1      38.861 -15.964  -4.234  1.00  0.00     0.002 A 
HETATM   25  C   UNL     1      40.018 -16.328  -3.548  1.00  0.00     0.002 A 
HETATM   26  C   UNL     1      40.421 -15.612  -2.416  1.00  0.00     0.025 A 
ENDBRANCH  18  20
ENDBRANCH  17  18
ENDBRANCH   2  17
TORSDOF 5
ENDMDL
