MODEL 1
REMARK VINA RESULT:      -9.0      0.000      0.000
REMARK  6 active torsions:
REMARK  status: ('A' for Active; 'I' for Inactive)
REMARK    1  A    between atoms: C_3  and  C_4 
REMARK       I    between atoms: C_4  and  N_5 
REMARK    2  A    between atoms: N_5  and  C_6 
REMARK    3  A    between atoms: C_6  and  C_7 
REMARK    4  A    between atoms: C_7  and  C_8 
REMARK    5  A    between atoms: C_19  and  O_20 
REMARK    6  A    between atoms: C_29  and  O_30 
ROOT
HETATM    1  C   UNL     1      45.066 -13.168   7.856  1.00  0.00     0.158 A 
HETATM    2  N   UNL     1      46.225 -12.895   8.469  1.00  0.00    -0.111 NA
HETATM    3  O   UNL     1      45.837 -12.101   9.548  1.00  0.00    -0.189 OA
HETATM    4  C   UNL     1      44.474 -11.982   9.486  1.00  0.00     0.223 A 
HETATM    5  C   UNL     1      43.694 -11.240  10.419  1.00  0.00     0.089 A 
HETATM    6  N   UNL     1      42.331 -11.137  10.305  1.00  0.00    -0.352 N 
HETATM    7  H   UNL     1      41.786 -11.568   9.569  1.00  0.00     0.166 HD
HETATM    8  C   UNL     1      41.819 -10.369  11.325  1.00  0.00     0.045 A 
HETATM    9  C   UNL     1      42.896  -9.967  12.113  1.00  0.00    -0.007 A 
HETATM   10  C   UNL     1      44.071 -10.521  11.535  1.00  0.00     0.048 A 
HETATM   11  C   UNL     1      40.500  -9.999  11.607  1.00  0.00     0.067 A 
HETATM   12  C   UNL     1      40.262  -9.193  12.729  1.00  0.00     0.070 A 
HETATM   13  C   UNL     1      41.324  -8.778  13.533  1.00  0.00     0.038 A 
HETATM   14  C   UNL     1      42.643  -9.158  13.237  1.00  0.00     0.016 A 
HETATM   15  N   UNL     1      43.956 -12.637   8.466  1.00  0.00    -0.203 NA
ENDROOT
BRANCH   1  16
HETATM   16  C   UNL     1      45.005 -14.020   6.643  1.00  0.00     0.103 C 
BRANCH  16  17
HETATM   17  C   UNL     1      43.582 -14.221   6.119  1.00  0.00     0.133 C 
BRANCH  17  18
HETATM   18  N   UNL     1      43.516 -15.214   5.042  1.00  0.00    -0.352 N 
HETATM   19  C   UNL     1      43.100 -16.505   5.366  1.00  0.00     0.254 C 
HETATM   20  O   UNL     1      42.683 -16.817   6.478  1.00  0.00    -0.267 OA
HETATM   21  C   UNL     1      43.789 -14.741   3.690  1.00  0.00     0.152 C 
BRANCH  19  22
HETATM   22  C   UNL     1      43.177 -17.558   4.325  1.00  0.00     0.038 A 
HETATM   23  C   UNL     1      42.177 -17.688   3.347  1.00  0.00    -0.044 A 
HETATM   24  C   UNL     1      40.977 -16.782   3.320  1.00  0.00     0.049 C 
HETATM   25  C   UNL     1      42.298 -18.714   2.390  1.00  0.00     0.044 A 
HETATM   26  C   UNL     1      43.392 -19.585   2.405  1.00  0.00     0.068 A 
HETATM   27  C   UNL     1      44.361 -19.453   3.401  1.00  0.00     0.038 A 
HETATM   28  C   UNL     1      44.256 -18.449   4.364  1.00  0.00     0.020 A 
BRANCH  26  29
HETATM   29  O   UNL     1      43.621 -20.603   1.521  1.00  0.00    -0.356 OA
HETATM   30  C   UNL     1      44.013 -21.855   2.067  1.00  0.00     0.210 C 
ENDBRANCH  26  29
ENDBRANCH  19  22
ENDBRANCH  17  18
ENDBRANCH  16  17
ENDBRANCH   1  16
BRANCH  12  31
HETATM   31  O   UNL     1      38.942  -8.884  12.926  1.00  0.00    -0.356 OA
HETATM   32  C   UNL     1      38.055  -9.116  11.839  1.00  0.00     0.210 C 
ENDBRANCH  12  31
TORSDOF 6
ENDMDL
MODEL 2
REMARK VINA RESULT:      -8.9      5.413      9.357
REMARK  6 active torsions:
REMARK  status: ('A' for Active; 'I' for Inactive)
REMARK    1  A    between atoms: C_3  and  C_4 
REMARK       I    between atoms: C_4  and  N_5 
REMARK    2  A    between atoms: N_5  and  C_6 
REMARK    3  A    between atoms: C_6  and  C_7 
REMARK    4  A    between atoms: C_7  and  C_8 
REMARK    5  A    between atoms: C_19  and  O_20 
REMARK    6  A    between atoms: C_29  and  O_30 
ROOT
HETATM    1  C   UNL     1      42.219 -13.315   4.643  1.00  0.00     0.158 A 
HETATM    2  N   UNL     1      42.438 -13.295   5.964  1.00  0.00    -0.111 NA
HETATM    3  O   UNL     1      42.943 -14.569   6.224  1.00  0.00    -0.189 OA
HETATM    4  C   UNL     1      42.990 -15.231   5.026  1.00  0.00     0.223 A 
HETATM    5  C   UNL     1      43.450 -16.571   4.871  1.00  0.00     0.089 A 
HETATM    6  N   UNL     1      43.462 -17.197   3.651  1.00  0.00    -0.352 N 
HETATM    7  H   UNL     1      43.153 -16.769   2.787  1.00  0.00     0.166 HD
HETATM    8  C   UNL     1      43.947 -18.478   3.772  1.00  0.00     0.045 A 
HETATM    9  C   UNL     1      44.251 -18.674   5.118  1.00  0.00    -0.007 A 
HETATM   10  C   UNL     1      43.935 -17.467   5.801  1.00  0.00     0.048 A 
HETATM   11  C   UNL     1      44.136 -19.472   2.805  1.00  0.00     0.067 A 
HETATM   12  C   UNL     1      44.652 -20.708   3.216  1.00  0.00     0.070 A 
HETATM   13  C   UNL     1      44.963 -20.928   4.559  1.00  0.00     0.038 A 
HETATM   14  C   UNL     1      44.769 -19.921   5.517  1.00  0.00     0.016 A 
HETATM   15  N   UNL     1      42.566 -14.489   4.022  1.00  0.00    -0.203 NA
ENDROOT
BRANCH   1  16
HETATM   16  C   UNL     1      41.687 -12.132   3.922  1.00  0.00     0.103 C 
BRANCH  16  17
HETATM   17  C   UNL     1      40.286 -12.355   3.350  1.00  0.00     0.133 C 
BRANCH  17  18
HETATM   18  N   UNL     1      40.309 -12.682   1.921  1.00  0.00    -0.352 N 
HETATM   19  C   UNL     1      39.699 -13.867   1.511  1.00  0.00     0.254 C 
HETATM   20  O   UNL     1      39.052 -14.587   2.267  1.00  0.00    -0.267 OA
HETATM   21  C   UNL     1      40.877 -11.684   1.023  1.00  0.00     0.152 C 
BRANCH  19  22
HETATM   22  C   UNL     1      39.848 -14.291   0.098  1.00  0.00     0.038 A 
HETATM   23  C   UNL     1      40.932 -15.086  -0.313  1.00  0.00    -0.044 A 
HETATM   24  C   UNL     1      41.996 -15.528   0.654  1.00  0.00     0.049 C 
HETATM   25  C   UNL     1      41.028 -15.449  -1.669  1.00  0.00     0.044 A 
HETATM   26  C   UNL     1      40.065 -15.033  -2.593  1.00  0.00     0.068 A 
HETATM   27  C   UNL     1      39.010 -14.223  -2.169  1.00  0.00     0.038 A 
HETATM   28  C   UNL     1      38.901 -13.844  -0.831  1.00  0.00     0.020 A 
BRANCH  26  29
HETATM   29  O   UNL     1      40.046 -15.335  -3.927  1.00  0.00    -0.356 OA
HETATM   30  C   UNL     1      38.943 -16.095  -4.402  1.00  0.00     0.210 C 
ENDBRANCH  26  29
ENDBRANCH  19  22
ENDBRANCH  17  18
ENDBRANCH  16  17
ENDBRANCH   1  16
BRANCH  12  31
HETATM   31  O   UNL     1      44.803 -21.616   2.202  1.00  0.00    -0.356 OA
HETATM   32  C   UNL     1      43.654 -21.905   1.417  1.00  0.00     0.210 C 
ENDBRANCH  12  31
TORSDOF 6
ENDMDL
MODEL 3
REMARK VINA RESULT:      -8.7      2.844     11.108
REMARK  6 active torsions:
REMARK  status: ('A' for Active; 'I' for Inactive)
REMARK    1  A    between atoms: C_3  and  C_4 
REMARK       I    between atoms: C_4  and  N_5 
REMARK    2  A    between atoms: N_5  and  C_6 
REMARK    3  A    between atoms: C_6  and  C_7 
REMARK    4  A    between atoms: C_7  and  C_8 
REMARK    5  A    between atoms: C_19  and  O_20 
REMARK    6  A    between atoms: C_29  and  O_30 
ROOT
HETATM    1  C   UNL     1      39.875 -13.567   5.495  1.00  0.00     0.158 A 
HETATM    2  N   UNL     1      39.572 -13.296   4.219  1.00  0.00    -0.111 NA
HETATM    3  O   UNL     1      40.241 -14.295   3.512  1.00  0.00    -0.189 OA
HETATM    4  C   UNL     1      40.876 -15.080   4.438  1.00  0.00     0.223 A 
HETATM    5  C   UNL     1      41.674 -16.214   4.110  1.00  0.00     0.089 A 
HETATM    6  N   UNL     1      42.305 -16.960   5.073  1.00  0.00    -0.352 N 
HETATM    7  H   UNL     1      42.254 -16.769   6.066  1.00  0.00     0.166 HD
HETATM    8  C   UNL     1      43.009 -17.992   4.498  1.00  0.00     0.045 A 
HETATM    9  C   UNL     1      42.821 -17.897   3.120  1.00  0.00    -0.007 A 
HETATM   10  C   UNL     1      41.980 -16.774   2.886  1.00  0.00     0.048 A 
HETATM   11  C   UNL     1      43.792 -18.993   5.084  1.00  0.00     0.067 A 
HETATM   12  C   UNL     1      44.408 -19.931   4.244  1.00  0.00     0.070 A 
HETATM   13  C   UNL     1      44.236 -19.854   2.861  1.00  0.00     0.038 A 
HETATM   14  C   UNL     1      43.446 -18.845   2.288  1.00  0.00     0.016 A 
HETATM   15  N   UNL     1      40.665 -14.676   5.674  1.00  0.00    -0.203 NA
ENDROOT
BRANCH   1  16
HETATM   16  C   UNL     1      39.347 -12.747   6.614  1.00  0.00     0.103 C 
BRANCH  16  17
HETATM   17  C   UNL     1      39.979 -11.357   6.692  1.00  0.00     0.133 C 
BRANCH  17  18
HETATM   18  N   UNL     1      40.382 -11.000   8.055  1.00  0.00    -0.352 N 
HETATM   19  C   UNL     1      41.529 -10.222   8.217  1.00  0.00     0.254 C 
HETATM   20  O   UNL     1      42.147  -9.734   7.275  1.00  0.00    -0.267 OA
HETATM   21  C   UNL     1      39.487 -11.397   9.135  1.00  0.00     0.152 C 
BRANCH  19  22
HETATM   22  C   UNL     1      42.038  -9.984   9.589  1.00  0.00     0.038 A 
HETATM   23  C   UNL     1      41.606  -8.881  10.344  1.00  0.00    -0.044 A 
HETATM   24  C   UNL     1      40.624  -7.883   9.792  1.00  0.00     0.049 C 
HETATM   25  C   UNL     1      42.132  -8.699  11.637  1.00  0.00     0.044 A 
HETATM   26  C   UNL     1      43.063  -9.599  12.166  1.00  0.00     0.068 A 
HETATM   27  C   UNL     1      43.497 -10.675  11.389  1.00  0.00     0.038 A 
HETATM   28  C   UNL     1      42.995 -10.868  10.102  1.00  0.00     0.020 A 
BRANCH  26  29
HETATM   29  O   UNL     1      43.628  -9.533  13.410  1.00  0.00    -0.356 OA
HETATM   30  C   UNL     1      42.742  -9.482  14.519  1.00  0.00     0.210 C 
ENDBRANCH  26  29
ENDBRANCH  19  22
ENDBRANCH  17  18
ENDBRANCH  16  17
ENDBRANCH   1  16
BRANCH  12  31
HETATM   31  O   UNL     1      45.153 -20.871   4.906  1.00  0.00    -0.356 OA
HETATM   32  C   UNL     1      44.798 -22.233   4.707  1.00  0.00     0.210 C 
ENDBRANCH  12  31
TORSDOF 6
ENDMDL
MODEL 4
REMARK VINA RESULT:      -8.7      2.876      3.842
REMARK  6 active torsions:
REMARK  status: ('A' for Active; 'I' for Inactive)
REMARK    1  A    between atoms: C_3  and  C_4 
REMARK       I    between atoms: C_4  and  N_5 
REMARK    2  A    between atoms: N_5  and  C_6 
REMARK    3  A    between atoms: C_6  and  C_7 
REMARK    4  A    between atoms: C_7  and  C_8 
REMARK    5  A    between atoms: C_19  and  O_20 
REMARK    6  A    between atoms: C_29  and  O_30 
ROOT
HETATM    1  C   UNL     1      39.566 -12.648   5.218  1.00  0.00     0.158 A 
HETATM    2  N   UNL     1      38.809 -11.633   4.783  1.00  0.00    -0.111 NA
HETATM    3  O   UNL     1      38.677 -10.826   5.913  1.00  0.00    -0.189 OA
HETATM    4  C   UNL     1      39.381 -11.432   6.920  1.00  0.00     0.223 A 
HETATM    5  C   UNL     1      39.489 -10.915   8.243  1.00  0.00     0.089 A 
HETATM    6  N   UNL     1      40.193 -11.568   9.222  1.00  0.00    -0.352 N 
HETATM    7  H   UNL     1      40.678 -12.446   9.086  1.00  0.00     0.166 HD
HETATM    8  C   UNL     1      40.140 -10.864  10.403  1.00  0.00     0.045 A 
HETATM    9  C   UNL     1      39.374  -9.725  10.166  1.00  0.00    -0.007 A 
HETATM   10  C   UNL     1      38.969  -9.766   8.804  1.00  0.00     0.048 A 
HETATM   11  C   UNL     1      40.705 -11.146  11.652  1.00  0.00     0.067 A 
HETATM   12  C   UNL     1      40.485 -10.241  12.699  1.00  0.00     0.070 A 
HETATM   13  C   UNL     1      39.719  -9.093  12.486  1.00  0.00     0.038 A 
HETATM   14  C   UNL     1      39.160  -8.824  11.227  1.00  0.00     0.016 A 
HETATM   15  N   UNL     1      39.958 -12.552   6.530  1.00  0.00    -0.203 NA
ENDROOT
BRANCH   1  16
HETATM   16  C   UNL     1      39.978 -13.756   4.319  1.00  0.00     0.103 C 
BRANCH  16  17
HETATM   17  C   UNL     1      41.493 -13.957   4.268  1.00  0.00     0.133 C 
BRANCH  17  18
HETATM   18  N   UNL     1      41.868 -15.372   4.180  1.00  0.00    -0.352 N 
HETATM   19  C   UNL     1      43.045 -15.697   3.506  1.00  0.00     0.254 C 
HETATM   20  O   UNL     1      43.832 -14.853   3.084  1.00  0.00    -0.267 OA
HETATM   21  C   UNL     1      41.032 -16.323   4.902  1.00  0.00     0.152 C 
BRANCH  19  22
HETATM   22  C   UNL     1      43.358 -17.127   3.272  1.00  0.00     0.038 A 
HETATM   23  C   UNL     1      43.031 -17.753   2.057  1.00  0.00    -0.044 A 
HETATM   24  C   UNL     1      42.333 -17.012   0.950  1.00  0.00     0.049 C 
HETATM   25  C   UNL     1      43.342 -19.117   1.895  1.00  0.00     0.044 A 
HETATM   26  C   UNL     1      43.969 -19.836   2.917  1.00  0.00     0.068 A 
HETATM   27  C   UNL     1      44.263 -19.200   4.125  1.00  0.00     0.038 A 
HETATM   28  C   UNL     1      43.955 -17.852   4.309  1.00  0.00     0.020 A 
BRANCH  26  29
HETATM   29  O   UNL     1      44.332 -21.154   2.867  1.00  0.00    -0.356 OA
HETATM   30  C   UNL     1      44.032 -21.861   1.671  1.00  0.00     0.210 C 
ENDBRANCH  26  29
ENDBRANCH  19  22
ENDBRANCH  17  18
ENDBRANCH  16  17
ENDBRANCH   1  16
BRANCH  12  31
HETATM   31  O   UNL     1      41.076 -10.599  13.882  1.00  0.00    -0.356 OA
HETATM   32  C   UNL     1      42.484 -10.428  13.978  1.00  0.00     0.210 C 
ENDBRANCH  12  31
TORSDOF 6
ENDMDL
MODEL 5
REMARK VINA RESULT:      -8.6      6.496     10.428
REMARK  6 active torsions:
REMARK  status: ('A' for Active; 'I' for Inactive)
REMARK    1  A    between atoms: C_3  and  C_4 
REMARK       I    between atoms: C_4  and  N_5 
REMARK    2  A    between atoms: N_5  and  C_6 
REMARK    3  A    between atoms: C_6  and  C_7 
REMARK    4  A    between atoms: C_7  and  C_8 
REMARK    5  A    between atoms: C_19  and  O_20 
REMARK    6  A    between atoms: C_29  and  O_30 
ROOT
HETATM    1  C   UNL     1      42.017 -13.274   2.576  1.00  0.00     0.158 A 
HETATM    2  N   UNL     1      42.279 -12.802   3.802  1.00  0.00    -0.111 NA
HETATM    3  O   UNL     1      42.798 -13.912   4.468  1.00  0.00    -0.189 OA
HETATM    4  C   UNL     1      42.809 -14.946   3.570  1.00  0.00     0.223 A 
HETATM    5  C   UNL     1      43.270 -16.261   3.872  1.00  0.00     0.089 A 
HETATM    6  N   UNL     1      43.246 -17.269   2.942  1.00  0.00    -0.352 N 
HETATM    7  H   UNL     1      42.908 -17.162   1.995  1.00  0.00     0.166 HD
HETATM    8  C   UNL     1      43.740 -18.433   3.483  1.00  0.00     0.045 A 
HETATM    9  C   UNL     1      44.089 -18.155   4.803  1.00  0.00    -0.007 A 
HETATM   10  C   UNL     1      43.789 -16.785   5.038  1.00  0.00     0.048 A 
HETATM   11  C   UNL     1      43.903 -19.700   2.911  1.00  0.00     0.067 A 
HETATM   12  C   UNL     1      44.438 -20.723   3.706  1.00  0.00     0.070 A 
HETATM   13  C   UNL     1      44.793 -20.468   5.032  1.00  0.00     0.038 A 
HETATM   14  C   UNL     1      44.624 -19.192   5.590  1.00  0.00     0.016 A 
HETATM   15  N   UNL     1      42.350 -14.593   2.386  1.00  0.00    -0.203 NA
ENDROOT
BRANCH   1  16
HETATM   16  C   UNL     1      41.458 -12.408   1.509  1.00  0.00     0.103 C 
BRANCH  16  17
HETATM   17  C   UNL     1      41.815 -12.884   0.099  1.00  0.00     0.133 C 
BRANCH  17  18
HETATM   18  N   UNL     1      40.662 -13.445  -0.612  1.00  0.00    -0.352 N 
HETATM   19  C   UNL     1      40.645 -13.357  -2.004  1.00  0.00     0.254 C 
HETATM   20  O   UNL     1      41.593 -12.938  -2.662  1.00  0.00    -0.267 OA
HETATM   21  C   UNL     1      39.669 -14.149   0.190  1.00  0.00     0.152 C 
BRANCH  19  22
HETATM   22  C   UNL     1      39.420 -13.775  -2.727  1.00  0.00     0.038 A 
HETATM   23  C   UNL     1      39.295 -15.071  -3.257  1.00  0.00    -0.044 A 
HETATM   24  C   UNL     1      40.399 -16.084  -3.133  1.00  0.00     0.049 C 
HETATM   25  C   UNL     1      38.113 -15.408  -3.944  1.00  0.00     0.044 A 
HETATM   26  C   UNL     1      37.080 -14.478  -4.094  1.00  0.00     0.068 A 
HETATM   27  C   UNL     1      37.236 -13.189  -3.581  1.00  0.00     0.038 A 
HETATM   28  C   UNL     1      38.402 -12.831  -2.905  1.00  0.00     0.020 A 
BRANCH  26  29
HETATM   29  O   UNL     1      35.886 -14.697  -4.725  1.00  0.00    -0.356 OA
HETATM   30  C   UNL     1      35.505 -13.764  -5.728  1.00  0.00     0.210 C 
ENDBRANCH  26  29
ENDBRANCH  19  22
ENDBRANCH  17  18
ENDBRANCH  16  17
ENDBRANCH   1  16
BRANCH  12  31
HETATM   31  O   UNL     1      44.561 -21.925   3.063  1.00  0.00    -0.356 OA
HETATM   32  C   UNL     1      44.224 -21.956   1.682  1.00  0.00     0.210 C 
ENDBRANCH  12  31
TORSDOF 6
ENDMDL
MODEL 6
REMARK VINA RESULT:      -8.5      2.311     11.346
REMARK  6 active torsions:
REMARK  status: ('A' for Active; 'I' for Inactive)
REMARK    1  A    between atoms: C_3  and  C_4 
REMARK       I    between atoms: C_4  and  N_5 
REMARK    2  A    between atoms: N_5  and  C_6 
REMARK    3  A    between atoms: C_6  and  C_7 
REMARK    4  A    between atoms: C_7  and  C_8 
REMARK    5  A    between atoms: C_19  and  O_20 
REMARK    6  A    between atoms: C_29  and  O_30 
ROOT
HETATM    1  C   UNL     1      41.721 -11.682   6.262  1.00  0.00     0.158 A 
HETATM    2  N   UNL     1      41.496 -11.038   5.110  1.00  0.00    -0.111 NA
HETATM    3  O   UNL     1      41.793 -11.999   4.143  1.00  0.00    -0.189 OA
HETATM    4  C   UNL     1      42.159 -13.137   4.812  1.00  0.00     0.223 A 
HETATM    5  C   UNL     1      42.542 -14.351   4.172  1.00  0.00     0.089 A 
HETATM    6  N   UNL     1      42.917 -15.460   4.886  1.00  0.00    -0.352 N 
HETATM    7  H   UNL     1      42.951 -15.503   5.897  1.00  0.00     0.166 HD
HETATM    8  C   UNL     1      43.240 -16.493   4.037  1.00  0.00     0.045 A 
HETATM    9  C   UNL     1      43.065 -16.022   2.737  1.00  0.00    -0.007 A 
HETATM   10  C   UNL     1      42.626 -14.673   2.833  1.00  0.00     0.048 A 
HETATM   11  C   UNL     1      43.670 -17.795   4.315  1.00  0.00     0.067 A 
HETATM   12  C   UNL     1      43.933 -18.652   3.237  1.00  0.00     0.070 A 
HETATM   13  C   UNL     1      43.767 -18.202   1.926  1.00  0.00     0.038 A 
HETATM   14  C   UNL     1      43.334 -16.893   1.664  1.00  0.00     0.016 A 
HETATM   15  N   UNL     1      42.114 -12.990   6.121  1.00  0.00    -0.203 NA
ENDROOT
BRANCH   1  16
HETATM   16  C   UNL     1      41.508 -11.028   7.577  1.00  0.00     0.103 C 
BRANCH  16  17
HETATM   17  C   UNL     1      42.737 -11.090   8.486  1.00  0.00     0.133 C 
BRANCH  17  18
HETATM   18  N   UNL     1      42.500 -10.466   9.792  1.00  0.00    -0.352 N 
HETATM   19  C   UNL     1      43.031 -11.089  10.921  1.00  0.00     0.254 C 
HETATM   20  O   UNL     1      43.776 -12.065  10.862  1.00  0.00    -0.267 OA
HETATM   21  C   UNL     1      41.816  -9.179   9.795  1.00  0.00     0.152 C 
BRANCH  19  22
HETATM   22  C   UNL     1      42.671 -10.562  12.259  1.00  0.00     0.038 A 
HETATM   23  C   UNL     1      41.436 -10.870  12.854  1.00  0.00    -0.044 A 
HETATM   24  C   UNL     1      40.418 -11.731  12.157  1.00  0.00     0.049 C 
HETATM   25  C   UNL     1      41.144 -10.332  14.122  1.00  0.00     0.044 A 
HETATM   26  C   UNL     1      42.063  -9.510  14.781  1.00  0.00     0.068 A 
HETATM   27  C   UNL     1      43.274  -9.197  14.161  1.00  0.00     0.038 A 
HETATM   28  C   UNL     1      43.579  -9.712  12.902  1.00  0.00     0.020 A 
BRANCH  26  29
HETATM   29  O   UNL     1      41.895  -8.946  16.016  1.00  0.00    -0.356 OA
HETATM   30  C   UNL     1      40.767  -8.099  16.191  1.00  0.00     0.210 C 
ENDBRANCH  26  29
ENDBRANCH  19  22
ENDBRANCH  17  18
ENDBRANCH  16  17
ENDBRANCH   1  16
BRANCH  12  31
HETATM   31  O   UNL     1      44.348 -19.904   3.606  1.00  0.00    -0.356 OA
HETATM   32  C   UNL     1      44.688 -20.805   2.560  1.00  0.00     0.210 C 
ENDBRANCH  12  31
TORSDOF 6
ENDMDL
MODEL 7
REMARK VINA RESULT:      -8.4      5.374      9.571
REMARK  6 active torsions:
REMARK  status: ('A' for Active; 'I' for Inactive)
REMARK    1  A    between atoms: C_3  and  C_4 
REMARK       I    between atoms: C_4  and  N_5 
REMARK    2  A    between atoms: N_5  and  C_6 
REMARK    3  A    between atoms: C_6  and  C_7 
REMARK    4  A    between atoms: C_7  and  C_8 
REMARK    5  A    between atoms: C_19  and  O_20 
REMARK    6  A    between atoms: C_29  and  O_30 
ROOT
HETATM    1  C   UNL     1      39.680 -13.584   4.711  1.00  0.00     0.158 A 
HETATM    2  N   UNL     1      39.204 -12.335   4.796  1.00  0.00    -0.111 NA
HETATM    3  O   UNL     1      39.008 -11.976   3.463  1.00  0.00    -0.189 OA
HETATM    4  C   UNL     1      39.375 -13.054   2.702  1.00  0.00     0.223 A 
HETATM    5  C   UNL     1      39.322 -13.082   1.278  1.00  0.00     0.089 A 
HETATM    6  N   UNL     1      39.718 -14.181   0.559  1.00  0.00    -0.352 N 
HETATM    7  H   UNL     1      40.069 -15.035   0.971  1.00  0.00     0.166 HD
HETATM    8  C   UNL     1      39.570 -13.952  -0.789  1.00  0.00     0.045 A 
HETATM    9  C   UNL     1      39.066 -12.660  -0.931  1.00  0.00    -0.007 A 
HETATM   10  C   UNL     1      38.913 -12.121   0.376  1.00  0.00     0.048 A 
HETATM   11  C   UNL     1      39.844 -14.778  -1.885  1.00  0.00     0.067 A 
HETATM   12  C   UNL     1      39.597 -14.279  -3.171  1.00  0.00     0.070 A 
HETATM   13  C   UNL     1      39.094 -12.988  -3.338  1.00  0.00     0.038 A 
HETATM   14  C   UNL     1      38.824 -12.171  -2.229  1.00  0.00     0.016 A 
HETATM   15  N   UNL     1      39.782 -14.073   3.432  1.00  0.00    -0.203 NA
ENDROOT
BRANCH   1  16
HETATM   16  C   UNL     1      40.016 -14.376   5.921  1.00  0.00     0.103 C 
BRANCH  16  17
HETATM   17  C   UNL     1      41.506 -14.704   6.029  1.00  0.00     0.133 C 
BRANCH  17  18
HETATM   18  N   UNL     1      41.835 -16.013   5.456  1.00  0.00    -0.352 N 
HETATM   19  C   UNL     1      42.922 -16.093   4.586  1.00  0.00     0.254 C 
HETATM   20  O   UNL     1      43.677 -15.149   4.367  1.00  0.00    -0.267 OA
HETATM   21  C   UNL     1      41.061 -17.155   5.928  1.00  0.00     0.152 C 
BRANCH  19  22
HETATM   22  C   UNL     1      43.172 -17.370   3.877  1.00  0.00     0.038 A 
HETATM   23  C   UNL     1      44.014 -18.353   4.425  1.00  0.00    -0.044 A 
HETATM   24  C   UNL     1      44.713 -18.149   5.741  1.00  0.00     0.049 C 
HETATM   25  C   UNL     1      44.224 -19.543   3.702  1.00  0.00     0.044 A 
HETATM   26  C   UNL     1      43.605 -19.749   2.465  1.00  0.00     0.068 A 
HETATM   27  C   UNL     1      42.792 -18.749   1.928  1.00  0.00     0.038 A 
HETATM   28  C   UNL     1      42.579 -17.559   2.623  1.00  0.00     0.020 A 
BRANCH  26  29
HETATM   29  O   UNL     1      43.722 -20.866   1.683  1.00  0.00    -0.356 OA
HETATM   30  C   UNL     1      44.266 -22.027   2.295  1.00  0.00     0.210 C 
ENDBRANCH  26  29
ENDBRANCH  19  22
ENDBRANCH  17  18
ENDBRANCH  16  17
ENDBRANCH   1  16
BRANCH  12  31
HETATM   31  O   UNL     1      39.894 -15.158  -4.178  1.00  0.00    -0.356 OA
HETATM   32  C   UNL     1      38.983 -16.229  -4.391  1.00  0.00     0.210 C 
ENDBRANCH  12  31
TORSDOF 6
ENDMDL
MODEL 8
REMARK VINA RESULT:      -8.2      3.485     11.185
REMARK  6 active torsions:
REMARK  status: ('A' for Active; 'I' for Inactive)
REMARK    1  A    between atoms: C_3  and  C_4 
REMARK       I    between atoms: C_4  and  N_5 
REMARK    2  A    between atoms: N_5  and  C_6 
REMARK    3  A    between atoms: C_6  and  C_7 
REMARK    4  A    between atoms: C_7  and  C_8 
REMARK    5  A    between atoms: C_19  and  O_20 
REMARK    6  A    between atoms: C_29  and  O_30 
ROOT
HETATM    1  C   UNL     1      39.773 -14.138   2.859  1.00  0.00     0.158 A 
HETATM    2  N   UNL     1      39.447 -14.371   1.581  1.00  0.00    -0.111 NA
HETATM    3  O   UNL     1      40.151 -15.537   1.278  1.00  0.00    -0.189 OA
HETATM    4  C   UNL     1      40.826 -15.900   2.413  1.00  0.00     0.223 A 
HETATM    5  C   UNL     1      41.668 -17.046   2.510  1.00  0.00     0.089 A 
HETATM    6  N   UNL     1      42.337 -17.360   3.665  1.00  0.00    -0.352 N 
HETATM    7  H   UNL     1      42.288 -16.816   4.518  1.00  0.00     0.166 HD
HETATM    8  C   UNL     1      43.077 -18.506   3.497  1.00  0.00     0.045 A 
HETATM    9  C   UNL     1      42.873 -18.935   2.186  1.00  0.00    -0.007 A 
HETATM   10  C   UNL     1      41.985 -18.009   1.574  1.00  0.00     0.048 A 
HETATM   11  C   UNL     1      43.906 -19.190   4.392  1.00  0.00     0.067 A 
HETATM   12  C   UNL     1      44.553 -20.351   3.945  1.00  0.00     0.070 A 
HETATM   13  C   UNL     1      44.365 -20.798   2.637  1.00  0.00     0.038 A 
HETATM   14  C   UNL     1      43.530 -20.102   1.750  1.00  0.00     0.016 A 
HETATM   15  N   UNL     1      40.610 -15.073   3.417  1.00  0.00    -0.203 NA
ENDROOT
BRANCH   1  16
HETATM   16  C   UNL     1      39.222 -12.981   3.607  1.00  0.00     0.103 C 
BRANCH  16  17
HETATM   17  C   UNL     1      40.243 -11.863   3.823  1.00  0.00     0.133 C 
BRANCH  17  18
HETATM   18  N   UNL     1      40.536 -11.637   5.241  1.00  0.00    -0.352 N 
HETATM   19  C   UNL     1      39.698 -10.780   5.955  1.00  0.00     0.254 C 
HETATM   20  O   UNL     1      38.671 -10.298   5.483  1.00  0.00    -0.267 OA
HETATM   21  C   UNL     1      41.622 -12.415   5.824  1.00  0.00     0.152 C 
BRANCH  19  22
HETATM   22  C   UNL     1      40.068 -10.418   7.344  1.00  0.00     0.038 A 
HETATM   23  C   UNL     1      40.905  -9.321   7.611  1.00  0.00    -0.044 A 
HETATM   24  C   UNL     1      41.477  -8.477   6.504  1.00  0.00     0.049 C 
HETATM   25  C   UNL     1      41.232  -9.030   8.949  1.00  0.00     0.044 A 
HETATM   26  C   UNL     1      40.733  -9.812   9.995  1.00  0.00     0.068 A 
HETATM   27  C   UNL     1      39.923 -10.912   9.706  1.00  0.00     0.038 A 
HETATM   28  C   UNL     1      39.594 -11.222   8.386  1.00  0.00     0.020 A 
BRANCH  26  29
HETATM   29  O   UNL     1      40.969  -9.617  11.328  1.00  0.00    -0.356 OA
HETATM   30  C   UNL     1      42.315  -9.729  11.768  1.00  0.00     0.210 C 
ENDBRANCH  26  29
ENDBRANCH  19  22
ENDBRANCH  17  18
ENDBRANCH  16  17
ENDBRANCH   1  16
BRANCH  12  31
HETATM   31  O   UNL     1      45.341 -20.951   4.890  1.00  0.00    -0.356 OA
HETATM   32  C   UNL     1      45.024 -22.293   5.238  1.00  0.00     0.210 C 
ENDBRANCH  12  31
TORSDOF 6
ENDMDL
MODEL 9
REMARK VINA RESULT:      -8.1      7.337     11.351
REMARK  6 active torsions:
REMARK  status: ('A' for Active; 'I' for Inactive)
REMARK    1  A    between atoms: C_3  and  C_4 
REMARK       I    between atoms: C_4  and  N_5 
REMARK    2  A    between atoms: N_5  and  C_6 
REMARK    3  A    between atoms: C_6  and  C_7 
REMARK    4  A    between atoms: C_7  and  C_8 
REMARK    5  A    between atoms: C_19  and  O_20 
REMARK    6  A    between atoms: C_29  and  O_30 
ROOT
HETATM    1  C   UNL     1      40.310 -14.911   0.464  1.00  0.00     0.158 A 
HETATM    2  N   UNL     1      40.842 -15.382  -0.671  1.00  0.00    -0.111 NA
HETATM    3  O   UNL     1      41.693 -16.395  -0.228  1.00  0.00    -0.189 OA
HETATM    4  C   UNL     1      41.580 -16.443   1.136  1.00  0.00     0.223 A 
HETATM    5  C   UNL     1      42.298 -17.352   1.966  1.00  0.00     0.089 A 
HETATM    6  N   UNL     1      42.163 -17.349   3.331  1.00  0.00    -0.352 N 
HETATM    7  H   UNL     1      41.560 -16.718   3.842  1.00  0.00     0.166 HD
HETATM    8  C   UNL     1      42.961 -18.317   3.895  1.00  0.00     0.045 A 
HETATM    9  C   UNL     1      43.628 -18.956   2.851  1.00  0.00    -0.007 A 
HETATM   10  C   UNL     1      43.203 -18.341   1.641  1.00  0.00     0.048 A 
HETATM   11  C   UNL     1      43.144 -18.673   5.235  1.00  0.00     0.067 A 
HETATM   12  C   UNL     1      44.036 -19.713   5.530  1.00  0.00     0.070 A 
HETATM   13  C   UNL     1      44.716 -20.367   4.501  1.00  0.00     0.038 A 
HETATM   14  C   UNL     1      44.521 -19.998   3.161  1.00  0.00     0.016 A 
HETATM   15  N   UNL     1      40.726 -15.554   1.603  1.00  0.00    -0.203 NA
ENDROOT
BRANCH   1  16
HETATM   16  C   UNL     1      39.313 -13.811   0.461  1.00  0.00     0.103 C 
BRANCH  16  17
HETATM   17  C   UNL     1      38.644 -13.610  -0.900  1.00  0.00     0.133 C 
BRANCH  17  18
HETATM   18  N   UNL     1      39.317 -12.590  -1.710  1.00  0.00    -0.352 N 
HETATM   19  C   UNL     1      39.652 -12.914  -3.025  1.00  0.00     0.254 C 
HETATM   20  O   UNL     1      39.313 -13.964  -3.566  1.00  0.00    -0.267 OA
HETATM   21  C   UNL     1      39.487 -11.273  -1.108  1.00  0.00     0.152 C 
BRANCH  19  22
HETATM   22  C   UNL     1      40.470 -11.956  -3.806  1.00  0.00     0.038 A 
HETATM   23  C   UNL     1      41.873 -11.965  -3.728  1.00  0.00    -0.044 A 
HETATM   24  C   UNL     1      42.608 -12.929  -2.838  1.00  0.00     0.049 C 
HETATM   25  C   UNL     1      42.598 -11.024  -4.485  1.00  0.00     0.044 A 
HETATM   26  C   UNL     1      41.940 -10.101  -5.302  1.00  0.00     0.068 A 
HETATM   27  C   UNL     1      40.544 -10.094  -5.346  1.00  0.00     0.038 A 
HETATM   28  C   UNL     1      39.807 -11.011  -4.598  1.00  0.00     0.020 A 
BRANCH  26  29
HETATM   29  O   UNL     1      42.537  -9.155  -6.090  1.00  0.00    -0.356 OA
HETATM   30  C   UNL     1      41.894  -8.838  -7.317  1.00  0.00     0.210 C 
ENDBRANCH  26  29
ENDBRANCH  19  22
ENDBRANCH  17  18
ENDBRANCH  16  17
ENDBRANCH   1  16
BRANCH  12  31
HETATM   31  O   UNL     1      44.150 -19.991   6.866  1.00  0.00    -0.356 OA
HETATM   32  C   UNL     1      43.913 -18.920   7.771  1.00  0.00     0.210 C 
ENDBRANCH  12  31
TORSDOF 6
ENDMDL
MODEL 10
REMARK VINA RESULT:      -8.1      2.970      3.975
REMARK  6 active torsions:
REMARK  status: ('A' for Active; 'I' for Inactive)
REMARK    1  A    between atoms: C_3  and  C_4 
REMARK       I    between atoms: C_4  and  N_5 
REMARK    2  A    between atoms: N_5  and  C_6 
REMARK    3  A    between atoms: C_6  and  C_7 
REMARK    4  A    between atoms: C_7  and  C_8 
REMARK    5  A    between atoms: C_19  and  O_20 
REMARK    6  A    between atoms: C_29  and  O_30 
ROOT
HETATM    1  C   UNL     1      41.293 -11.923   3.655  1.00  0.00     0.158 A 
HETATM    2  N   UNL     1      40.476 -10.901   3.371  1.00  0.00    -0.111 NA
HETATM    3  O   UNL     1      40.413 -10.198   4.573  1.00  0.00    -0.189 OA
HETATM    4  C   UNL     1      41.212 -10.861   5.466  1.00  0.00     0.223 A 
HETATM    5  C   UNL     1      41.412 -10.454   6.816  1.00  0.00     0.089 A 
HETATM    6  N   UNL     1      42.210 -11.162   7.677  1.00  0.00    -0.352 N 
HETATM    7  H   UNL     1      42.707 -12.008   7.428  1.00  0.00     0.166 HD
HETATM    8  C   UNL     1      42.233 -10.563   8.915  1.00  0.00     0.045 A 
HETATM    9  C   UNL     1      41.419  -9.435   8.838  1.00  0.00    -0.007 A 
HETATM   10  C   UNL     1      40.906  -9.375   7.513  1.00  0.00     0.048 A 
HETATM   11  C   UNL     1      42.905 -10.929  10.087  1.00  0.00     0.067 A 
HETATM   12  C   UNL     1      42.744 -10.123  11.223  1.00  0.00     0.070 A 
HETATM   13  C   UNL     1      41.932  -8.989  11.170  1.00  0.00     0.038 A 
HETATM   14  C   UNL     1      41.266  -8.635   9.986  1.00  0.00     0.016 A 
HETATM   15  N   UNL     1      41.787 -11.923   4.936  1.00  0.00    -0.203 NA
ENDROOT
BRANCH   1  16
HETATM   16  C   UNL     1      41.662 -12.936   2.635  1.00  0.00     0.103 C 
BRANCH  16  17
HETATM   17  C   UNL     1      41.008 -14.298   2.875  1.00  0.00     0.133 C 
BRANCH  17  18
HETATM   18  N   UNL     1      41.994 -15.365   3.072  1.00  0.00    -0.352 N 
HETATM   19  C   UNL     1      41.561 -16.686   2.953  1.00  0.00     0.254 C 
HETATM   20  O   UNL     1      40.430 -16.992   2.584  1.00  0.00    -0.267 OA
HETATM   21  C   UNL     1      43.379 -14.958   3.271  1.00  0.00     0.152 C 
BRANCH  19  22
HETATM   22  C   UNL     1      42.503 -17.776   3.301  1.00  0.00     0.038 A 
HETATM   23  C   UNL     1      42.712 -18.157   4.638  1.00  0.00    -0.044 A 
HETATM   24  C   UNL     1      42.008 -17.467   5.774  1.00  0.00     0.049 C 
HETATM   25  C   UNL     1      43.627 -19.192   4.911  1.00  0.00     0.044 A 
HETATM   26  C   UNL     1      44.312 -19.835   3.875  1.00  0.00     0.068 A 
HETATM   27  C   UNL     1      44.107 -19.424   2.556  1.00  0.00     0.038 A 
HETATM   28  C   UNL     1      43.213 -18.395   2.265  1.00  0.00     0.020 A 
BRANCH  26  29
HETATM   29  O   UNL     1      45.208 -20.858   4.018  1.00  0.00    -0.356 OA
HETATM   30  C   UNL     1      44.956 -21.796   5.055  1.00  0.00     0.210 C 
ENDBRANCH  26  29
ENDBRANCH  19  22
ENDBRANCH  17  18
ENDBRANCH  16  17
ENDBRANCH   1  16
BRANCH  12  31
HETATM   31  O   UNL     1      43.438 -10.559  12.320  1.00  0.00    -0.356 OA
HETATM   32  C   UNL     1      43.046 -10.034  13.582  1.00  0.00     0.210 C 
ENDBRANCH  12  31
TORSDOF 6
ENDMDL
