MODEL 1
REMARK VINA RESULT:      -7.9      0.000      0.000
REMARK  11 active torsions:
REMARK  status: ('A' for Active; 'I' for Inactive)
REMARK    1  A    between atoms: C_4  and  C_5 
REMARK    2  A    between atoms: C_5  and  N_6 
REMARK    3  A    between atoms: C_7  and  S_8 
REMARK    4  A    between atoms: C_9  and  C_10 
REMARK       I    between atoms: C_10  and  N_11 
REMARK    5  A    between atoms: N_11  and  C_12 
REMARK    6  A    between atoms: C_15  and  O_16 
REMARK    7  A    between atoms: O_16  and  C_17 
REMARK    8  A    between atoms: C_27  and  C_28 
REMARK       I    between atoms: C_28  and  N_29 
REMARK    9  A    between atoms: N_29  and  C_30 
REMARK   10  A    between atoms: C_30  and  C_31 
REMARK   11  A    between atoms: C_31  and  O_32 
ROOT
HETATM    1  N   UNL     1      39.174 -12.435   2.366  1.00  0.00    -0.321 N 
HETATM    2  C   UNL     1      39.488 -13.627   1.682  1.00  0.00     0.104 A 
HETATM    3  C   UNL     1      39.976 -14.550   2.610  1.00  0.00     0.142 A 
HETATM    4  N   UNL     1      39.938 -13.847   3.819  1.00  0.00    -0.301 N 
HETATM    5  C   UNL     1      39.451 -12.621   3.661  1.00  0.00     0.116 A 
HETATM    6  C   UNL     1      40.335 -14.358   5.161  1.00  0.00     0.100 A 
HETATM    7  C   UNL     1      40.167 -13.466   6.217  1.00  0.00     0.035 A 
HETATM    8  C   UNL     1      39.660 -12.181   6.001  1.00  0.00     0.036 A 
HETATM    9  C   UNL     1      39.296 -11.746   4.723  1.00  0.00     0.066 A 
ENDROOT
BRANCH   3  10
HETATM   10  C   UNL     1      40.456 -15.923   2.466  1.00  0.00     0.276 C 
HETATM   11  N   UNL     1      41.803 -16.070   2.767  1.00  0.00    -0.322 N 
HETATM   12  H   UNL     1      42.322 -15.262   3.095  1.00  0.00     0.169 HD
HETATM   13  O   UNL     1      39.751 -16.856   2.083  1.00  0.00    -0.266 OA
BRANCH  11  14
HETATM   14  C   UNL     1      42.585 -17.247   2.696  1.00  0.00     0.035 A 
HETATM   15  C   UNL     1      43.070 -17.809   1.515  1.00  0.00     0.032 A 
HETATM   16  C   UNL     1      43.840 -18.978   1.554  1.00  0.00     0.039 A 
HETATM   17  C   UNL     1      44.137 -19.609   2.763  1.00  0.00     0.075 A 
HETATM   18  C   UNL     1      43.656 -19.050   3.943  1.00  0.00     0.039 A 
HETATM   19  C   UNL     1      42.889 -17.879   3.908  1.00  0.00     0.032 A 
BRANCH  17  20
HETATM   20  O   UNL     1      44.891 -20.740   2.647  1.00  0.00    -0.290 OA
BRANCH  20  21
HETATM   21  C   UNL     1      44.229 -21.971   2.384  1.00  0.00     0.505 C 
HETATM   22  F   UNL     1      44.239 -22.222   1.052  1.00  0.00    -0.184 F 
HETATM   23  F   UNL     1      44.874 -22.984   3.010  1.00  0.00    -0.184 F 
ENDBRANCH  20  21
ENDBRANCH  17  20
ENDBRANCH  11  14
ENDBRANCH   3  10
BRANCH   2  24
HETATM   24  S   UNL     1      39.310 -13.885  -0.050  1.00  0.00    -0.123 SA
HETATM   25  H   UNL     1      38.121 -14.498  -0.111  1.00  0.00     0.108 HD
ENDBRANCH   2  24
BRANCH   1  26
HETATM   26  C   UNL     1      38.628 -11.192   1.804  1.00  0.00     0.177 C 
BRANCH  26  27
HETATM   27  C   UNL     1      39.745 -10.253   1.469  1.00  0.00     0.001 A 
HETATM   28  S   UNL     1      39.975  -8.816   2.378  1.00  0.00    -0.105 SA
HETATM   29  C   UNL     1      41.337  -8.366   1.450  1.00  0.00     0.050 A 
HETATM   30  C   UNL     1      41.605  -9.277   0.454  1.00  0.00     0.008 A 
HETATM   31  C   UNL     1      40.682 -10.362   0.457  1.00  0.00     0.017 A 
ENDBRANCH  26  27
ENDBRANCH   1  26
BRANCH   8  32
HETATM   32  C   UNL     1      39.406 -11.241   7.116  1.00  0.00     0.251 C 
HETATM   33  N   UNL     1      39.785 -11.632   8.376  1.00  0.00    -0.355 N 
HETATM   34  H   UNL     1      40.305 -12.487   8.522  1.00  0.00     0.162 HD
HETATM   35  O   UNL     1      38.914 -10.148   6.859  1.00  0.00    -0.268 OA
BRANCH  33  36
HETATM   36  C   UNL     1      39.531 -10.808   9.559  1.00  0.00     0.148 C 
BRANCH  36  37
HETATM   37  C   UNL     1      40.504 -11.069  10.715  1.00  0.00     0.183 C 
BRANCH  37  38
HETATM   38  O   UNL     1      39.951 -11.940  11.697  1.00  0.00    -0.399 OA
HETATM   39  H   UNL     1      39.054 -12.197  11.397  1.00  0.00     0.209 HD
ENDBRANCH  37  38
ENDBRANCH  36  37
ENDBRANCH  33  36
ENDBRANCH   8  32
TORSDOF 11
ENDMDL
MODEL 2
REMARK VINA RESULT:      -7.9      5.419      9.221
REMARK  11 active torsions:
REMARK  status: ('A' for Active; 'I' for Inactive)
REMARK    1  A    between atoms: C_4  and  C_5 
REMARK    2  A    between atoms: C_5  and  N_6 
REMARK    3  A    between atoms: C_7  and  S_8 
REMARK    4  A    between atoms: C_9  and  C_10 
REMARK       I    between atoms: C_10  and  N_11 
REMARK    5  A    between atoms: N_11  and  C_12 
REMARK    6  A    between atoms: C_15  and  O_16 
REMARK    7  A    between atoms: O_16  and  C_17 
REMARK    8  A    between atoms: C_27  and  C_28 
REMARK       I    between atoms: C_28  and  N_29 
REMARK    9  A    between atoms: N_29  and  C_30 
REMARK   10  A    between atoms: C_30  and  C_31 
REMARK   11  A    between atoms: C_31  and  O_32 
ROOT
HETATM    1  N   UNL     1      41.261 -16.067   3.799  1.00  0.00    -0.321 N 
HETATM    2  C   UNL     1      40.772 -15.049   2.955  1.00  0.00     0.104 A 
HETATM    3  C   UNL     1      41.306 -15.243   1.679  1.00  0.00     0.142 A 
HETATM    4  N   UNL     1      42.109 -16.379   1.831  1.00  0.00    -0.301 N 
HETATM    5  C   UNL     1      42.056 -16.857   3.069  1.00  0.00     0.116 A 
HETATM    6  C   UNL     1      42.913 -17.052   0.773  1.00  0.00     0.100 A 
HETATM    7  C   UNL     1      43.599 -18.194   1.175  1.00  0.00     0.035 A 
HETATM    8  C   UNL     1      43.522 -18.654   2.493  1.00  0.00     0.036 A 
HETATM    9  C   UNL     1      42.750 -17.993   3.453  1.00  0.00     0.066 A 
ENDROOT
BRANCH   3  10
HETATM   10  C   UNL     1      41.155 -14.498   0.430  1.00  0.00     0.276 C 
HETATM   11  N   UNL     1      42.136 -13.534   0.242  1.00  0.00    -0.322 N 
HETATM   12  H   UNL     1      42.879 -13.451   0.928  1.00  0.00     0.169 HD
HETATM   13  O   UNL     1      40.233 -14.678  -0.364  1.00  0.00    -0.266 OA
BRANCH  11  14
HETATM   14  C   UNL     1      42.261 -12.622  -0.833  1.00  0.00     0.035 A 
HETATM   15  C   UNL     1      42.467 -12.985  -2.163  1.00  0.00     0.032 A 
HETATM   16  C   UNL     1      42.575 -12.002  -3.156  1.00  0.00     0.039 A 
HETATM   17  C   UNL     1      42.483 -10.645  -2.842  1.00  0.00     0.075 A 
HETATM   18  C   UNL     1      42.276 -10.279  -1.516  1.00  0.00     0.039 A 
HETATM   19  C   UNL     1      42.165 -11.260  -0.521  1.00  0.00     0.032 A 
BRANCH  17  20
HETATM   20  O   UNL     1      42.610  -9.804  -3.908  1.00  0.00    -0.290 OA
BRANCH  20  21
HETATM   21  C   UNL     1      42.164 -10.254  -5.181  1.00  0.00     0.505 C 
HETATM   22  F   UNL     1      40.811 -10.198  -5.239  1.00  0.00    -0.184 F 
HETATM   23  F   UNL     1      42.662  -9.452  -6.154  1.00  0.00    -0.184 F 
ENDBRANCH  20  21
ENDBRANCH  17  20
ENDBRANCH  11  14
ENDBRANCH   3  10
BRANCH   2  24
HETATM   24  S   UNL     1      39.691 -13.749   3.446  1.00  0.00    -0.123 SA
HETATM   25  H   UNL     1      40.553 -12.862   3.959  1.00  0.00     0.108 HD
ENDBRANCH   2  24
BRANCH   1  26
HETATM   26  C   UNL     1      40.968 -16.271   5.224  1.00  0.00     0.177 C 
BRANCH  26  27
HETATM   27  C   UNL     1      42.190 -15.983   6.040  1.00  0.00     0.001 A 
HETATM   28  S   UNL     1      43.056 -14.517   5.823  1.00  0.00    -0.105 SA
HETATM   29  C   UNL     1      44.190 -14.929   7.031  1.00  0.00     0.050 A 
HETATM   30  C   UNL     1      43.933 -16.164   7.580  1.00  0.00     0.008 A 
HETATM   31  C   UNL     1      42.785 -16.778   7.002  1.00  0.00     0.017 A 
ENDBRANCH  26  27
ENDBRANCH   1  26
BRANCH   8  32
HETATM   32  C   UNL     1      44.185 -19.905   2.927  1.00  0.00     0.251 C 
HETATM   33  N   UNL     1      44.507 -20.026   4.256  1.00  0.00    -0.355 N 
HETATM   34  H   UNL     1      44.214 -19.331   4.929  1.00  0.00     0.162 HD
HETATM   35  O   UNL     1      44.376 -20.784   2.095  1.00  0.00    -0.268 OA
BRANCH  33  36
HETATM   36  C   UNL     1      45.216 -21.192   4.784  1.00  0.00     0.148 C 
BRANCH  36  37
HETATM   37  C   UNL     1      44.412 -22.496   4.700  1.00  0.00     0.183 C 
BRANCH  37  38
HETATM   38  O   UNL     1      44.815 -23.306   3.599  1.00  0.00    -0.399 OA
HETATM   39  H   UNL     1      45.794 -23.358   3.610  1.00  0.00     0.209 HD
ENDBRANCH  37  38
ENDBRANCH  36  37
ENDBRANCH  33  36
ENDBRANCH   8  32
TORSDOF 11
ENDMDL
MODEL 3
REMARK VINA RESULT:      -7.8      5.386      9.193
REMARK  11 active torsions:
REMARK  status: ('A' for Active; 'I' for Inactive)
REMARK    1  A    between atoms: C_4  and  C_5 
REMARK    2  A    between atoms: C_5  and  N_6 
REMARK    3  A    between atoms: C_7  and  S_8 
REMARK    4  A    between atoms: C_9  and  C_10 
REMARK       I    between atoms: C_10  and  N_11 
REMARK    5  A    between atoms: N_11  and  C_12 
REMARK    6  A    between atoms: C_15  and  O_16 
REMARK    7  A    between atoms: O_16  and  C_17 
REMARK    8  A    between atoms: C_27  and  C_28 
REMARK       I    between atoms: C_28  and  N_29 
REMARK    9  A    between atoms: N_29  and  C_30 
REMARK   10  A    between atoms: C_30  and  C_31 
REMARK   11  A    between atoms: C_31  and  O_32 
ROOT
HETATM    1  N   UNL     1      41.320 -15.927   3.910  1.00  0.00    -0.321 N 
HETATM    2  C   UNL     1      40.749 -14.942   3.080  1.00  0.00     0.104 A 
HETATM    3  C   UNL     1      41.142 -15.194   1.764  1.00  0.00     0.142 A 
HETATM    4  N   UNL     1      41.950 -16.331   1.878  1.00  0.00    -0.301 N 
HETATM    5  C   UNL     1      42.028 -16.755   3.134  1.00  0.00     0.116 A 
HETATM    6  C   UNL     1      42.633 -17.056   0.770  1.00  0.00     0.100 A 
HETATM    7  C   UNL     1      43.353 -18.186   1.146  1.00  0.00     0.035 A 
HETATM    8  C   UNL     1      43.414 -18.589   2.483  1.00  0.00     0.036 A 
HETATM    9  C   UNL     1      42.754 -17.880   3.490  1.00  0.00     0.066 A 
ENDROOT
BRANCH   3  10
HETATM   10  C   UNL     1      40.862 -14.501   0.508  1.00  0.00     0.276 C 
HETATM   11  N   UNL     1      39.528 -14.571   0.127  1.00  0.00    -0.322 N 
HETATM   12  H   UNL     1      38.868 -15.034   0.741  1.00  0.00     0.169 HD
HETATM   13  O   UNL     1      41.722 -13.940  -0.169  1.00  0.00    -0.266 OA
BRANCH  11  14
HETATM   14  C   UNL     1      38.932 -14.043  -1.043  1.00  0.00     0.035 A 
HETATM   15  C   UNL     1      39.231 -14.454  -2.342  1.00  0.00     0.032 A 
HETATM   16  C   UNL     1      38.579 -13.869  -3.436  1.00  0.00     0.039 A 
HETATM   17  C   UNL     1      37.625 -12.865  -3.256  1.00  0.00     0.075 A 
HETATM   18  C   UNL     1      37.323 -12.455  -1.962  1.00  0.00     0.039 A 
HETATM   19  C   UNL     1      37.970 -13.040  -0.866  1.00  0.00     0.032 A 
BRANCH  17  20
HETATM   20  O   UNL     1      37.078 -12.386  -4.411  1.00  0.00    -0.290 OA
BRANCH  20  21
HETATM   21  C   UNL     1      35.754 -12.782  -4.746  1.00  0.00     0.505 C 
HETATM   22  F   UNL     1      35.629 -14.126  -4.616  1.00  0.00    -0.184 F 
HETATM   23  F   UNL     1      34.870 -12.193  -3.906  1.00  0.00    -0.184 F 
ENDBRANCH  20  21
ENDBRANCH  17  20
ENDBRANCH  11  14
ENDBRANCH   3  10
BRANCH   2  24
HETATM   24  S   UNL     1      39.733 -13.611   3.627  1.00  0.00    -0.123 SA
HETATM   25  H   UNL     1      39.442 -13.992   4.878  1.00  0.00     0.108 HD
ENDBRANCH   2  24
BRANCH   1  26
HETATM   26  C   UNL     1      41.181 -16.068   5.366  1.00  0.00     0.177 C 
BRANCH  26  27
HETATM   27  C   UNL     1      42.423 -15.581   6.044  1.00  0.00     0.001 A 
HETATM   28  S   UNL     1      42.984 -13.979   5.788  1.00  0.00    -0.105 SA
HETATM   29  C   UNL     1      44.312 -14.204   6.838  1.00  0.00     0.050 A 
HETATM   30  C   UNL     1      44.346 -15.476   7.362  1.00  0.00     0.008 A 
HETATM   31  C   UNL     1      43.262 -16.275   6.897  1.00  0.00     0.017 A 
ENDBRANCH  26  27
ENDBRANCH   1  26
BRANCH   8  32
HETATM   32  C   UNL     1      44.114 -19.827   2.897  1.00  0.00     0.251 C 
HETATM   33  N   UNL     1      44.420 -19.970   4.227  1.00  0.00    -0.355 N 
HETATM   34  H   UNL     1      44.093 -19.301   4.912  1.00  0.00     0.162 HD
HETATM   35  O   UNL     1      44.348 -20.678   2.047  1.00  0.00    -0.268 OA
BRANCH  33  36
HETATM   36  C   UNL     1      45.161 -21.124   4.738  1.00  0.00     0.148 C 
BRANCH  36  37
HETATM   37  C   UNL     1      44.361 -22.432   4.714  1.00  0.00     0.183 C 
BRANCH  37  38
HETATM   38  O   UNL     1      44.722 -23.262   3.614  1.00  0.00    -0.399 OA
HETATM   39  H   UNL     1      45.700 -23.333   3.600  1.00  0.00     0.209 HD
ENDBRANCH  37  38
ENDBRANCH  36  37
ENDBRANCH  33  36
ENDBRANCH   8  32
TORSDOF 11
ENDMDL
MODEL 4
REMARK VINA RESULT:      -7.7      3.663      6.418
REMARK  11 active torsions:
REMARK  status: ('A' for Active; 'I' for Inactive)
REMARK    1  A    between atoms: C_4  and  C_5 
REMARK    2  A    between atoms: C_5  and  N_6 
REMARK    3  A    between atoms: C_7  and  S_8 
REMARK    4  A    between atoms: C_9  and  C_10 
REMARK       I    between atoms: C_10  and  N_11 
REMARK    5  A    between atoms: N_11  and  C_12 
REMARK    6  A    between atoms: C_15  and  O_16 
REMARK    7  A    between atoms: O_16  and  C_17 
REMARK    8  A    between atoms: C_27  and  C_28 
REMARK       I    between atoms: C_28  and  N_29 
REMARK    9  A    between atoms: N_29  and  C_30 
REMARK   10  A    between atoms: C_30  and  C_31 
REMARK   11  A    between atoms: C_31  and  O_32 
ROOT
HETATM    1  N   UNL     1      39.668 -13.385   2.164  1.00  0.00    -0.321 N 
HETATM    2  C   UNL     1      40.611 -13.967   3.036  1.00  0.00     0.104 A 
HETATM    3  C   UNL     1      41.446 -14.799   2.287  1.00  0.00     0.142 A 
HETATM    4  N   UNL     1      40.945 -14.678   0.986  1.00  0.00    -0.301 N 
HETATM    5  C   UNL     1      39.919 -13.836   0.930  1.00  0.00     0.116 A 
HETATM    6  C   UNL     1      41.471 -15.343  -0.239  1.00  0.00     0.100 A 
HETATM    7  C   UNL     1      40.812 -15.028  -1.423  1.00  0.00     0.035 A 
HETATM    8  C   UNL     1      39.730 -14.142  -1.432  1.00  0.00     0.036 A 
HETATM    9  C   UNL     1      39.273 -13.537  -0.258  1.00  0.00     0.066 A 
ENDROOT
BRANCH   3  10
HETATM   10  C   UNL     1      42.575 -15.648   2.663  1.00  0.00     0.276 C 
HETATM   11  N   UNL     1      42.213 -16.963   2.920  1.00  0.00    -0.322 N 
HETATM   12  H   UNL     1      41.246 -17.239   2.789  1.00  0.00     0.169 HD
HETATM   13  O   UNL     1      43.729 -15.237   2.777  1.00  0.00    -0.266 OA
BRANCH  11  14
HETATM   14  C   UNL     1      43.047 -18.027   3.339  1.00  0.00     0.035 A 
HETATM   15  C   UNL     1      43.523 -19.039   2.507  1.00  0.00     0.032 A 
HETATM   16  C   UNL     1      44.349 -20.047   3.021  1.00  0.00     0.039 A 
HETATM   17  C   UNL     1      44.712 -20.067   4.369  1.00  0.00     0.075 A 
HETATM   18  C   UNL     1      44.241 -19.057   5.202  1.00  0.00     0.039 A 
HETATM   19  C   UNL     1      43.417 -18.046   4.690  1.00  0.00     0.032 A 
BRANCH  17  20
HETATM   20  O   UNL     1      45.515 -21.110   4.728  1.00  0.00    -0.290 OA
BRANCH  20  21
HETATM   21  C   UNL     1      44.918 -22.241   5.349  1.00  0.00     0.505 C 
HETATM   22  F   UNL     1      44.018 -21.834   6.277  1.00  0.00    -0.184 F 
HETATM   23  F   UNL     1      44.264 -22.984   4.424  1.00  0.00    -0.184 F 
ENDBRANCH  20  21
ENDBRANCH  17  20
ENDBRANCH  11  14
ENDBRANCH   3  10
BRANCH   2  24
HETATM   24  S   UNL     1      40.694 -13.698   4.774  1.00  0.00    -0.123 SA
HETATM   25  H   UNL     1      41.283 -12.497   4.832  1.00  0.00     0.108 HD
ENDBRANCH   2  24
BRANCH   1  26
HETATM   26  C   UNL     1      38.594 -12.441   2.501  1.00  0.00     0.177 C 
BRANCH  26  27
HETATM   27  C   UNL     1      39.163 -11.067   2.672  1.00  0.00     0.001 A 
HETATM   28  S   UNL     1      38.448  -9.959   3.771  1.00  0.00    -0.105 SA
HETATM   29  C   UNL     1      39.600  -8.751   3.410  1.00  0.00     0.050 A 
HETATM   30  C   UNL     1      40.503  -9.168   2.459  1.00  0.00     0.008 A 
HETATM   31  C   UNL     1      40.246 -10.501   2.025  1.00  0.00     0.017 A 
ENDBRANCH  26  27
ENDBRANCH   1  26
BRANCH   8  32
HETATM   32  C   UNL     1      39.060 -13.736  -2.689  1.00  0.00     0.251 C 
HETATM   33  N   UNL     1      37.724 -13.426  -2.625  1.00  0.00    -0.355 N 
HETATM   34  H   UNL     1      37.241 -13.382  -1.738  1.00  0.00     0.162 HD
HETATM   35  O   UNL     1      39.732 -13.656  -3.710  1.00  0.00    -0.268 OA
BRANCH  33  36
HETATM   36  C   UNL     1      36.948 -13.069  -3.814  1.00  0.00     0.148 C 
BRANCH  36  37
HETATM   37  C   UNL     1      36.359 -14.277  -4.553  1.00  0.00     0.183 C 
BRANCH  37  38
HETATM   38  O   UNL     1      37.370 -15.153  -5.043  1.00  0.00    -0.399 OA
HETATM   39  H   UNL     1      38.239 -14.780  -4.786  1.00  0.00     0.209 HD
ENDBRANCH  37  38
ENDBRANCH  36  37
ENDBRANCH  33  36
ENDBRANCH   8  32
TORSDOF 11
ENDMDL
MODEL 5
REMARK VINA RESULT:      -7.5      5.076      8.269
REMARK  11 active torsions:
REMARK  status: ('A' for Active; 'I' for Inactive)
REMARK    1  A    between atoms: C_4  and  C_5 
REMARK    2  A    between atoms: C_5  and  N_6 
REMARK    3  A    between atoms: C_7  and  S_8 
REMARK    4  A    between atoms: C_9  and  C_10 
REMARK       I    between atoms: C_10  and  N_11 
REMARK    5  A    between atoms: N_11  and  C_12 
REMARK    6  A    between atoms: C_15  and  O_16 
REMARK    7  A    between atoms: O_16  and  C_17 
REMARK    8  A    between atoms: C_27  and  C_28 
REMARK       I    between atoms: C_28  and  N_29 
REMARK    9  A    between atoms: N_29  and  C_30 
REMARK   10  A    between atoms: C_30  and  C_31 
REMARK   11  A    between atoms: C_31  and  O_32 
ROOT
HETATM    1  N   UNL     1      42.485 -13.869   2.719  1.00  0.00    -0.321 N 
HETATM    2  C   UNL     1      41.888 -13.282   1.585  1.00  0.00     0.104 A 
HETATM    3  C   UNL     1      41.761 -14.263   0.599  1.00  0.00     0.142 A 
HETATM    4  N   UNL     1      42.306 -15.403   1.201  1.00  0.00    -0.301 N 
HETATM    5  C   UNL     1      42.707 -15.159   2.444  1.00  0.00     0.116 A 
HETATM    6  C   UNL     1      42.416 -16.762   0.602  1.00  0.00     0.100 A 
HETATM    7  C   UNL     1      42.969 -17.738   1.426  1.00  0.00     0.035 A 
HETATM    8  C   UNL     1      43.386 -17.432   2.725  1.00  0.00     0.036 A 
HETATM    9  C   UNL     1      43.260 -16.142   3.248  1.00  0.00     0.066 A 
ENDROOT
BRANCH   3  10
HETATM   10  C   UNL     1      41.229 -14.220  -0.762  1.00  0.00     0.276 C 
HETATM   11  N   UNL     1      39.873 -14.507  -0.832  1.00  0.00    -0.322 N 
HETATM   12  H   UNL     1      39.362 -14.670   0.029  1.00  0.00     0.169 HD
HETATM   13  O   UNL     1      41.917 -13.990  -1.756  1.00  0.00    -0.266 OA
BRANCH  11  14
HETATM   14  C   UNL     1      39.062 -14.585  -1.989  1.00  0.00     0.035 A 
HETATM   15  C   UNL     1      39.158 -15.581  -2.961  1.00  0.00     0.032 A 
HETATM   16  C   UNL     1      38.303 -15.570  -4.071  1.00  0.00     0.039 A 
HETATM   17  C   UNL     1      37.343 -14.570  -4.234  1.00  0.00     0.075 A 
HETATM   18  C   UNL     1      37.243 -13.576  -3.266  1.00  0.00     0.039 A 
HETATM   19  C   UNL     1      38.094 -13.586  -2.153  1.00  0.00     0.032 A 
BRANCH  17  20
HETATM   20  O   UNL     1      36.585 -14.685  -5.363  1.00  0.00    -0.290 OA
BRANCH  20  21
HETATM   21  C   UNL     1      35.420 -13.879  -5.481  1.00  0.00     0.505 C 
HETATM   22  F   UNL     1      34.952 -13.930  -6.751  1.00  0.00    -0.184 F 
HETATM   23  F   UNL     1      34.452 -14.345  -4.655  1.00  0.00    -0.184 F 
ENDBRANCH  20  21
ENDBRANCH  17  20
ENDBRANCH  11  14
ENDBRANCH   3  10
BRANCH   2  24
HETATM   24  S   UNL     1      41.411 -11.593   1.443  1.00  0.00    -0.123 SA
HETATM   25  H   UNL     1      40.076 -11.692   1.414  1.00  0.00     0.108 HD
ENDBRANCH   2  24
BRANCH   1  26
HETATM   26  C   UNL     1      42.811 -13.225   3.999  1.00  0.00     0.177 C 
BRANCH  26  27
HETATM   27  C   UNL     1      41.575 -13.104   4.835  1.00  0.00     0.001 A 
HETATM   28  S   UNL     1      41.376 -11.779   5.908  1.00  0.00    -0.105 SA
HETATM   29  C   UNL     1      39.842 -12.332   6.416  1.00  0.00     0.050 A 
HETATM   30  C   UNL     1      39.490 -13.512   5.801  1.00  0.00     0.008 A 
HETATM   31  C   UNL     1      40.493 -13.963   4.895  1.00  0.00     0.017 A 
ENDBRANCH  26  27
ENDBRANCH   1  26
BRANCH   8  32
HETATM   32  C   UNL     1      43.911 -18.468   3.644  1.00  0.00     0.251 C 
HETATM   33  N   UNL     1      44.184 -18.093   4.936  1.00  0.00    -0.355 N 
HETATM   34  H   UNL     1      43.944 -17.171   5.272  1.00  0.00     0.162 HD
HETATM   35  O   UNL     1      44.036 -19.613   3.224  1.00  0.00    -0.268 OA
BRANCH  33  36
HETATM   36  C   UNL     1      44.760 -19.019   5.913  1.00  0.00     0.148 C 
BRANCH  36  37
HETATM   37  C   UNL     1      43.714 -19.831   6.687  1.00  0.00     0.183 C 
BRANCH  37  38
HETATM   38  O   UNL     1      43.726 -19.533   8.080  1.00  0.00    -0.399 OA
HETATM   39  H   UNL     1      42.969 -18.938   8.264  1.00  0.00     0.209 HD
ENDBRANCH  37  38
ENDBRANCH  36  37
ENDBRANCH  33  36
ENDBRANCH   8  32
TORSDOF 11
ENDMDL
MODEL 6
REMARK VINA RESULT:      -7.5      5.321      8.033
REMARK  11 active torsions:
REMARK  status: ('A' for Active; 'I' for Inactive)
REMARK    1  A    between atoms: C_4  and  C_5 
REMARK    2  A    between atoms: C_5  and  N_6 
REMARK    3  A    between atoms: C_7  and  S_8 
REMARK    4  A    between atoms: C_9  and  C_10 
REMARK       I    between atoms: C_10  and  N_11 
REMARK    5  A    between atoms: N_11  and  C_12 
REMARK    6  A    between atoms: C_15  and  O_16 
REMARK    7  A    between atoms: O_16  and  C_17 
REMARK    8  A    between atoms: C_27  and  C_28 
REMARK       I    between atoms: C_28  and  N_29 
REMARK    9  A    between atoms: N_29  and  C_30 
REMARK   10  A    between atoms: C_30  and  C_31 
REMARK   11  A    between atoms: C_31  and  O_32 
ROOT
HETATM    1  N   UNL     1      41.759 -16.752   3.646  1.00  0.00    -0.321 N 
HETATM    2  C   UNL     1      41.276 -16.408   2.368  1.00  0.00     0.104 A 
HETATM    3  C   UNL     1      41.478 -15.040   2.175  1.00  0.00     0.142 A 
HETATM    4  N   UNL     1      42.074 -14.627   3.373  1.00  0.00    -0.301 N 
HETATM    5  C   UNL     1      42.247 -15.642   4.212  1.00  0.00     0.116 A 
HETATM    6  C   UNL     1      42.525 -13.250   3.717  1.00  0.00     0.100 A 
HETATM    7  C   UNL     1      43.123 -13.109   4.965  1.00  0.00     0.035 A 
HETATM    8  C   UNL     1      43.275 -14.205   5.820  1.00  0.00     0.036 A 
HETATM    9  C   UNL     1      42.840 -15.481   5.453  1.00  0.00     0.066 A 
ENDROOT
BRANCH   3  10
HETATM   10  C   UNL     1      41.167 -14.152   1.057  1.00  0.00     0.276 C 
HETATM   11  N   UNL     1      42.116 -14.186   0.045  1.00  0.00    -0.322 N 
HETATM   12  H   UNL     1      42.896 -14.830   0.129  1.00  0.00     0.169 HD
HETATM   13  O   UNL     1      40.181 -13.417   1.024  1.00  0.00    -0.266 OA
BRANCH  11  14
HETATM   14  C   UNL     1      42.138 -13.430  -1.150  1.00  0.00     0.035 A 
HETATM   15  C   UNL     1      42.724 -12.172  -1.284  1.00  0.00     0.032 A 
HETATM   16  C   UNL     1      42.694 -11.505  -2.516  1.00  0.00     0.039 A 
HETATM   17  C   UNL     1      42.079 -12.076  -3.632  1.00  0.00     0.075 A 
HETATM   18  C   UNL     1      41.496 -13.332  -3.502  1.00  0.00     0.039 A 
HETATM   19  C   UNL     1      41.527 -14.003  -2.273  1.00  0.00     0.032 A 
BRANCH  17  20
HETATM   20  O   UNL     1      42.124 -11.312  -4.761  1.00  0.00    -0.290 OA
BRANCH  20  21
HETATM   21  C   UNL     1      42.371  -9.917  -4.624  1.00  0.00     0.505 C 
HETATM   22  F   UNL     1      43.018  -9.456  -5.721  1.00  0.00    -0.184 F 
HETATM   23  F   UNL     1      41.197  -9.250  -4.514  1.00  0.00    -0.184 F 
ENDBRANCH  20  21
ENDBRANCH  17  20
ENDBRANCH  11  14
ENDBRANCH   3  10
BRANCH   2  24
HETATM   24  S   UNL     1      40.525 -17.522   1.229  1.00  0.00    -0.123 SA
HETATM   25  H   UNL     1      39.584 -18.093   1.991  1.00  0.00     0.108 HD
ENDBRANCH   2  24
BRANCH   1  26
HETATM   26  C   UNL     1      41.763 -18.078   4.281  1.00  0.00     0.177 C 
BRANCH  26  27
HETATM   27  C   UNL     1      42.990 -18.832   3.874  1.00  0.00     0.001 A 
HETATM   28  S   UNL     1      44.205 -19.204   5.027  1.00  0.00    -0.105 SA
HETATM   29  C   UNL     1      45.158 -20.014   3.864  1.00  0.00     0.050 A 
HETATM   30  C   UNL     1      44.579 -19.988   2.616  1.00  0.00     0.008 A 
HETATM   31  C   UNL     1      43.332 -19.299   2.618  1.00  0.00     0.017 A 
ENDBRANCH  26  27
ENDBRANCH   1  26
BRANCH   8  32
HETATM   32  C   UNL     1      43.971 -14.093   7.122  1.00  0.00     0.251 C 
HETATM   33  N   UNL     1      43.972 -12.867   7.739  1.00  0.00    -0.355 N 
HETATM   34  H   UNL     1      43.436 -12.095   7.366  1.00  0.00     0.162 HD
HETATM   35  O   UNL     1      44.473 -15.101   7.605  1.00  0.00    -0.268 OA
BRANCH  33  36
HETATM   36  C   UNL     1      44.678 -12.627   8.998  1.00  0.00     0.148 C 
BRANCH  36  37
HETATM   37  C   UNL     1      46.006 -11.878   8.830  1.00  0.00     0.183 C 
BRANCH  37  38
HETATM   38  O   UNL     1      45.916 -10.522   9.255  1.00  0.00    -0.399 OA
HETATM   39  H   UNL     1      46.828 -10.185   9.378  1.00  0.00     0.209 HD
ENDBRANCH  37  38
ENDBRANCH  36  37
ENDBRANCH  33  36
ENDBRANCH   8  32
TORSDOF 11
ENDMDL
MODEL 7
REMARK VINA RESULT:      -7.5      1.529      2.223
REMARK  11 active torsions:
REMARK  status: ('A' for Active; 'I' for Inactive)
REMARK    1  A    between atoms: C_4  and  C_5 
REMARK    2  A    between atoms: C_5  and  N_6 
REMARK    3  A    between atoms: C_7  and  S_8 
REMARK    4  A    between atoms: C_9  and  C_10 
REMARK       I    between atoms: C_10  and  N_11 
REMARK    5  A    between atoms: N_11  and  C_12 
REMARK    6  A    between atoms: C_15  and  O_16 
REMARK    7  A    between atoms: O_16  and  C_17 
REMARK    8  A    between atoms: C_27  and  C_28 
REMARK       I    between atoms: C_28  and  N_29 
REMARK    9  A    between atoms: N_29  and  C_30 
REMARK   10  A    between atoms: C_30  and  C_31 
REMARK   11  A    between atoms: C_31  and  O_32 
ROOT
HETATM    1  N   UNL     1      40.229 -12.706   2.107  1.00  0.00    -0.321 N 
HETATM    2  C   UNL     1      40.552 -13.966   1.563  1.00  0.00     0.104 A 
HETATM    3  C   UNL     1      40.694 -14.875   2.614  1.00  0.00     0.142 A 
HETATM    4  N   UNL     1      40.454 -14.096   3.752  1.00  0.00    -0.301 N 
HETATM    5  C   UNL     1      40.167 -12.838   3.437  1.00  0.00     0.116 A 
HETATM    6  C   UNL     1      40.458 -14.560   5.168  1.00  0.00     0.100 A 
HETATM    7  C   UNL     1      40.152 -13.590   6.118  1.00  0.00     0.035 A 
HETATM    8  C   UNL     1      39.866 -12.275   5.739  1.00  0.00     0.036 A 
HETATM    9  C   UNL     1      39.869 -11.885   4.397  1.00  0.00     0.066 A 
ENDROOT
BRANCH   3  10
HETATM   10  C   UNL     1      41.029 -16.297   2.640  1.00  0.00     0.276 C 
HETATM   11  N   UNL     1      42.311 -16.552   3.107  1.00  0.00    -0.322 N 
HETATM   12  H   UNL     1      42.879 -15.775   3.427  1.00  0.00     0.169 HD
HETATM   13  O   UNL     1      40.268 -17.184   2.255  1.00  0.00    -0.266 OA
BRANCH  11  14
HETATM   14  C   UNL     1      42.958 -17.806   3.225  1.00  0.00     0.035 A 
HETATM   15  C   UNL     1      43.465 -18.330   4.414  1.00  0.00     0.032 A 
HETATM   16  C   UNL     1      44.086 -19.585   4.424  1.00  0.00     0.039 A 
HETATM   17  C   UNL     1      44.217 -20.337   3.255  1.00  0.00     0.075 A 
HETATM   18  C   UNL     1      43.710 -19.818   2.068  1.00  0.00     0.039 A 
HETATM   19  C   UNL     1      43.085 -18.564   2.054  1.00  0.00     0.032 A 
BRANCH  17  20
HETATM   20  O   UNL     1      44.847 -21.536   3.415  1.00  0.00    -0.290 OA
BRANCH  20  21
HETATM   21  C   UNL     1      44.789 -22.165   4.690  1.00  0.00     0.505 C 
HETATM   22  F   UNL     1      44.121 -23.340   4.592  1.00  0.00    -0.184 F 
HETATM   23  F   UNL     1      46.042 -22.427   5.132  1.00  0.00    -0.184 F 
ENDBRANCH  20  21
ENDBRANCH  17  20
ENDBRANCH  11  14
ENDBRANCH   3  10
BRANCH   2  24
HETATM   24  S   UNL     1      40.761 -14.313  -0.150  1.00  0.00    -0.123 SA
HETATM   25  H   UNL     1      40.978 -13.089  -0.649  1.00  0.00     0.108 HD
ENDBRANCH   2  24
BRANCH   1  26
HETATM   26  C   UNL     1      39.983 -11.450   1.385  1.00  0.00     0.177 C 
BRANCH  26  27
HETATM   27  C   UNL     1      38.618 -11.477   0.772  1.00  0.00     0.001 A 
HETATM   28  S   UNL     1      38.415 -11.229  -0.914  1.00  0.00    -0.105 SA
HETATM   29  C   UNL     1      36.721 -11.416  -0.807  1.00  0.00     0.050 A 
HETATM   30  C   UNL     1      36.308 -11.643   0.486  1.00  0.00     0.008 A 
HETATM   31  C   UNL     1      37.400 -11.670   1.399  1.00  0.00     0.017 A 
ENDBRANCH  26  27
ENDBRANCH   1  26
BRANCH   8  32
HETATM   32  C   UNL     1      39.469 -11.245   6.725  1.00  0.00     0.251 C 
HETATM   33  N   UNL     1      39.734 -11.495   8.048  1.00  0.00    -0.355 N 
HETATM   34  H   UNL     1      40.268 -12.306   8.328  1.00  0.00     0.162 HD
HETATM   35  O   UNL     1      38.964 -10.206   6.314  1.00  0.00    -0.268 OA
BRANCH  33  36
HETATM   36  C   UNL     1      39.333 -10.573   9.113  1.00  0.00     0.148 C 
BRANCH  36  37
HETATM   37  C   UNL     1      40.102 -10.772  10.425  1.00  0.00     0.183 C 
BRANCH  37  38
HETATM   38  O   UNL     1      39.258 -10.651  11.566  1.00  0.00    -0.399 OA
HETATM   39  H   UNL     1      39.756 -10.982  12.343  1.00  0.00     0.209 HD
ENDBRANCH  37  38
ENDBRANCH  36  37
ENDBRANCH  33  36
ENDBRANCH   8  32
TORSDOF 11
ENDMDL
MODEL 8
REMARK VINA RESULT:      -7.4      2.918      5.081
REMARK  11 active torsions:
REMARK  status: ('A' for Active; 'I' for Inactive)
REMARK    1  A    between atoms: C_4  and  C_5 
REMARK    2  A    between atoms: C_5  and  N_6 
REMARK    3  A    between atoms: C_7  and  S_8 
REMARK    4  A    between atoms: C_9  and  C_10 
REMARK       I    between atoms: C_10  and  N_11 
REMARK    5  A    between atoms: N_11  and  C_12 
REMARK    6  A    between atoms: C_15  and  O_16 
REMARK    7  A    between atoms: O_16  and  C_17 
REMARK    8  A    between atoms: C_27  and  C_28 
REMARK       I    between atoms: C_28  and  N_29 
REMARK    9  A    between atoms: N_29  and  C_30 
REMARK   10  A    between atoms: C_30  and  C_31 
REMARK   11  A    between atoms: C_31  and  O_32 
ROOT
HETATM    1  N   UNL     1      40.677 -12.088   4.203  1.00  0.00    -0.321 N 
HETATM    2  C   UNL     1      41.401 -13.229   4.605  1.00  0.00     0.104 A 
HETATM    3  C   UNL     1      40.934 -14.325   3.876  1.00  0.00     0.142 A 
HETATM    4  N   UNL     1      39.930 -13.776   3.070  1.00  0.00    -0.301 N 
HETATM    5  C   UNL     1      39.807 -12.467   3.260  1.00  0.00     0.116 A 
HETATM    6  C   UNL     1      39.096 -14.497   2.068  1.00  0.00     0.100 A 
HETATM    7  C   UNL     1      38.187 -13.711   1.366  1.00  0.00     0.035 A 
HETATM    8  C   UNL     1      38.085 -12.338   1.608  1.00  0.00     0.036 A 
HETATM    9  C   UNL     1      38.893 -11.702   2.555  1.00  0.00     0.066 A 
ENDROOT
BRANCH   3  10
HETATM   10  C   UNL     1      41.307 -15.738   3.886  1.00  0.00     0.276 C 
HETATM   11  N   UNL     1      42.514 -15.994   3.250  1.00  0.00    -0.322 N 
HETATM   12  H   UNL     1      43.048 -15.213   2.883  1.00  0.00     0.169 HD
HETATM   13  O   UNL     1      40.608 -16.625   4.376  1.00  0.00    -0.266 OA
BRANCH  11  14
HETATM   14  C   UNL     1      43.141 -17.246   3.050  1.00  0.00     0.035 A 
HETATM   15  C   UNL     1      43.193 -17.924   1.833  1.00  0.00     0.032 A 
HETATM   16  C   UNL     1      43.844 -19.161   1.740  1.00  0.00     0.039 A 
HETATM   17  C   UNL     1      44.450 -19.745   2.855  1.00  0.00     0.075 A 
HETATM   18  C   UNL     1      44.402 -19.070   4.070  1.00  0.00     0.039 A 
HETATM   19  C   UNL     1      43.755 -17.831   4.166  1.00  0.00     0.032 A 
BRANCH  17  20
HETATM   20  O   UNL     1      45.041 -20.951   2.616  1.00  0.00    -0.290 OA
BRANCH  20  21
HETATM   21  C   UNL     1      44.207 -22.085   2.416  1.00  0.00     0.505 C 
HETATM   22  F   UNL     1      44.137 -22.376   1.094  1.00  0.00    -0.184 F 
HETATM   23  F   UNL     1      44.727 -23.159   3.058  1.00  0.00    -0.184 F 
ENDBRANCH  20  21
ENDBRANCH  17  20
ENDBRANCH  11  14
ENDBRANCH   3  10
BRANCH   2  24
HETATM   24  S   UNL     1      42.661 -13.255   5.834  1.00  0.00    -0.123 SA
HETATM   25  H   UNL     1      43.350 -12.146   5.537  1.00  0.00     0.108 HD
ENDBRANCH   2  24
BRANCH   1  26
HETATM   26  C   UNL     1      40.824 -10.710   4.691  1.00  0.00     0.177 C 
BRANCH  26  27
HETATM   27  C   UNL     1      40.479 -10.648   6.146  1.00  0.00     0.001 A 
HETATM   28  S   UNL     1      41.376  -9.645   7.212  1.00  0.00    -0.105 SA
HETATM   29  C   UNL     1      40.419 -10.097   8.552  1.00  0.00     0.050 A 
HETATM   30  C   UNL     1      39.446 -11.008   8.208  1.00  0.00     0.008 A 
HETATM   31  C   UNL     1      39.486 -11.334   6.822  1.00  0.00     0.017 A 
ENDBRANCH  26  27
ENDBRANCH   1  26
BRANCH   8  32
HETATM   32  C   UNL     1      37.177 -11.469   0.825  1.00  0.00     0.251 C 
HETATM   33  N   UNL     1      35.874 -11.368   1.246  1.00  0.00    -0.355 N 
HETATM   34  H   UNL     1      35.573 -11.791   2.113  1.00  0.00     0.162 HD
HETATM   35  O   UNL     1      37.637 -10.853  -0.130  1.00  0.00    -0.268 OA
BRANCH  33  36
HETATM   36  C   UNL     1      34.877 -10.585   0.515  1.00  0.00     0.148 C 
BRANCH  36  37
HETATM   37  C   UNL     1      33.486 -10.599   1.161  1.00  0.00     0.183 C 
BRANCH  37  38
HETATM   38  O   UNL     1      33.554 -10.587   2.584  1.00  0.00    -0.399 OA
HETATM   39  H   UNL     1      34.166 -11.301   2.860  1.00  0.00     0.209 HD
ENDBRANCH  37  38
ENDBRANCH  36  37
ENDBRANCH  33  36
ENDBRANCH   8  32
TORSDOF 11
ENDMDL
MODEL 9
REMARK VINA RESULT:      -7.3      5.481      8.716
REMARK  11 active torsions:
REMARK  status: ('A' for Active; 'I' for Inactive)
REMARK    1  A    between atoms: C_4  and  C_5 
REMARK    2  A    between atoms: C_5  and  N_6 
REMARK    3  A    between atoms: C_7  and  S_8 
REMARK    4  A    between atoms: C_9  and  C_10 
REMARK       I    between atoms: C_10  and  N_11 
REMARK    5  A    between atoms: N_11  and  C_12 
REMARK    6  A    between atoms: C_15  and  O_16 
REMARK    7  A    between atoms: O_16  and  C_17 
REMARK    8  A    between atoms: C_27  and  C_28 
REMARK       I    between atoms: C_28  and  N_29 
REMARK    9  A    between atoms: N_29  and  C_30 
REMARK   10  A    between atoms: C_30  and  C_31 
REMARK   11  A    between atoms: C_31  and  O_32 
ROOT
HETATM    1  N   UNL     1      38.131 -11.414  -1.876  1.00  0.00    -0.321 N 
HETATM    2  C   UNL     1      39.300 -11.678  -1.135  1.00  0.00     0.104 A 
HETATM    3  C   UNL     1      39.751 -12.958  -1.467  1.00  0.00     0.142 A 
HETATM    4  N   UNL     1      38.805 -13.404  -2.398  1.00  0.00    -0.301 N 
HETATM    5  C   UNL     1      37.878 -12.484  -2.638  1.00  0.00     0.116 A 
HETATM    6  C   UNL     1      38.800 -14.715  -3.106  1.00  0.00     0.100 A 
HETATM    7  C   UNL     1      37.762 -14.902  -4.014  1.00  0.00     0.035 A 
HETATM    8  C   UNL     1      36.802 -13.908  -4.227  1.00  0.00     0.036 A 
HETATM    9  C   UNL     1      36.850 -12.689  -3.543  1.00  0.00     0.066 A 
ENDROOT
BRANCH   3  10
HETATM   10  C   UNL     1      40.893 -13.744  -1.007  1.00  0.00     0.276 C 
HETATM   11  N   UNL     1      40.636 -14.462   0.153  1.00  0.00    -0.322 N 
HETATM   12  H   UNL     1      39.704 -14.428   0.552  1.00  0.00     0.169 HD
HETATM   13  O   UNL     1      41.989 -13.748  -1.566  1.00  0.00    -0.266 OA
BRANCH  11  14
HETATM   14  C   UNL     1      41.527 -15.288   0.878  1.00  0.00     0.035 A 
HETATM   15  C   UNL     1      42.223 -14.896   2.021  1.00  0.00     0.032 A 
HETATM   16  C   UNL     1      43.082 -15.793   2.669  1.00  0.00     0.039 A 
HETATM   17  C   UNL     1      43.265 -17.092   2.190  1.00  0.00     0.075 A 
HETATM   18  C   UNL     1      42.571 -17.487   1.051  1.00  0.00     0.039 A 
HETATM   19  C   UNL     1      41.708 -16.593   0.403  1.00  0.00     0.032 A 
BRANCH  17  20
HETATM   20  O   UNL     1      44.133 -17.851   2.919  1.00  0.00    -0.290 OA
BRANCH  20  21
HETATM   21  C   UNL     1      43.617 -18.963   3.640  1.00  0.00     0.505 C 
HETATM   22  F   UNL     1      42.375 -18.675   4.102  1.00  0.00    -0.184 F 
HETATM   23  F   UNL     1      43.524 -20.040   2.822  1.00  0.00    -0.184 F 
ENDBRANCH  20  21
ENDBRANCH  17  20
ENDBRANCH  11  14
ENDBRANCH   3  10
BRANCH   2  24
HETATM   24  S   UNL     1      40.042 -10.581   0.024  1.00  0.00    -0.123 SA
HETATM   25  H   UNL     1      40.667  -9.716  -0.785  1.00  0.00     0.108 HD
ENDBRANCH   2  24
BRANCH   1  26
HETATM   26  C   UNL     1      37.311 -10.194  -1.859  1.00  0.00     0.177 C 
BRANCH  26  27
HETATM   27  C   UNL     1      36.081 -10.421  -1.037  1.00  0.00     0.001 A 
HETATM   28  S   UNL     1      36.198 -10.657   0.659  1.00  0.00    -0.105 SA
HETATM   29  C   UNL     1      34.505 -10.812   0.823  1.00  0.00     0.050 A 
HETATM   30  C   UNL     1      33.859 -10.707  -0.387  1.00  0.00     0.008 A 
HETATM   31  C   UNL     1      34.767 -10.491  -1.463  1.00  0.00     0.017 A 
ENDBRANCH  26  27
ENDBRANCH   1  26
BRANCH   8  32
HETATM   32  C   UNL     1      35.732 -14.055  -5.239  1.00  0.00     0.251 C 
HETATM   33  N   UNL     1      35.877 -13.373  -6.421  1.00  0.00    -0.355 N 
HETATM   34  H   UNL     1      36.727 -12.869  -6.631  1.00  0.00     0.162 HD
HETATM   35  O   UNL     1      34.795 -14.807  -4.994  1.00  0.00    -0.268 OA
BRANCH  33  36
HETATM   36  C   UNL     1      34.854 -13.400  -7.468  1.00  0.00     0.148 C 
BRANCH  36  37
HETATM   37  C   UNL     1      35.000 -14.571  -8.447  1.00  0.00     0.183 C 
BRANCH  37  38
HETATM   38  O   UNL     1      34.315 -15.736  -7.997  1.00  0.00    -0.399 OA
HETATM   39  H   UNL     1      34.041 -16.246  -8.789  1.00  0.00     0.209 HD
ENDBRANCH  37  38
ENDBRANCH  36  37
ENDBRANCH  33  36
ENDBRANCH   8  32
TORSDOF 11
ENDMDL
MODEL 10
REMARK VINA RESULT:      -7.2      5.155     10.008
REMARK  11 active torsions:
REMARK  status: ('A' for Active; 'I' for Inactive)
REMARK    1  A    between atoms: C_4  and  C_5 
REMARK    2  A    between atoms: C_5  and  N_6 
REMARK    3  A    between atoms: C_7  and  S_8 
REMARK    4  A    between atoms: C_9  and  C_10 
REMARK       I    between atoms: C_10  and  N_11 
REMARK    5  A    between atoms: N_11  and  C_12 
REMARK    6  A    between atoms: C_15  and  O_16 
REMARK    7  A    between atoms: O_16  and  C_17 
REMARK    8  A    between atoms: C_27  and  C_28 
REMARK       I    between atoms: C_28  and  N_29 
REMARK    9  A    between atoms: N_29  and  C_30 
REMARK   10  A    between atoms: C_30  and  C_31 
REMARK   11  A    between atoms: C_31  and  O_32 
ROOT
HETATM    1  N   UNL     1      40.509 -15.681   3.063  1.00  0.00    -0.321 N 
HETATM    2  C   UNL     1      40.808 -15.079   4.302  1.00  0.00     0.104 A 
HETATM    3  C   UNL     1      40.644 -13.698   4.170  1.00  0.00     0.142 A 
HETATM    4  N   UNL     1      40.259 -13.542   2.834  1.00  0.00    -0.301 N 
HETATM    5  C   UNL     1      40.168 -14.710   2.208  1.00  0.00     0.116 A 
HETATM    6  C   UNL     1      39.932 -12.263   2.142  1.00  0.00     0.100 A 
HETATM    7  C   UNL     1      39.540 -12.383   0.812  1.00  0.00     0.035 A 
HETATM    8  C   UNL     1      39.469 -13.634   0.192  1.00  0.00     0.036 A 
HETATM    9  C   UNL     1      39.781 -14.810   0.882  1.00  0.00     0.066 A 
ENDROOT
BRANCH   3  10
HETATM   10  C   UNL     1      40.822 -12.596   5.113  1.00  0.00     0.276 C 
HETATM   11  N   UNL     1      39.654 -12.244   5.776  1.00  0.00    -0.322 N 
HETATM   12  H   UNL     1      38.812 -12.781   5.601  1.00  0.00     0.169 HD
HETATM   13  O   UNL     1      41.890 -12.010   5.283  1.00  0.00    -0.266 OA
BRANCH  11  14
HETATM   14  C   UNL     1      39.472 -11.205   6.719  1.00  0.00     0.035 A 
HETATM   15  C   UNL     1      39.419  -9.847   6.406  1.00  0.00     0.032 A 
HETATM   16  C   UNL     1      39.231  -8.895   7.416  1.00  0.00     0.039 A 
HETATM   17  C   UNL     1      39.095  -9.277   8.753  1.00  0.00     0.075 A 
HETATM   18  C   UNL     1      39.145 -10.630   9.068  1.00  0.00     0.039 A 
HETATM   19  C   UNL     1      39.330 -11.585   8.060  1.00  0.00     0.032 A 
BRANCH  17  20
HETATM   20  O   UNL     1      38.922  -8.243   9.626  1.00  0.00    -0.290 OA
BRANCH  20  21
HETATM   21  C   UNL     1      39.969  -7.951  10.544  1.00  0.00     0.505 C 
HETATM   22  F   UNL     1      39.839  -8.724  11.649  1.00  0.00    -0.184 F 
HETATM   23  F   UNL     1      41.169  -8.223   9.976  1.00  0.00    -0.184 F 
ENDBRANCH  20  21
ENDBRANCH  17  20
ENDBRANCH  11  14
ENDBRANCH   3  10
BRANCH   2  24
HETATM   24  S   UNL     1      41.321 -15.934   5.753  1.00  0.00    -0.123 SA
HETATM   25  H   UNL     1      42.339 -16.667   5.288  1.00  0.00     0.108 HD
ENDBRANCH   2  24
BRANCH   1  26
HETATM   26  C   UNL     1      40.540 -17.111   2.727  1.00  0.00     0.177 C 
BRANCH  26  27
HETATM   27  C   UNL     1      41.925 -17.506   2.318  1.00  0.00     0.001 A 
HETATM   28  S   UNL     1      42.874 -18.520   3.326  1.00  0.00    -0.105 SA
HETATM   29  C   UNL     1      44.181 -18.504   2.227  1.00  0.00     0.050 A 
HETATM   30  C   UNL     1      43.916 -17.729   1.121  1.00  0.00     0.008 A 
HETATM   31  C   UNL     1      42.617 -17.145   1.176  1.00  0.00     0.017 A 
ENDBRANCH  26  27
ENDBRANCH   1  26
BRANCH   8  32
HETATM   32  C   UNL     1      38.987 -13.793  -1.199  1.00  0.00     0.251 C 
HETATM   33  N   UNL     1      39.667 -14.665  -2.012  1.00  0.00    -0.355 N 
HETATM   34  H   UNL     1      40.407 -15.248  -1.647  1.00  0.00     0.162 HD
HETATM   35  O   UNL     1      37.985 -13.177  -1.544  1.00  0.00    -0.268 OA
BRANCH  33  36
HETATM   36  C   UNL     1      39.314 -14.856  -3.420  1.00  0.00     0.148 C 
BRANCH  36  37
HETATM   37  C   UNL     1      39.308 -16.325  -3.862  1.00  0.00     0.183 C 
BRANCH  37  38
HETATM   38  O   UNL     1      38.850 -16.481  -5.201  1.00  0.00    -0.399 OA
HETATM   39  H   UNL     1      37.893 -16.269  -5.216  1.00  0.00     0.209 HD
ENDBRANCH  37  38
ENDBRANCH  36  37
ENDBRANCH  33  36
ENDBRANCH   8  32
TORSDOF 11
ENDMDL
