MODEL 1
REMARK VINA RESULT:      -7.6      0.000      0.000
REMARK  12 active torsions:
REMARK  status: ('A' for Active; 'I' for Inactive)
REMARK    1  A    between atoms: C_2  and  N_3 
REMARK    2  A    between atoms: N_3  and  C_5 
REMARK    3  A    between atoms: N_3  and  C_33 
REMARK    4  A    between atoms: C_5  and  C_6 
REMARK    5  A    between atoms: N_7  and  C_8 
REMARK    6  A    between atoms: C_12  and  N_13 
REMARK    7  A    between atoms: C_16  and  C_17 
REMARK       I    between atoms: C_17  and  N_18 
REMARK    8  A    between atoms: N_18  and  N_19 
REMARK    9  A    between atoms: C_20  and  C_21 
REMARK   10  A    between atoms: C_25  and  O_26 
REMARK   11  A    between atoms: C_27  and  O_28 
REMARK   12  A    between atoms: O_28  and  C_29 
ROOT
HETATM    1  C   UNL     1      41.194 -10.784   9.037  1.00  0.00     0.096 A 
HETATM    2  N   UNL     1      40.330 -10.548  10.103  1.00  0.00    -0.215 N 
HETATM    3  N   UNL     1      39.051 -10.598   9.645  1.00  0.00     0.012 NA
HETATM    4  N   UNL     1      39.056 -10.950   8.371  1.00  0.00    -0.152 NA
HETATM    5  C   UNL     1      40.354 -11.079   7.972  1.00  0.00     0.170 A 
ENDROOT
BRANCH   5   6
HETATM    6  C   UNL     1      40.758 -11.474   6.629  1.00  0.00     0.293 C 
HETATM    7  N   UNL     1      40.930 -12.836   6.465  1.00  0.00    -0.242 N 
HETATM    8  H   UNL     1      40.774 -13.474   7.242  1.00  0.00     0.192 HD
HETATM    9  O   UNL     1      40.938 -10.618   5.767  1.00  0.00    -0.264 OA
BRANCH   7  10
HETATM   10  N   UNL     1      41.271 -13.314   5.238  1.00  0.00    -0.184 NA
HETATM   11  C   UNL     1      41.661 -14.548   5.184  1.00  0.00     0.150 C 
BRANCH  11  12
HETATM   12  C   UNL     1      42.031 -15.169   3.896  1.00  0.00    -0.013 A 
HETATM   13  C   UNL     1      41.469 -14.703   2.703  1.00  0.00     0.035 A 
HETATM   14  C   UNL     1      41.818 -15.308   1.500  1.00  0.00     0.047 A 
HETATM   15 BR   UNL     1      41.039 -14.669  -0.105  1.00  0.00    -0.048 Br
HETATM   16  C   UNL     1      42.727 -16.369   1.487  1.00  0.00     0.116 A 
HETATM   17  C   UNL     1      43.299 -16.837   2.680  1.00  0.00     0.104 A 
HETATM   18  C   UNL     1      42.943 -16.233   3.891  1.00  0.00     0.052 A 
BRANCH  16  19
HETATM   19  O   UNL     1      43.081 -16.977   0.308  1.00  0.00    -0.357 OA
HETATM   20  H   UNL     1      43.634 -17.750   0.517  1.00  0.00     0.218 HD
ENDBRANCH  16  19
BRANCH  17  21
HETATM   21  O   UNL     1      44.178 -17.880   2.554  1.00  0.00    -0.349 OA
BRANCH  21  22
HETATM   22  C   UNL     1      43.852 -19.120   3.172  1.00  0.00     0.171 C 
HETATM   23  C   UNL     1      43.488 -20.106   2.077  1.00  0.00     0.034 C 
ENDBRANCH  21  22
ENDBRANCH  17  21
ENDBRANCH  11  12
ENDBRANCH   7  10
ENDBRANCH   5   6
BRANCH   1  24
HETATM   24  C   UNL     1      42.671 -10.631   9.068  1.00  0.00     0.296 C 
BRANCH  24  25
HETATM   25  N   UNL     1      43.456 -11.810   9.620  1.00  0.00    -0.066 N 
HETATM   26  H   UNL     1      42.766 -12.547   9.827  1.00  0.00     0.280 HD
BRANCH  25  27
HETATM   27  C   UNL     1      44.137 -11.443  10.933  1.00  0.00     0.231 C 
HETATM   28  C   UNL     1      43.756 -12.406  12.044  1.00  0.00     0.034 C 
ENDBRANCH  25  27
BRANCH  25  29
HETATM   29  C   UNL     1      44.459 -12.361   8.618  1.00  0.00     0.231 C 
HETATM   30  C   UNL     1      45.847 -11.790   8.865  1.00  0.00     0.034 C 
ENDBRANCH  25  29
ENDBRANCH  24  25
ENDBRANCH   1  24
BRANCH   2  31
HETATM   31  C   UNL     1      40.647 -10.345  11.467  1.00  0.00     0.225 A 
HETATM   32  N   UNL     1      41.307  -9.243  11.839  1.00  0.00    -0.081 NA
HETATM   33  O   UNL     1      41.453  -9.401  13.223  1.00  0.00    -0.103 OA
HETATM   34  N   UNL     1      40.906 -10.601  13.651  1.00  0.00    -0.083 NA
HETATM   35  C   UNL     1      40.408 -11.188  12.565  1.00  0.00     0.201 A 
BRANCH  35  36
HETATM   36  N   UNL     1      39.785 -12.377  12.558  1.00  0.00    -0.379 N 
HETATM   37  H   UNL     1      40.312 -13.231  12.392  1.00  0.00     0.158 HD
HETATM   38  H   UNL     1      38.775 -12.491  12.545  1.00  0.00     0.158 HD
ENDBRANCH  35  36
ENDBRANCH   2  31
TORSDOF 12
ENDMDL
MODEL 2
REMARK VINA RESULT:      -7.6      7.633     10.774
REMARK  12 active torsions:
REMARK  status: ('A' for Active; 'I' for Inactive)
REMARK    1  A    between atoms: C_2  and  N_3 
REMARK    2  A    between atoms: N_3  and  C_5 
REMARK    3  A    between atoms: N_3  and  C_33 
REMARK    4  A    between atoms: C_5  and  C_6 
REMARK    5  A    between atoms: N_7  and  C_8 
REMARK    6  A    between atoms: C_12  and  N_13 
REMARK    7  A    between atoms: C_16  and  C_17 
REMARK       I    between atoms: C_17  and  N_18 
REMARK    8  A    between atoms: N_18  and  N_19 
REMARK    9  A    between atoms: C_20  and  C_21 
REMARK   10  A    between atoms: C_25  and  O_26 
REMARK   11  A    between atoms: C_27  and  O_28 
REMARK   12  A    between atoms: O_28  and  C_29 
ROOT
HETATM    1  C   UNL     1      39.327 -14.385  -1.775  1.00  0.00     0.096 A 
HETATM    2  N   UNL     1      39.046 -14.317  -3.137  1.00  0.00    -0.215 N 
HETATM    3  N   UNL     1      40.194 -14.540  -3.830  1.00  0.00     0.012 NA
HETATM    4  N   UNL     1      41.164 -14.843  -2.984  1.00  0.00    -0.152 NA
HETATM    5  C   UNL     1      40.662 -14.765  -1.719  1.00  0.00     0.170 A 
ENDROOT
BRANCH   5   6
HETATM    6  C   UNL     1      41.435 -15.049  -0.517  1.00  0.00     0.293 C 
HETATM    7  N   UNL     1      41.588 -16.396  -0.244  1.00  0.00    -0.242 N 
HETATM    8  H   UNL     1      41.180 -17.096  -0.859  1.00  0.00     0.192 HD
HETATM    9  O   UNL     1      41.867 -14.124   0.167  1.00  0.00    -0.264 OA
BRANCH   7  10
HETATM   10  N   UNL     1      42.325 -16.770   0.836  1.00  0.00    -0.184 NA
HETATM   11  C   UNL     1      41.738 -17.533   1.702  1.00  0.00     0.150 C 
BRANCH  11  12
HETATM   12  C   UNL     1      42.459 -18.015   2.899  1.00  0.00    -0.013 A 
HETATM   13  C   UNL     1      42.186 -17.461   4.153  1.00  0.00     0.035 A 
HETATM   14  C   UNL     1      42.883 -17.916   5.268  1.00  0.00     0.047 A 
HETATM   15 BR   UNL     1      42.506 -17.147   6.959  1.00  0.00    -0.048 Br
HETATM   16  C   UNL     1      43.844 -18.922   5.132  1.00  0.00     0.116 A 
HETATM   17  C   UNL     1      44.117 -19.485   3.875  1.00  0.00     0.104 A 
HETATM   18  C   UNL     1      43.421 -19.023   2.754  1.00  0.00     0.052 A 
BRANCH  16  19
HETATM   19  O   UNL     1      44.541 -19.380   6.221  1.00  0.00    -0.357 OA
HETATM   20  H   UNL     1      43.913 -19.815   6.825  1.00  0.00     0.218 HD
ENDBRANCH  16  19
BRANCH  17  21
HETATM   21  O   UNL     1      45.076 -20.463   3.855  1.00  0.00    -0.349 OA
BRANCH  21  22
HETATM   22  C   UNL     1      44.702 -21.770   3.432  1.00  0.00     0.171 C 
HETATM   23  C   UNL     1      44.730 -22.679   4.648  1.00  0.00     0.034 C 
ENDBRANCH  21  22
ENDBRANCH  17  21
ENDBRANCH  11  12
ENDBRANCH   7  10
ENDBRANCH   5   6
BRANCH   1  24
HETATM   24  C   UNL     1      38.398 -14.017  -0.678  1.00  0.00     0.296 C 
BRANCH  24  25
HETATM   25  N   UNL     1      38.902 -12.977   0.309  1.00  0.00    -0.066 N 
HETATM   26  H   UNL     1      39.916 -12.889   0.145  1.00  0.00     0.280 HD
BRANCH  25  27
HETATM   27  C   UNL     1      38.715 -13.453   1.745  1.00  0.00     0.231 C 
HETATM   28  C   UNL     1      38.854 -14.962   1.852  1.00  0.00     0.034 C 
ENDBRANCH  25  27
BRANCH  25  29
HETATM   29  C   UNL     1      38.261 -11.614   0.096  1.00  0.00     0.231 C 
HETATM   30  C   UNL     1      36.773 -11.657   0.406  1.00  0.00     0.034 C 
ENDBRANCH  25  29
ENDBRANCH  24  25
ENDBRANCH   1  24
BRANCH   2  31
HETATM   31  C   UNL     1      37.797 -14.116  -3.770  1.00  0.00     0.225 A 
HETATM   32  N   UNL     1      37.196 -15.134  -4.394  1.00  0.00    -0.081 NA
HETATM   33  O   UNL     1      36.025 -14.560  -4.904  1.00  0.00    -0.103 OA
HETATM   34  N   UNL     1      35.956 -13.209  -4.602  1.00  0.00    -0.083 NA
HETATM   35  C   UNL     1      37.054 -12.931  -3.902  1.00  0.00     0.201 A 
BRANCH  35  36
HETATM   36  N   UNL     1      37.361 -11.719  -3.415  1.00  0.00    -0.379 N 
HETATM   37  H   UNL     1      38.311 -11.362  -3.489  1.00  0.00     0.158 HD
HETATM   38  H   UNL     1      36.747 -11.172  -2.817  1.00  0.00     0.158 HD
ENDBRANCH  35  36
ENDBRANCH   2  31
TORSDOF 12
ENDMDL
MODEL 3
REMARK VINA RESULT:      -7.3      5.857      8.282
REMARK  12 active torsions:
REMARK  status: ('A' for Active; 'I' for Inactive)
REMARK    1  A    between atoms: C_2  and  N_3 
REMARK    2  A    between atoms: N_3  and  C_5 
REMARK    3  A    between atoms: N_3  and  C_33 
REMARK    4  A    between atoms: C_5  and  C_6 
REMARK    5  A    between atoms: N_7  and  C_8 
REMARK    6  A    between atoms: C_12  and  N_13 
REMARK    7  A    between atoms: C_16  and  C_17 
REMARK       I    between atoms: C_17  and  N_18 
REMARK    8  A    between atoms: N_18  and  N_19 
REMARK    9  A    between atoms: C_20  and  C_21 
REMARK   10  A    between atoms: C_25  and  O_26 
REMARK   11  A    between atoms: C_27  and  O_28 
REMARK   12  A    between atoms: O_28  and  C_29 
ROOT
HETATM    1  C   UNL     1      43.273 -17.096   4.815  1.00  0.00     0.096 A 
HETATM    2  N   UNL     1      43.053 -17.496   6.130  1.00  0.00    -0.215 N 
HETATM    3  N   UNL     1      42.387 -16.504   6.780  1.00  0.00     0.012 NA
HETATM    4  N   UNL     1      42.088 -15.543   5.923  1.00  0.00    -0.152 NA
HETATM    5  C   UNL     1      42.609 -15.881   4.709  1.00  0.00     0.170 A 
ENDROOT
BRANCH   5   6
HETATM    6  C   UNL     1      42.467 -15.070   3.507  1.00  0.00     0.293 C 
HETATM    7  N   UNL     1      41.384 -15.408   2.718  1.00  0.00    -0.242 N 
HETATM    8  H   UNL     1      40.762 -16.164   2.991  1.00  0.00     0.192 HD
HETATM    9  O   UNL     1      43.290 -14.190   3.260  1.00  0.00    -0.264 OA
BRANCH   7  10
HETATM   10  N   UNL     1      41.139 -14.688   1.591  1.00  0.00    -0.184 NA
HETATM   11  C   UNL     1      41.665 -15.131   0.493  1.00  0.00     0.150 C 
BRANCH  11  12
HETATM   12  C   UNL     1      41.440 -14.434  -0.790  1.00  0.00    -0.013 A 
HETATM   13  C   UNL     1      41.826 -13.099  -0.941  1.00  0.00     0.035 A 
HETATM   14  C   UNL     1      41.594 -12.453  -2.152  1.00  0.00     0.047 A 
HETATM   15 BR   UNL     1      42.115 -10.639  -2.335  1.00  0.00    -0.048 Br
HETATM   16  C   UNL     1      40.986 -13.138  -3.207  1.00  0.00     0.116 A 
HETATM   17  C   UNL     1      40.603 -14.481  -3.063  1.00  0.00     0.104 A 
HETATM   18  C   UNL     1      40.830 -15.128  -1.843  1.00  0.00     0.052 A 
BRANCH  16  19
HETATM   19  O   UNL     1      40.751 -12.514  -4.407  1.00  0.00    -0.357 OA
HETATM   20  H   UNL     1      40.246 -11.700  -4.234  1.00  0.00     0.218 HD
ENDBRANCH  16  19
BRANCH  17  21
HETATM   21  O   UNL     1      40.017 -15.056  -4.159  1.00  0.00    -0.349 OA
BRANCH  21  22
HETATM   22  C   UNL     1      38.908 -15.925  -3.956  1.00  0.00     0.171 C 
HETATM   23  C   UNL     1      37.659 -15.068  -3.844  1.00  0.00     0.034 C 
ENDBRANCH  21  22
ENDBRANCH  17  21
ENDBRANCH  11  12
ENDBRANCH   7  10
ENDBRANCH   5   6
BRANCH   1  24
HETATM   24  C   UNL     1      44.126 -17.802   3.826  1.00  0.00     0.296 C 
BRANCH  24  25
HETATM   25  N   UNL     1      43.468 -18.941   3.064  1.00  0.00    -0.066 N 
HETATM   26  H   UNL     1      42.690 -19.273   3.653  1.00  0.00     0.280 HD
BRANCH  25  27
HETATM   27  C   UNL     1      44.434 -20.106   2.887  1.00  0.00     0.231 C 
HETATM   28  C   UNL     1      43.856 -21.171   1.971  1.00  0.00     0.034 C 
ENDBRANCH  25  27
BRANCH  25  29
HETATM   29  C   UNL     1      42.900 -18.493   1.725  1.00  0.00     0.231 C 
HETATM   30  C   UNL     1      43.876 -17.585   0.994  1.00  0.00     0.034 C 
ENDBRANCH  25  29
ENDBRANCH  24  25
ENDBRANCH   1  24
BRANCH   2  31
HETATM   31  C   UNL     1      43.379 -18.728   6.744  1.00  0.00     0.225 A 
HETATM   32  N   UNL     1      43.317 -19.861   6.038  1.00  0.00    -0.081 NA
HETATM   33  O   UNL     1      43.679 -20.845   6.964  1.00  0.00    -0.103 OA
HETATM   34  N   UNL     1      43.925 -20.293   8.212  1.00  0.00    -0.083 NA
HETATM   35  C   UNL     1      43.738 -18.982   8.079  1.00  0.00     0.201 A 
BRANCH  35  36
HETATM   36  N   UNL     1      43.882 -18.086   9.068  1.00  0.00    -0.379 N 
HETATM   37  H   UNL     1      44.513 -18.276   9.843  1.00  0.00     0.158 HD
HETATM   38  H   UNL     1      43.278 -17.279   9.199  1.00  0.00     0.158 HD
ENDBRANCH  35  36
ENDBRANCH   2  31
TORSDOF 12
ENDMDL
MODEL 4
REMARK VINA RESULT:      -7.3      6.623     10.800
REMARK  12 active torsions:
REMARK  status: ('A' for Active; 'I' for Inactive)
REMARK    1  A    between atoms: C_2  and  N_3 
REMARK    2  A    between atoms: N_3  and  C_5 
REMARK    3  A    between atoms: N_3  and  C_33 
REMARK    4  A    between atoms: C_5  and  C_6 
REMARK    5  A    between atoms: N_7  and  C_8 
REMARK    6  A    between atoms: C_12  and  N_13 
REMARK    7  A    between atoms: C_16  and  C_17 
REMARK       I    between atoms: C_17  and  N_18 
REMARK    8  A    between atoms: N_18  and  N_19 
REMARK    9  A    between atoms: C_20  and  C_21 
REMARK   10  A    between atoms: C_25  and  O_26 
REMARK   11  A    between atoms: C_27  and  O_28 
REMARK   12  A    between atoms: O_28  and  C_29 
ROOT
HETATM    1  C   UNL     1      39.515 -14.378  -1.727  1.00  0.00     0.096 A 
HETATM    2  N   UNL     1      39.197 -14.402  -3.082  1.00  0.00    -0.215 N 
HETATM    3  N   UNL     1      40.325 -14.675  -3.789  1.00  0.00     0.012 NA
HETATM    4  N   UNL     1      41.318 -14.921  -2.951  1.00  0.00    -0.152 NA
HETATM    5  C   UNL     1      40.851 -14.755  -1.681  1.00  0.00     0.170 A 
ENDROOT
BRANCH   5   6
HETATM    6  C   UNL     1      41.656 -14.958  -0.484  1.00  0.00     0.293 C 
HETATM    7  N   UNL     1      41.900 -16.285  -0.181  1.00  0.00    -0.242 N 
HETATM    8  H   UNL     1      41.531 -17.026  -0.772  1.00  0.00     0.192 HD
HETATM    9  O   UNL     1      42.035 -13.990   0.171  1.00  0.00    -0.264 OA
BRANCH   7  10
HETATM   10  N   UNL     1      42.674 -16.584   0.897  1.00  0.00    -0.184 NA
HETATM   11  C   UNL     1      42.089 -17.190   1.881  1.00  0.00     0.150 C 
BRANCH  11  12
HETATM   12  C   UNL     1      42.846 -17.579   3.088  1.00  0.00    -0.013 A 
HETATM   13  C   UNL     1      43.446 -18.840   3.165  1.00  0.00     0.035 A 
HETATM   14  C   UNL     1      44.144 -19.196   4.315  1.00  0.00     0.047 A 
HETATM   15 BR   UNL     1      44.942 -20.913   4.405  1.00  0.00    -0.048 Br
HETATM   16  C   UNL     1      44.247 -18.297   5.380  1.00  0.00     0.116 A 
HETATM   17  C   UNL     1      43.652 -17.028   5.305  1.00  0.00     0.104 A 
HETATM   18  C   UNL     1      42.945 -16.673   4.151  1.00  0.00     0.052 A 
BRANCH  16  19
HETATM   19  O   UNL     1      44.932 -18.634   6.520  1.00  0.00    -0.357 OA
HETATM   20  H   UNL     1      44.568 -18.115   7.260  1.00  0.00     0.218 HD
ENDBRANCH  16  19
BRANCH  17  21
HETATM   21  O   UNL     1      43.815 -16.226   6.403  1.00  0.00    -0.349 OA
BRANCH  21  22
HETATM   22  C   UNL     1      43.638 -14.822   6.249  1.00  0.00     0.171 C 
HETATM   23  C   UNL     1      44.741 -14.124   7.024  1.00  0.00     0.034 C 
ENDBRANCH  21  22
ENDBRANCH  17  21
ENDBRANCH  11  12
ENDBRANCH   7  10
ENDBRANCH   5   6
BRANCH   1  24
HETATM   24  C   UNL     1      38.616 -13.934  -0.633  1.00  0.00     0.296 C 
BRANCH  24  25
HETATM   25  N   UNL     1      39.217 -12.976   0.384  1.00  0.00    -0.066 N 
HETATM   26  H   UNL     1      40.239 -13.094   0.324  1.00  0.00     0.280 HD
BRANCH  25  27
HETATM   27  C   UNL     1      38.797 -13.352   1.800  1.00  0.00     0.231 C 
HETATM   28  C   UNL     1      39.121 -14.803   2.108  1.00  0.00     0.034 C 
ENDBRANCH  25  27
BRANCH  25  29
HETATM   29  C   UNL     1      38.883 -11.523   0.081  1.00  0.00     0.231 C 
HETATM   30  C   UNL     1      40.044 -10.830  -0.613  1.00  0.00     0.034 C 
ENDBRANCH  25  29
ENDBRANCH  24  25
ENDBRANCH   1  24
BRANCH   2  31
HETATM   31  C   UNL     1      37.931 -14.242  -3.694  1.00  0.00     0.225 A 
HETATM   32  N   UNL     1      37.334 -15.289  -4.271  1.00  0.00    -0.081 NA
HETATM   33  O   UNL     1      36.143 -14.752  -4.773  1.00  0.00    -0.103 OA
HETATM   34  N   UNL     1      36.058 -13.393  -4.513  1.00  0.00    -0.083 NA
HETATM   35  C   UNL     1      37.165 -13.075  -3.846  1.00  0.00     0.201 A 
BRANCH  35  36
HETATM   36  N   UNL     1      37.463 -11.842  -3.406  1.00  0.00    -0.379 N 
HETATM   37  H   UNL     1      38.405 -11.623  -3.094  1.00  0.00     0.158 HD
HETATM   38  H   UNL     1      36.769 -11.128  -3.199  1.00  0.00     0.158 HD
ENDBRANCH  35  36
ENDBRANCH   2  31
TORSDOF 12
ENDMDL
MODEL 5
REMARK VINA RESULT:      -7.2      7.145     10.599
REMARK  12 active torsions:
REMARK  status: ('A' for Active; 'I' for Inactive)
REMARK    1  A    between atoms: C_2  and  N_3 
REMARK    2  A    between atoms: N_3  and  C_5 
REMARK    3  A    between atoms: N_3  and  C_33 
REMARK    4  A    between atoms: C_5  and  C_6 
REMARK    5  A    between atoms: N_7  and  C_8 
REMARK    6  A    between atoms: C_12  and  N_13 
REMARK    7  A    between atoms: C_16  and  C_17 
REMARK       I    between atoms: C_17  and  N_18 
REMARK    8  A    between atoms: N_18  and  N_19 
REMARK    9  A    between atoms: C_20  and  C_21 
REMARK   10  A    between atoms: C_25  and  O_26 
REMARK   11  A    between atoms: C_27  and  O_28 
REMARK   12  A    between atoms: O_28  and  C_29 
ROOT
HETATM    1  C   UNL     1      40.861 -13.418  -1.742  1.00  0.00     0.096 A 
HETATM    2  N   UNL     1      40.769 -13.269  -3.123  1.00  0.00    -0.215 N 
HETATM    3  N   UNL     1      41.020 -14.470  -3.709  1.00  0.00     0.012 NA
HETATM    4  N   UNL     1      41.168 -15.391  -2.772  1.00  0.00    -0.152 NA
HETATM    5  C   UNL     1      41.067 -14.779  -1.557  1.00  0.00     0.170 A 
ENDROOT
BRANCH   5   6
HETATM    6  C   UNL     1      41.160 -15.479  -0.282  1.00  0.00     0.293 C 
HETATM    7  N   UNL     1      42.310 -16.230  -0.129  1.00  0.00    -0.242 N 
HETATM    8  H   UNL     1      43.008 -16.263  -0.868  1.00  0.00     0.192 HD
HETATM    9  O   UNL     1      40.248 -15.387   0.536  1.00  0.00    -0.264 OA
BRANCH   7  10
HETATM   10  N   UNL     1      42.514 -16.894   1.040  1.00  0.00    -0.184 NA
HETATM   11  C   UNL     1      43.473 -17.764   1.054  1.00  0.00     0.150 C 
BRANCH  11  12
HETATM   12  C   UNL     1      43.790 -18.522   2.283  1.00  0.00    -0.013 A 
HETATM   13  C   UNL     1      44.033 -19.897   2.217  1.00  0.00     0.035 A 
HETATM   14  C   UNL     1      44.316 -20.598   3.385  1.00  0.00     0.047 A 
HETATM   15 BR   UNL     1      44.632 -22.464   3.277  1.00  0.00    -0.048 Br
HETATM   16  C   UNL     1      44.363 -19.929   4.611  1.00  0.00     0.116 A 
HETATM   17  C   UNL     1      44.127 -18.547   4.681  1.00  0.00     0.104 A 
HETATM   18  C   UNL     1      43.835 -17.844   3.508  1.00  0.00     0.052 A 
BRANCH  16  19
HETATM   19  O   UNL     1      44.641 -20.607   5.771  1.00  0.00    -0.357 OA
HETATM   20  H   UNL     1      45.606 -20.605   5.903  1.00  0.00     0.218 HD
ENDBRANCH  16  19
BRANCH  17  21
HETATM   21  O   UNL     1      44.198 -17.992   5.931  1.00  0.00    -0.349 OA
BRANCH  21  22
HETATM   22  C   UNL     1      43.014 -17.440   6.496  1.00  0.00     0.171 C 
HETATM   23  C   UNL     1      43.427 -16.472   7.591  1.00  0.00     0.034 C 
ENDBRANCH  21  22
ENDBRANCH  17  21
ENDBRANCH  11  12
ENDBRANCH   7  10
ENDBRANCH   5   6
BRANCH   1  24
HETATM   24  C   UNL     1      40.843 -12.317  -0.747  1.00  0.00     0.296 C 
BRANCH  24  25
HETATM   25  N   UNL     1      42.168 -12.000  -0.073  1.00  0.00    -0.066 N 
HETATM   26  H   UNL     1      42.879 -12.576  -0.546  1.00  0.00     0.280 HD
BRANCH  25  27
HETATM   27  C   UNL     1      42.146 -12.415   1.393  1.00  0.00     0.231 C 
HETATM   28  C   UNL     1      40.818 -12.077   2.046  1.00  0.00     0.034 C 
ENDBRANCH  25  27
BRANCH  25  29
HETATM   29  C   UNL     1      42.560 -10.536  -0.222  1.00  0.00     0.231 C 
HETATM   30  C   UNL     1      43.481 -10.337  -1.415  1.00  0.00     0.034 C 
ENDBRANCH  25  29
ENDBRANCH  24  25
ENDBRANCH   1  24
BRANCH   2  31
HETATM   31  C   UNL     1      40.419 -12.115  -3.864  1.00  0.00     0.225 A 
HETATM   32  N   UNL     1      39.147 -11.707  -3.899  1.00  0.00    -0.081 NA
HETATM   33  O   UNL     1      39.187 -10.579  -4.726  1.00  0.00    -0.103 OA
HETATM   34  N   UNL     1      40.471 -10.345  -5.193  1.00  0.00    -0.083 NA
HETATM   35  C   UNL     1      41.236 -11.297  -4.662  1.00  0.00     0.201 A 
BRANCH  35  36
HETATM   36  N   UNL     1      42.556 -11.419  -4.870  1.00  0.00    -0.379 N 
HETATM   37  H   UNL     1      42.912 -11.637  -5.797  1.00  0.00     0.158 HD
HETATM   38  H   UNL     1      43.248 -11.473  -4.126  1.00  0.00     0.158 HD
ENDBRANCH  35  36
ENDBRANCH   2  31
TORSDOF 12
ENDMDL
MODEL 6
REMARK VINA RESULT:      -7.1      5.908      8.343
REMARK  12 active torsions:
REMARK  status: ('A' for Active; 'I' for Inactive)
REMARK    1  A    between atoms: C_2  and  N_3 
REMARK    2  A    between atoms: N_3  and  C_5 
REMARK    3  A    between atoms: N_3  and  C_33 
REMARK    4  A    between atoms: C_5  and  C_6 
REMARK    5  A    between atoms: N_7  and  C_8 
REMARK    6  A    between atoms: C_12  and  N_13 
REMARK    7  A    between atoms: C_16  and  C_17 
REMARK       I    between atoms: C_17  and  N_18 
REMARK    8  A    between atoms: N_18  and  N_19 
REMARK    9  A    between atoms: C_20  and  C_21 
REMARK   10  A    between atoms: C_25  and  O_26 
REMARK   11  A    between atoms: C_27  and  O_28 
REMARK   12  A    between atoms: O_28  and  C_29 
ROOT
HETATM    1  C   UNL     1      43.068 -16.792   4.608  1.00  0.00     0.096 A 
HETATM    2  N   UNL     1      43.672 -17.072   5.830  1.00  0.00    -0.215 N 
HETATM    3  N   UNL     1      44.107 -15.905   6.378  1.00  0.00     0.012 NA
HETATM    4  N   UNL     1      43.724 -14.895   5.616  1.00  0.00    -0.152 NA
HETATM    5  C   UNL     1      43.078 -15.406   4.529  1.00  0.00     0.170 A 
ENDROOT
BRANCH   5   6
HETATM    6  C   UNL     1      42.495 -14.591   3.471  1.00  0.00     0.293 C 
HETATM    7  N   UNL     1      41.117 -14.670   3.386  1.00  0.00    -0.242 N 
HETATM    8  H   UNL     1      40.593 -15.257   4.030  1.00  0.00     0.192 HD
HETATM    9  O   UNL     1      43.223 -13.931   2.733  1.00  0.00    -0.264 OA
BRANCH   7  10
HETATM   10  N   UNL     1      40.470 -13.919   2.455  1.00  0.00    -0.184 NA
HETATM   11  C   UNL     1      39.781 -14.563   1.567  1.00  0.00     0.150 C 
BRANCH  11  12
HETATM   12  C   UNL     1      39.022 -13.839   0.526  1.00  0.00    -0.013 A 
HETATM   13  C   UNL     1      37.964 -12.999   0.885  1.00  0.00     0.035 A 
HETATM   14  C   UNL     1      37.250 -12.336  -0.108  1.00  0.00     0.047 A 
HETATM   15 BR   UNL     1      35.812 -11.209   0.396  1.00  0.00    -0.048 Br
HETATM   16  C   UNL     1      37.595 -12.506  -1.452  1.00  0.00     0.116 A 
HETATM   17  C   UNL     1      38.661 -13.343  -1.817  1.00  0.00     0.104 A 
HETATM   18  C   UNL     1      39.374 -14.015  -0.818  1.00  0.00     0.052 A 
BRANCH  16  19
HETATM   19  O   UNL     1      36.901 -11.859  -2.443  1.00  0.00    -0.357 OA
HETATM   20  H   UNL     1      36.507 -11.053  -2.064  1.00  0.00     0.218 HD
ENDBRANCH  16  19
BRANCH  17  21
HETATM   21  O   UNL     1      38.914 -13.438  -3.159  1.00  0.00    -0.349 OA
BRANCH  21  22
HETATM   22  C   UNL     1      39.507 -14.633  -3.655  1.00  0.00     0.171 C 
HETATM   23  C   UNL     1      38.388 -15.578  -4.054  1.00  0.00     0.034 C 
ENDBRANCH  21  22
ENDBRANCH  17  21
ENDBRANCH  11  12
ENDBRANCH   7  10
ENDBRANCH   5   6
BRANCH   1  24
HETATM   24  C   UNL     1      42.631 -17.797   3.607  1.00  0.00     0.296 C 
BRANCH  24  25
HETATM   25  N   UNL     1      43.720 -18.382   2.723  1.00  0.00    -0.066 N 
HETATM   26  H   UNL     1      44.549 -18.501   3.323  1.00  0.00     0.280 HD
BRANCH  25  27
HETATM   27  C   UNL     1      44.099 -17.411   1.611  1.00  0.00     0.231 C 
HETATM   28  C   UNL     1      42.894 -17.036   0.767  1.00  0.00     0.034 C 
ENDBRANCH  25  27
BRANCH  25  29
HETATM   29  C   UNL     1      43.339 -19.742   2.155  1.00  0.00     0.231 C 
HETATM   30  C   UNL     1      44.417 -20.775   2.443  1.00  0.00     0.034 C 
ENDBRANCH  25  29
ENDBRANCH  24  25
ENDBRANCH   1  24
BRANCH   2  31
HETATM   31  C   UNL     1      43.798 -18.318   6.488  1.00  0.00     0.225 A 
HETATM   32  N   UNL     1      43.949 -19.436   5.771  1.00  0.00    -0.081 NA
HETATM   33  O   UNL     1      44.015 -20.442   6.742  1.00  0.00    -0.103 OA
HETATM   34  N   UNL     1      43.877 -19.917   8.017  1.00  0.00    -0.083 NA
HETATM   35  C   UNL     1      43.739 -18.601   7.862  1.00  0.00     0.201 A 
BRANCH  35  36
HETATM   36  N   UNL     1      43.582 -17.727   8.868  1.00  0.00    -0.379 N 
HETATM   37  H   UNL     1      42.650 -17.483   9.195  1.00  0.00     0.158 HD
HETATM   38  H   UNL     1      44.329 -17.145   9.240  1.00  0.00     0.158 HD
ENDBRANCH  35  36
ENDBRANCH   2  31
TORSDOF 12
ENDMDL
MODEL 7
REMARK VINA RESULT:      -7.1      5.518      8.170
REMARK  12 active torsions:
REMARK  status: ('A' for Active; 'I' for Inactive)
REMARK    1  A    between atoms: C_2  and  N_3 
REMARK    2  A    between atoms: N_3  and  C_5 
REMARK    3  A    between atoms: N_3  and  C_33 
REMARK    4  A    between atoms: C_5  and  C_6 
REMARK    5  A    between atoms: N_7  and  C_8 
REMARK    6  A    between atoms: C_12  and  N_13 
REMARK    7  A    between atoms: C_16  and  C_17 
REMARK       I    between atoms: C_17  and  N_18 
REMARK    8  A    between atoms: N_18  and  N_19 
REMARK    9  A    between atoms: C_20  and  C_21 
REMARK   10  A    between atoms: C_25  and  O_26 
REMARK   11  A    between atoms: C_27  and  O_28 
REMARK   12  A    between atoms: O_28  and  C_29 
ROOT
HETATM    1  C   UNL     1      43.434 -17.943   4.300  1.00  0.00     0.096 A 
HETATM    2  N   UNL     1      43.909 -18.931   5.158  1.00  0.00    -0.215 N 
HETATM    3  N   UNL     1      44.365 -19.972   4.412  1.00  0.00     0.012 NA
HETATM    4  N   UNL     1      44.296 -19.656   3.130  1.00  0.00    -0.152 NA
HETATM    5  C   UNL     1      43.738 -18.416   3.030  1.00  0.00     0.170 A 
ENDROOT
BRANCH   5   6
HETATM    6  C   UNL     1      43.515 -17.722   1.768  1.00  0.00     0.293 C 
HETATM    7  N   UNL     1      42.183 -17.559   1.436  1.00  0.00    -0.242 N 
HETATM    8  H   UNL     1      41.452 -17.906   2.051  1.00  0.00     0.192 HD
HETATM    9  O   UNL     1      44.474 -17.361   1.089  1.00  0.00    -0.264 OA
BRANCH   7  10
HETATM   10  N   UNL     1      41.865 -16.891   0.295  1.00  0.00    -0.184 NA
HETATM   11  C   UNL     1      41.558 -15.639   0.422  1.00  0.00     0.150 C 
BRANCH  11  12
HETATM   12  C   UNL     1      41.220 -14.818  -0.760  1.00  0.00    -0.013 A 
HETATM   13  C   UNL     1      41.350 -13.427  -0.709  1.00  0.00     0.035 A 
HETATM   14  C   UNL     1      41.014 -12.668  -1.826  1.00  0.00     0.047 A 
HETATM   15 BR   UNL     1      41.187 -10.782  -1.735  1.00  0.00    -0.048 Br
HETATM   16  C   UNL     1      40.556 -13.295  -2.988  1.00  0.00     0.116 A 
HETATM   17  C   UNL     1      40.430 -14.691  -3.046  1.00  0.00     0.104 A 
HETATM   18  C   UNL     1      40.761 -15.454  -1.921  1.00  0.00     0.052 A 
BRANCH  16  19
HETATM   19  O   UNL     1      40.221 -12.559  -4.097  1.00  0.00    -0.357 OA
HETATM   20  H   UNL     1      40.752 -11.743  -4.095  1.00  0.00     0.218 HD
ENDBRANCH  16  19
BRANCH  17  21
HETATM   21  O   UNL     1      39.974 -15.202  -4.232  1.00  0.00    -0.349 OA
BRANCH  21  22
HETATM   22  C   UNL     1      38.844 -16.067  -4.208  1.00  0.00     0.171 C 
HETATM   23  C   UNL     1      37.625 -15.233  -3.858  1.00  0.00     0.034 C 
ENDBRANCH  21  22
ENDBRANCH  17  21
ENDBRANCH  11  12
ENDBRANCH   7  10
ENDBRANCH   5   6
BRANCH   1  24
HETATM   24  C   UNL     1      42.682 -16.729   4.706  1.00  0.00     0.296 C 
BRANCH  24  25
HETATM   25  N   UNL     1      43.491 -15.447   4.825  1.00  0.00    -0.066 N 
HETATM   26  H   UNL     1      44.468 -15.734   4.977  1.00  0.00     0.280 HD
BRANCH  25  27
HETATM   27  C   UNL     1      43.058 -14.642   6.045  1.00  0.00     0.231 C 
HETATM   28  C   UNL     1      44.256 -14.119   6.817  1.00  0.00     0.034 C 
ENDBRANCH  25  27
BRANCH  25  29
HETATM   29  C   UNL     1      43.429 -14.602   3.561  1.00  0.00     0.231 C 
HETATM   30  C   UNL     1      42.266 -13.625   3.614  1.00  0.00     0.034 C 
ENDBRANCH  25  29
ENDBRANCH  24  25
ENDBRANCH   1  24
BRANCH   2  31
HETATM   31  C   UNL     1      43.993 -18.906   6.570  1.00  0.00     0.225 A 
HETATM   32  N   UNL     1      44.316 -17.771   7.197  1.00  0.00    -0.081 NA
HETATM   33  O   UNL     1      44.321 -18.134   8.549  1.00  0.00    -0.103 OA
HETATM   34  N   UNL     1      44.030 -19.480   8.708  1.00  0.00    -0.083 NA
HETATM   35  C   UNL     1      43.829 -19.961   7.483  1.00  0.00     0.201 A 
BRANCH  35  36
HETATM   36  N   UNL     1      43.517 -21.237   7.206  1.00  0.00    -0.379 N 
HETATM   37  H   UNL     1      42.659 -21.458   6.707  1.00  0.00     0.158 HD
HETATM   38  H   UNL     1      43.998 -22.040   7.603  1.00  0.00     0.158 HD
ENDBRANCH  35  36
ENDBRANCH   2  31
TORSDOF 12
ENDMDL
MODEL 8
REMARK VINA RESULT:      -7.0      5.950      8.390
REMARK  12 active torsions:
REMARK  status: ('A' for Active; 'I' for Inactive)
REMARK    1  A    between atoms: C_2  and  N_3 
REMARK    2  A    between atoms: N_3  and  C_5 
REMARK    3  A    between atoms: N_3  and  C_33 
REMARK    4  A    between atoms: C_5  and  C_6 
REMARK    5  A    between atoms: N_7  and  C_8 
REMARK    6  A    between atoms: C_12  and  N_13 
REMARK    7  A    between atoms: C_16  and  C_17 
REMARK       I    between atoms: C_17  and  N_18 
REMARK    8  A    between atoms: N_18  and  N_19 
REMARK    9  A    between atoms: C_20  and  C_21 
REMARK   10  A    between atoms: C_25  and  O_26 
REMARK   11  A    between atoms: C_27  and  O_28 
REMARK   12  A    between atoms: O_28  and  C_29 
ROOT
HETATM    1  C   UNL     1      42.502 -16.886   4.321  1.00  0.00     0.096 A 
HETATM    2  N   UNL     1      43.129 -16.986   5.560  1.00  0.00    -0.215 N 
HETATM    3  N   UNL     1      43.337 -15.733   6.045  1.00  0.00     0.012 NA
HETATM    4  N   UNL     1      42.787 -14.851   5.228  1.00  0.00    -0.152 NA
HETATM    5  C   UNL     1      42.260 -15.527   4.167  1.00  0.00     0.170 A 
ENDROOT
BRANCH   5   6
HETATM    6  C   UNL     1      41.554 -14.890   3.064  1.00  0.00     0.293 C 
HETATM    7  N   UNL     1      42.338 -14.046   2.299  1.00  0.00    -0.242 N 
HETATM    8  H   UNL     1      43.321 -13.913   2.521  1.00  0.00     0.192 HD
HETATM    9  O   UNL     1      40.356 -15.106   2.896  1.00  0.00    -0.264 OA
BRANCH   7  10
HETATM   10  N   UNL     1      41.784 -13.429   1.221  1.00  0.00    -0.184 NA
HETATM   11  C   UNL     1      42.094 -13.906   0.057  1.00  0.00     0.150 C 
BRANCH  11  12
HETATM   12  C   UNL     1      41.527 -13.321  -1.176  1.00  0.00    -0.013 A 
HETATM   13  C   UNL     1      42.127 -12.204  -1.764  1.00  0.00     0.035 A 
HETATM   14  C   UNL     1      41.573 -11.657  -2.917  1.00  0.00     0.047 A 
HETATM   15 BR   UNL     1      42.395 -10.135  -3.694  1.00  0.00    -0.048 Br
HETATM   16  C   UNL     1      40.430 -12.227  -3.484  1.00  0.00     0.116 A 
HETATM   17  C   UNL     1      39.827 -13.353  -2.901  1.00  0.00     0.104 A 
HETATM   18  C   UNL     1      40.381 -13.898  -1.738  1.00  0.00     0.052 A 
BRANCH  16  19
HETATM   19  O   UNL     1      39.871 -11.699  -4.620  1.00  0.00    -0.357 OA
HETATM   20  H   UNL     1      39.975 -12.345  -5.341  1.00  0.00     0.218 HD
ENDBRANCH  16  19
BRANCH  17  21
HETATM   21  O   UNL     1      38.713 -13.831  -3.538  1.00  0.00    -0.349 OA
BRANCH  21  22
HETATM   22  C   UNL     1      38.296 -15.164  -3.265  1.00  0.00     0.171 C 
HETATM   23  C   UNL     1      38.873 -16.063  -4.345  1.00  0.00     0.034 C 
ENDBRANCH  21  22
ENDBRANCH  17  21
ENDBRANCH  11  12
ENDBRANCH   7  10
ENDBRANCH   5   6
BRANCH   1  24
HETATM   24  C   UNL     1      42.269 -18.006   3.375  1.00  0.00     0.296 C 
BRANCH  24  25
HETATM   25  N   UNL     1      43.507 -18.609   2.731  1.00  0.00    -0.066 N 
HETATM   26  H   UNL     1      44.183 -18.766   3.492  1.00  0.00     0.280 HD
BRANCH  25  27
HETATM   27  C   UNL     1      44.143 -17.629   1.752  1.00  0.00     0.231 C 
HETATM   28  C   UNL     1      43.177 -17.242   0.647  1.00  0.00     0.034 C 
ENDBRANCH  25  27
BRANCH  25  29
HETATM   29  C   UNL     1      43.220 -19.944   2.060  1.00  0.00     0.231 C 
HETATM   30  C   UNL     1      44.305 -20.960   2.381  1.00  0.00     0.034 C 
ENDBRANCH  25  29
ENDBRANCH  24  25
ENDBRANCH   1  24
BRANCH   2  31
HETATM   31  C   UNL     1      43.470 -18.152   6.285  1.00  0.00     0.225 A 
HETATM   32  N   UNL     1      43.720 -19.292   5.632  1.00  0.00    -0.081 NA
HETATM   33  O   UNL     1      43.993 -20.204   6.658  1.00  0.00    -0.103 OA
HETATM   34  N   UNL     1      43.876 -19.607   7.904  1.00  0.00    -0.083 NA
HETATM   35  C   UNL     1      43.550 -18.337   7.675  1.00  0.00     0.201 A 
BRANCH  35  36
HETATM   36  N   UNL     1      43.347 -17.417   8.631  1.00  0.00    -0.379 N 
HETATM   37  H   UNL     1      42.476 -17.405   9.155  1.00  0.00     0.158 HD
HETATM   38  H   UNL     1      43.941 -16.604   8.775  1.00  0.00     0.158 HD
ENDBRANCH  35  36
ENDBRANCH   2  31
TORSDOF 12
ENDMDL
MODEL 9
REMARK VINA RESULT:      -7.0      4.975      9.671
REMARK  12 active torsions:
REMARK  status: ('A' for Active; 'I' for Inactive)
REMARK    1  A    between atoms: C_2  and  N_3 
REMARK    2  A    between atoms: N_3  and  C_5 
REMARK    3  A    between atoms: N_3  and  C_33 
REMARK    4  A    between atoms: C_5  and  C_6 
REMARK    5  A    between atoms: N_7  and  C_8 
REMARK    6  A    between atoms: C_12  and  N_13 
REMARK    7  A    between atoms: C_16  and  C_17 
REMARK       I    between atoms: C_17  and  N_18 
REMARK    8  A    between atoms: N_18  and  N_19 
REMARK    9  A    between atoms: C_20  and  C_21 
REMARK   10  A    between atoms: C_25  and  O_26 
REMARK   11  A    between atoms: C_27  and  O_28 
REMARK   12  A    between atoms: O_28  and  C_29 
ROOT
HETATM    1  C   UNL     1      43.339 -18.331   3.740  1.00  0.00     0.096 A 
HETATM    2  N   UNL     1      43.977 -19.309   2.982  1.00  0.00    -0.215 N 
HETATM    3  N   UNL     1      44.309 -18.776   1.776  1.00  0.00     0.012 NA
HETATM    4  N   UNL     1      44.005 -17.489   1.767  1.00  0.00    -0.152 NA
HETATM    5  C   UNL     1      43.417 -17.185   2.959  1.00  0.00     0.170 A 
ENDROOT
BRANCH   5   6
HETATM    6  C   UNL     1      42.959 -15.851   3.325  1.00  0.00     0.293 C 
HETATM    7  N   UNL     1      41.915 -15.377   2.554  1.00  0.00    -0.242 N 
HETATM    8  H   UNL     1      41.526 -15.945   1.805  1.00  0.00     0.192 HD
HETATM    9  O   UNL     1      43.514 -15.241   4.237  1.00  0.00    -0.264 OA
BRANCH   7  10
HETATM   10  N   UNL     1      41.388 -14.155   2.837  1.00  0.00    -0.184 NA
HETATM   11  C   UNL     1      40.345 -14.137   3.604  1.00  0.00     0.150 C 
BRANCH  11  12
HETATM   12  C   UNL     1      39.711 -12.859   3.990  1.00  0.00    -0.013 A 
HETATM   13  C   UNL     1      38.944 -12.147   3.063  1.00  0.00     0.035 A 
HETATM   14  C   UNL     1      38.365 -10.939   3.438  1.00  0.00     0.047 A 
HETATM   15 BR   UNL     1      37.336  -9.983   2.164  1.00  0.00    -0.048 Br
HETATM   16  C   UNL     1      38.546 -10.447   4.733  1.00  0.00     0.116 A 
HETATM   17  C   UNL     1      39.310 -11.161   5.670  1.00  0.00     0.104 A 
HETATM   18  C   UNL     1      39.897 -12.373   5.290  1.00  0.00     0.052 A 
BRANCH  16  19
HETATM   19  O   UNL     1      37.982  -9.257   5.118  1.00  0.00    -0.357 OA
HETATM   20  H   UNL     1      37.014  -9.354   5.089  1.00  0.00     0.218 HD
ENDBRANCH  16  19
BRANCH  17  21
HETATM   21  O   UNL     1      39.422 -10.590   6.909  1.00  0.00    -0.349 OA
BRANCH  21  22
HETATM   22  C   UNL     1      39.300 -11.426   8.055  1.00  0.00     0.171 C 
HETATM   23  C   UNL     1      39.932 -10.703   9.230  1.00  0.00     0.034 C 
ENDBRANCH  21  22
ENDBRANCH  17  21
ENDBRANCH  11  12
ENDBRANCH   7  10
ENDBRANCH   5   6
BRANCH   1  24
HETATM   24  C   UNL     1      42.652 -18.551   5.038  1.00  0.00     0.296 C 
BRANCH  24  25
HETATM   25  N   UNL     1      43.072 -17.642   6.182  1.00  0.00    -0.066 N 
HETATM   26  H   UNL     1      43.556 -16.840   5.752  1.00  0.00     0.280 HD
BRANCH  25  27
HETATM   27  C   UNL     1      44.072 -18.341   7.094  1.00  0.00     0.231 C 
HETATM   28  C   UNL     1      45.502 -18.031   6.691  1.00  0.00     0.034 C 
ENDBRANCH  25  27
BRANCH  25  29
HETATM   29  C   UNL     1      41.882 -17.117   6.973  1.00  0.00     0.231 C 
HETATM   30  C   UNL     1      40.675 -16.911   6.072  1.00  0.00     0.034 C 
ENDBRANCH  25  29
ENDBRANCH  24  25
ENDBRANCH   1  24
BRANCH   2  31
HETATM   31  C   UNL     1      44.314 -20.632   3.353  1.00  0.00     0.225 A 
HETATM   32  N   UNL     1      44.805 -20.877   4.571  1.00  0.00    -0.081 NA
HETATM   33  O   UNL     1      45.032 -22.258   4.561  1.00  0.00    -0.103 OA
HETATM   34  N   UNL     1      44.702 -22.811   3.334  1.00  0.00    -0.083 NA
HETATM   35  C   UNL     1      44.259 -21.805   2.583  1.00  0.00     0.201 A 
BRANCH  35  36
HETATM   36  N   UNL     1      43.834 -21.929   1.316  1.00  0.00    -0.379 N 
HETATM   37  H   UNL     1      44.460 -22.286   0.598  1.00  0.00     0.158 HD
HETATM   38  H   UNL     1      42.965 -21.535   0.965  1.00  0.00     0.158 HD
ENDBRANCH  35  36
ENDBRANCH   2  31
TORSDOF 12
ENDMDL
MODEL 10
REMARK VINA RESULT:      -6.9      6.319      9.061
REMARK  12 active torsions:
REMARK  status: ('A' for Active; 'I' for Inactive)
REMARK    1  A    between atoms: C_2  and  N_3 
REMARK    2  A    between atoms: N_3  and  C_5 
REMARK    3  A    between atoms: N_3  and  C_33 
REMARK    4  A    between atoms: C_5  and  C_6 
REMARK    5  A    between atoms: N_7  and  C_8 
REMARK    6  A    between atoms: C_12  and  N_13 
REMARK    7  A    between atoms: C_16  and  C_17 
REMARK       I    between atoms: C_17  and  N_18 
REMARK    8  A    between atoms: N_18  and  N_19 
REMARK    9  A    between atoms: C_20  and  C_21 
REMARK   10  A    between atoms: C_25  and  O_26 
REMARK   11  A    between atoms: C_27  and  O_28 
REMARK   12  A    between atoms: O_28  and  C_29 
ROOT
HETATM    1  C   UNL     1      41.242 -12.814  -0.142  1.00  0.00     0.096 A 
HETATM    2  N   UNL     1      40.713 -12.045  -1.175  1.00  0.00    -0.215 N 
HETATM    3  N   UNL     1      40.036 -12.863  -2.024  1.00  0.00     0.012 NA
HETATM    4  N   UNL     1      40.025 -14.091  -1.533  1.00  0.00    -0.152 NA
HETATM    5  C   UNL     1      40.748 -14.090  -0.377  1.00  0.00     0.170 A 
ENDROOT
BRANCH   5   6
HETATM    6  C   UNL     1      40.946 -15.266   0.461  1.00  0.00     0.293 C 
HETATM    7  N   UNL     1      42.075 -16.002   0.151  1.00  0.00    -0.242 N 
HETATM    8  H   UNL     1      42.690 -15.710  -0.604  1.00  0.00     0.192 HD
HETATM    9  O   UNL     1      40.128 -15.540   1.336  1.00  0.00    -0.264 OA
BRANCH   7  10
HETATM   10  N   UNL     1      42.372 -17.099   0.897  1.00  0.00    -0.184 NA
HETATM   11  C   UNL     1      43.365 -16.988   1.721  1.00  0.00     0.150 C 
BRANCH  11  12
HETATM   12  C   UNL     1      43.754 -18.116   2.594  1.00  0.00    -0.013 A 
HETATM   13  C   UNL     1      43.921 -19.395   2.056  1.00  0.00     0.035 A 
HETATM   14  C   UNL     1      44.274 -20.448   2.894  1.00  0.00     0.047 A 
HETATM   15 BR   UNL     1      44.487 -22.178   2.149  1.00  0.00    -0.048 Br
HETATM   16  C   UNL     1      44.464 -20.224   4.260  1.00  0.00     0.116 A 
HETATM   17  C   UNL     1      44.304 -18.940   4.804  1.00  0.00     0.104 A 
HETATM   18  C   UNL     1      43.943 -17.883   3.962  1.00  0.00     0.052 A 
BRANCH  16  19
HETATM   19  O   UNL     1      44.812 -21.253   5.099  1.00  0.00    -0.357 OA
HETATM   20  H   UNL     1      44.121 -21.938   5.046  1.00  0.00     0.218 HD
ENDBRANCH  16  19
BRANCH  17  21
HETATM   21  O   UNL     1      44.515 -18.832   6.153  1.00  0.00    -0.349 OA
BRANCH  21  22
HETATM   22  C   UNL     1      44.709 -17.535   6.706  1.00  0.00     0.171 C 
HETATM   23  C   UNL     1      43.595 -17.284   7.707  1.00  0.00     0.034 C 
ENDBRANCH  21  22
ENDBRANCH  17  21
ENDBRANCH  11  12
ENDBRANCH   7  10
ENDBRANCH   5   6
BRANCH   1  24
HETATM   24  C   UNL     1      42.202 -12.340   0.887  1.00  0.00     0.296 C 
BRANCH  24  25
HETATM   25  N   UNL     1      41.614 -12.002   2.247  1.00  0.00    -0.066 N 
HETATM   26  H   UNL     1      42.134 -11.181   2.592  1.00  0.00     0.280 HD
BRANCH  25  27
HETATM   27  C   UNL     1      41.845 -13.136   3.238  1.00  0.00     0.231 C 
HETATM   28  C   UNL     1      43.241 -13.717   3.100  1.00  0.00     0.034 C 
ENDBRANCH  25  27
BRANCH  25  29
HETATM   29  C   UNL     1      40.138 -11.636   2.168  1.00  0.00     0.231 C 
HETATM   30  C   UNL     1      39.420 -11.986   3.461  1.00  0.00     0.034 C 
ENDBRANCH  25  29
ENDBRANCH  24  25
ENDBRANCH   1  24
BRANCH   2  31
HETATM   31  C   UNL     1      40.771 -10.642  -1.350  1.00  0.00     0.225 A 
HETATM   32  N   UNL     1      39.758  -9.877  -0.932  1.00  0.00    -0.081 NA
HETATM   33  O   UNL     1      40.157  -8.583  -1.287  1.00  0.00    -0.103 OA
HETATM   34  N   UNL     1      41.384  -8.596  -1.933  1.00  0.00    -0.083 NA
HETATM   35  C   UNL     1      41.765  -9.871  -1.975  1.00  0.00     0.201 A 
BRANCH  35  36
HETATM   36  N   UNL     1      42.910 -10.307  -2.522  1.00  0.00    -0.379 N 
HETATM   37  H   UNL     1      43.801  -9.912  -2.229  1.00  0.00     0.158 HD
HETATM   38  H   UNL     1      42.959 -10.902  -3.345  1.00  0.00     0.158 HD
ENDBRANCH  35  36
ENDBRANCH   2  31
TORSDOF 12
ENDMDL
