MODEL 1
REMARK VINA RESULT:      -8.7      0.000      0.000
REMARK  6 active torsions:
REMARK  status: ('A' for Active; 'I' for Inactive)
REMARK    1  A    between atoms: C_7  and  S_8 
REMARK    2  A    between atoms: S_8  and  C_9 
REMARK    3  A    between atoms: C_9  and  C_10 
REMARK    4  A    between atoms: C_18  and  C_19 
REMARK    5  A    between atoms: C_27  and  C_28 
REMARK    6  A    between atoms: C_28  and  O_29 
ROOT
HETATM    1  C   UNL     1      42.370 -10.302  -0.157  1.00  0.00     0.070 C 
HETATM    2  C   UNL     1      42.101 -11.785  -0.182  1.00  0.00     0.037 A 
HETATM    3  N   UNL     1      42.059 -12.409   1.061  1.00  0.00    -0.192 N 
HETATM    4  C   UNL     1      41.820 -13.723   1.225  1.00  0.00     0.726 A 
HETATM    5  N   UNL     1      41.655 -14.515   0.124  1.00  0.00    -0.082 N 
HETATM    6  N   UNL     1      41.467 -15.805   0.468  1.00  0.00    -0.128 NA
HETATM    7  C   UNL     1      41.447 -15.706   1.804  1.00  0.00     0.226 A 
HETATM    8  N   UNL     1      41.692 -14.449   2.303  1.00  0.00    -0.035 NA
HETATM    9  C   UNL     1      41.684 -14.023  -1.262  1.00  0.00     0.208 A 
HETATM   10  C   UNL     1      41.928 -12.518  -1.310  1.00  0.00     0.070 A 
HETATM   11  H   UNL     1      42.133 -11.821   1.887  1.00  0.00     0.184 HD
ENDROOT
BRANCH   7  12
HETATM   12  S   UNL     1      41.101 -17.050   2.854  1.00  0.00    -0.083 SA
BRANCH  12  13
HETATM   13  C   UNL     1      42.685 -17.251   3.715  1.00  0.00     0.123 C 
BRANCH  13  14
HETATM   14  C   UNL     1      43.317 -18.588   3.398  1.00  0.00    -0.027 A 
HETATM   15  C   UNL     1      44.276 -19.193   4.228  1.00  0.00     0.041 A 
HETATM   16 CL   UNL     1      44.805 -18.468   5.705  1.00  0.00    -0.084 Cl
HETATM   17  C   UNL     1      44.846 -20.423   3.879  1.00  0.00     0.024 A 
HETATM   18  C   UNL     1      44.475 -21.059   2.696  1.00  0.00     0.002 A 
HETATM   19  C   UNL     1      43.535 -20.469   1.857  1.00  0.00     0.001 A 
HETATM   20  C   UNL     1      42.960 -19.245   2.204  1.00  0.00     0.009 A 
ENDBRANCH  13  14
ENDBRANCH  12  13
ENDBRANCH   7  12
BRANCH   9  21
HETATM   21  C   UNL     1      40.420 -14.473  -1.981  1.00  0.00     0.032 A 
HETATM   22  C   UNL     1      39.139 -14.013  -1.636  1.00  0.00     0.045 A 
HETATM   23 CL   UNL     1      38.869 -12.920  -0.324  1.00  0.00    -0.084 Cl
HETATM   24  C   UNL     1      38.009 -14.431  -2.351  1.00  0.00     0.024 A 
HETATM   25  C   UNL     1      38.135 -15.311  -3.424  1.00  0.00     0.005 A 
HETATM   26  C   UNL     1      39.395 -15.775  -3.783  1.00  0.00     0.043 A 
HETATM   27  C   UNL     1      40.514 -15.355  -3.068  1.00  0.00     0.126 A 
HETATM   28  F   UNL     1      41.713 -15.818  -3.450  1.00  0.00    -0.205 F 
ENDBRANCH   9  21
BRANCH  10  29
HETATM   29  C   UNL     1      41.927 -11.892  -2.647  1.00  0.00     0.293 C 
HETATM   30  O   UNL     1      42.828 -11.996  -3.463  1.00  0.00    -0.259 OA
BRANCH  29  31
HETATM   31  O   UNL     1      40.783 -11.185  -2.808  1.00  0.00    -0.323 OA
HETATM   32  C   UNL     1      40.132 -11.415  -4.060  1.00  0.00     0.213 C 
ENDBRANCH  29  31
ENDBRANCH  10  29
TORSDOF 6
ENDMDL
MODEL 2
REMARK VINA RESULT:      -8.6      2.366      3.655
REMARK  6 active torsions:
REMARK  status: ('A' for Active; 'I' for Inactive)
REMARK    1  A    between atoms: C_7  and  S_8 
REMARK    2  A    between atoms: S_8  and  C_9 
REMARK    3  A    between atoms: C_9  and  C_10 
REMARK    4  A    between atoms: C_18  and  C_19 
REMARK    5  A    between atoms: C_27  and  C_28 
REMARK    6  A    between atoms: C_28  and  O_29 
ROOT
HETATM    1  C   UNL     1      41.338 -14.426  -3.413  1.00  0.00     0.070 C 
HETATM    2  C   UNL     1      40.898 -14.635  -1.986  1.00  0.00     0.037 A 
HETATM    3  N   UNL     1      41.645 -15.554  -1.256  1.00  0.00    -0.192 N 
HETATM    4  C   UNL     1      41.398 -15.855   0.033  1.00  0.00     0.726 A 
HETATM    5  N   UNL     1      40.335 -15.275   0.663  1.00  0.00    -0.082 N 
HETATM    6  N   UNL     1      40.210 -15.718   1.930  1.00  0.00    -0.128 NA
HETATM    7  C   UNL     1      41.290 -16.506   2.025  1.00  0.00     0.226 A 
HETATM    8  N   UNL     1      42.024 -16.638   0.871  1.00  0.00    -0.035 NA
HETATM    9  C   UNL     1      39.434 -14.295   0.036  1.00  0.00     0.208 A 
HETATM   10  C   UNL     1      39.839 -14.015  -1.408  1.00  0.00     0.070 A 
HETATM   11  H   UNL     1      42.466 -15.954  -1.701  1.00  0.00     0.184 HD
ENDROOT
BRANCH   7  12
HETATM   12  S   UNL     1      41.772 -17.287   3.504  1.00  0.00    -0.083 SA
BRANCH  12  13
HETATM   13  C   UNL     1      43.533 -17.591   3.192  1.00  0.00     0.123 C 
BRANCH  13  14
HETATM   14  C   UNL     1      43.831 -19.072   3.115  1.00  0.00    -0.027 A 
HETATM   15  C   UNL     1      44.497 -19.768   4.137  1.00  0.00     0.041 A 
HETATM   16 CL   UNL     1      45.020 -18.994   5.592  1.00  0.00    -0.084 Cl
HETATM   17  C   UNL     1      44.767 -21.135   4.008  1.00  0.00     0.024 A 
HETATM   18  C   UNL     1      44.385 -21.822   2.857  1.00  0.00     0.002 A 
HETATM   19  C   UNL     1      43.734 -21.145   1.831  1.00  0.00     0.001 A 
HETATM   20  C   UNL     1      43.458 -19.782   1.957  1.00  0.00     0.009 A 
ENDBRANCH  13  14
ENDBRANCH  12  13
ENDBRANCH   7  12
BRANCH   9  21
HETATM   21  C   UNL     1      39.355 -13.053   0.912  1.00  0.00     0.032 A 
HETATM   22  C   UNL     1      40.478 -12.277   1.242  1.00  0.00     0.045 A 
HETATM   23 CL   UNL     1      42.073 -12.686   0.716  1.00  0.00    -0.084 Cl
HETATM   24  C   UNL     1      40.348 -11.122   2.025  1.00  0.00     0.024 A 
HETATM   25  C   UNL     1      39.098 -10.718   2.490  1.00  0.00     0.005 A 
HETATM   26  C   UNL     1      37.975 -11.471   2.172  1.00  0.00     0.043 A 
HETATM   27  C   UNL     1      38.111 -12.618   1.393  1.00  0.00     0.126 A 
HETATM   28  F   UNL     1      37.003 -13.314   1.101  1.00  0.00    -0.205 F 
ENDBRANCH   9  21
BRANCH  10  29
HETATM   29  C   UNL     1      39.042 -13.006  -2.133  1.00  0.00     0.293 C 
HETATM   30  O   UNL     1      39.466 -11.924  -2.505  1.00  0.00    -0.259 OA
BRANCH  29  31
HETATM   31  O   UNL     1      37.781 -13.470  -2.301  1.00  0.00    -0.323 OA
HETATM   32  C   UNL     1      37.600 -14.233  -3.495  1.00  0.00     0.213 C 
ENDBRANCH  29  31
ENDBRANCH  10  29
TORSDOF 6
ENDMDL
MODEL 3
REMARK VINA RESULT:      -8.5      1.524      3.446
REMARK  6 active torsions:
REMARK  status: ('A' for Active; 'I' for Inactive)
REMARK    1  A    between atoms: C_7  and  S_8 
REMARK    2  A    between atoms: S_8  and  C_9 
REMARK    3  A    between atoms: C_9  and  C_10 
REMARK    4  A    between atoms: C_18  and  C_19 
REMARK    5  A    between atoms: C_27  and  C_28 
REMARK    6  A    between atoms: C_28  and  O_29 
ROOT
HETATM    1  C   UNL     1      39.577 -15.674  -3.784  1.00  0.00     0.070 C 
HETATM    2  C   UNL     1      40.081 -15.189  -2.448  1.00  0.00     0.037 A 
HETATM    3  N   UNL     1      40.811 -16.115  -1.709  1.00  0.00    -0.192 N 
HETATM    4  C   UNL     1      41.344 -15.848  -0.503  1.00  0.00     0.726 A 
HETATM    5  N   UNL     1      41.128 -14.626   0.068  1.00  0.00    -0.082 N 
HETATM    6  N   UNL     1      41.695 -14.544   1.288  1.00  0.00    -0.128 NA
HETATM    7  C   UNL     1      42.312 -15.732   1.356  1.00  0.00     0.226 A 
HETATM    8  N   UNL     1      42.092 -16.570   0.289  1.00  0.00    -0.035 NA
HETATM    9  C   UNL     1      40.367 -13.539  -0.566  1.00  0.00     0.208 A 
HETATM   10  C   UNL     1      39.848 -13.954  -1.939  1.00  0.00     0.070 A 
HETATM   11  H   UNL     1      41.018 -17.009  -2.146  1.00  0.00     0.184 HD
ENDROOT
BRANCH   7  12
HETATM   12  S   UNL     1      43.354 -16.191   2.673  1.00  0.00    -0.083 SA
BRANCH  12  13
HETATM   13  C   UNL     1      42.449 -17.600   3.372  1.00  0.00     0.123 C 
BRANCH  13  14
HETATM   14  C   UNL     1      43.196 -18.897   3.151  1.00  0.00    -0.027 A 
HETATM   15  C   UNL     1      44.189 -19.363   4.029  1.00  0.00     0.041 A 
HETATM   16 CL   UNL     1      44.632 -18.500   5.460  1.00  0.00    -0.084 Cl
HETATM   17  C   UNL     1      44.865 -20.560   3.768  1.00  0.00     0.024 A 
HETATM   18  C   UNL     1      44.569 -21.301   2.626  1.00  0.00     0.002 A 
HETATM   19  C   UNL     1      43.596 -20.849   1.740  1.00  0.00     0.001 A 
HETATM   20  C   UNL     1      42.915 -19.657   1.999  1.00  0.00     0.009 A 
ENDBRANCH  13  14
ENDBRANCH  12  13
ENDBRANCH   7  12
BRANCH   9  21
HETATM   21  C   UNL     1      41.214 -12.274  -0.577  1.00  0.00     0.032 A 
HETATM   22  C   UNL     1      40.897 -11.135   0.180  1.00  0.00     0.045 A 
HETATM   23 CL   UNL     1      39.483 -11.043   1.170  1.00  0.00    -0.084 Cl
HETATM   24  C   UNL     1      41.728 -10.006   0.162  1.00  0.00     0.024 A 
HETATM   25  C   UNL     1      42.890  -9.994  -0.608  1.00  0.00     0.005 A 
HETATM   26  C   UNL     1      43.222 -11.113  -1.362  1.00  0.00     0.043 A 
HETATM   27  C   UNL     1      42.392 -12.231  -1.339  1.00  0.00     0.126 A 
HETATM   28  F   UNL     1      42.750 -13.294  -2.073  1.00  0.00    -0.205 F 
ENDBRANCH   9  21
BRANCH  10  29
HETATM   29  C   UNL     1      39.110 -12.928  -2.703  1.00  0.00     0.293 C 
HETATM   30  O   UNL     1      39.606 -12.207  -3.554  1.00  0.00    -0.259 OA
BRANCH  29  31
HETATM   31  O   UNL     1      37.818 -12.914  -2.299  1.00  0.00    -0.323 OA
HETATM   32  C   UNL     1      37.334 -11.614  -1.955  1.00  0.00     0.213 C 
ENDBRANCH  29  31
ENDBRANCH  10  29
TORSDOF 6
ENDMDL
MODEL 4
REMARK VINA RESULT:      -8.4      4.376      7.906
REMARK  6 active torsions:
REMARK  status: ('A' for Active; 'I' for Inactive)
REMARK    1  A    between atoms: C_7  and  S_8 
REMARK    2  A    between atoms: S_8  and  C_9 
REMARK    3  A    between atoms: C_9  and  C_10 
REMARK    4  A    between atoms: C_18  and  C_19 
REMARK    5  A    between atoms: C_27  and  C_28 
REMARK    6  A    between atoms: C_28  and  O_29 
ROOT
HETATM    1  C   UNL     1      44.707 -13.892   7.628  1.00  0.00     0.070 C 
HETATM    2  C   UNL     1      43.638 -14.316   6.653  1.00  0.00     0.037 A 
HETATM    3  N   UNL     1      42.849 -13.289   6.142  1.00  0.00    -0.192 N 
HETATM    4  C   UNL     1      41.858 -13.486   5.253  1.00  0.00     0.726 A 
HETATM    5  N   UNL     1      41.560 -14.758   4.855  1.00  0.00    -0.082 N 
HETATM    6  N   UNL     1      40.518 -14.776   4.000  1.00  0.00    -0.128 NA
HETATM    7  C   UNL     1      40.288 -13.462   3.860  1.00  0.00     0.226 A 
HETATM    8  N   UNL     1      41.070 -12.644   4.639  1.00  0.00    -0.035 NA
HETATM    9  C   UNL     1      42.280 -15.958   5.307  1.00  0.00     0.208 A 
HETATM   10  C   UNL     1      43.398 -15.598   6.280  1.00  0.00     0.070 A 
HETATM   11  H   UNL     1      43.095 -12.336   6.395  1.00  0.00     0.184 HD
ENDROOT
BRANCH   7  12
HETATM   12  S   UNL     1      39.115 -12.813   2.751  1.00  0.00    -0.083 SA
BRANCH  12  13
HETATM   13  C   UNL     1      38.628 -14.300   1.832  1.00  0.00     0.123 C 
BRANCH  13  14
HETATM   14  C   UNL     1      39.483 -14.488   0.599  1.00  0.00    -0.027 A 
HETATM   15  C   UNL     1      39.198 -13.862  -0.627  1.00  0.00     0.041 A 
HETATM   16 CL   UNL     1      37.851 -12.798  -0.828  1.00  0.00    -0.084 Cl
HETATM   17  C   UNL     1      40.010 -14.085  -1.745  1.00  0.00     0.024 A 
HETATM   18  C   UNL     1      41.106 -14.941  -1.659  1.00  0.00     0.002 A 
HETATM   19  C   UNL     1      41.396 -15.577  -0.456  1.00  0.00     0.001 A 
HETATM   20  C   UNL     1      40.592 -15.353   0.664  1.00  0.00     0.009 A 
ENDBRANCH  13  14
ENDBRANCH  12  13
ENDBRANCH   7  12
BRANCH   9  21
HETATM   21  C   UNL     1      42.743 -16.753   4.094  1.00  0.00     0.032 A 
HETATM   22  C   UNL     1      43.471 -16.181   3.038  1.00  0.00     0.045 A 
HETATM   23 CL   UNL     1      43.876 -14.502   2.993  1.00  0.00    -0.084 Cl
HETATM   24  C   UNL     1      43.903 -16.964   1.958  1.00  0.00     0.024 A 
HETATM   25  C   UNL     1      43.621 -18.328   1.913  1.00  0.00     0.005 A 
HETATM   26  C   UNL     1      42.905 -18.912   2.951  1.00  0.00     0.043 A 
HETATM   27  C   UNL     1      42.479 -18.129   4.021  1.00  0.00     0.126 A 
HETATM   28  F   UNL     1      41.797 -18.730   5.007  1.00  0.00    -0.205 F 
ENDBRANCH   9  21
BRANCH  10  29
HETATM   29  C   UNL     1      44.233 -16.714   6.768  1.00  0.00     0.293 C 
HETATM   30  O   UNL     1      45.313 -17.031   6.297  1.00  0.00    -0.259 OA
BRANCH  29  31
HETATM   31  O   UNL     1      43.603 -17.325   7.799  1.00  0.00    -0.323 OA
HETATM   32  C   UNL     1      43.662 -18.752   7.749  1.00  0.00     0.213 C 
ENDBRANCH  29  31
ENDBRANCH  10  29
TORSDOF 6
ENDMDL
MODEL 5
REMARK VINA RESULT:      -8.1      3.834      4.926
REMARK  6 active torsions:
REMARK  status: ('A' for Active; 'I' for Inactive)
REMARK    1  A    between atoms: C_7  and  S_8 
REMARK    2  A    between atoms: S_8  and  C_9 
REMARK    3  A    between atoms: C_9  and  C_10 
REMARK    4  A    between atoms: C_18  and  C_19 
REMARK    5  A    between atoms: C_27  and  C_28 
REMARK    6  A    between atoms: C_28  and  O_29 
ROOT
HETATM    1  C   UNL     1      39.055 -12.925   6.163  1.00  0.00     0.070 C 
HETATM    2  C   UNL     1      40.220 -13.648   5.537  1.00  0.00     0.037 A 
HETATM    3  N   UNL     1      40.928 -14.495   6.384  1.00  0.00    -0.192 N 
HETATM    4  C   UNL     1      41.987 -15.225   5.990  1.00  0.00     0.726 A 
HETATM    5  N   UNL     1      42.439 -15.108   4.706  1.00  0.00    -0.082 N 
HETATM    6  N   UNL     1      43.527 -15.875   4.494  1.00  0.00    -0.128 NA
HETATM    7  C   UNL     1      43.629 -16.495   5.678  1.00  0.00     0.226 A 
HETATM    8  N   UNL     1      42.720 -16.097   6.629  1.00  0.00    -0.035 NA
HETATM    9  C   UNL     1      41.819 -14.250   3.685  1.00  0.00     0.208 A 
HETATM   10  C   UNL     1      40.612 -13.505   4.246  1.00  0.00     0.070 A 
HETATM   11  H   UNL     1      40.571 -14.624   7.327  1.00  0.00     0.184 HD
ENDROOT
BRANCH   7  12
HETATM   12  S   UNL     1      44.795 -17.746   6.002  1.00  0.00    -0.083 SA
BRANCH  12  13
HETATM   13  C   UNL     1      43.778 -19.238   5.828  1.00  0.00     0.123 C 
BRANCH  13  14
HETATM   14  C   UNL     1      43.886 -19.818   4.435  1.00  0.00    -0.027 A 
HETATM   15  C   UNL     1      44.436 -21.086   4.179  1.00  0.00     0.041 A 
HETATM   16 CL   UNL     1      45.019 -22.110   5.444  1.00  0.00    -0.084 Cl
HETATM   17  C   UNL     1      44.531 -21.569   2.870  1.00  0.00     0.024 A 
HETATM   18  C   UNL     1      44.092 -20.792   1.799  1.00  0.00     0.002 A 
HETATM   19  C   UNL     1      43.556 -19.530   2.034  1.00  0.00     0.001 A 
HETATM   20  C   UNL     1      43.453 -19.046   3.340  1.00  0.00     0.009 A 
ENDBRANCH  13  14
ENDBRANCH  12  13
ENDBRANCH   7  12
BRANCH   9  21
HETATM   21  C   UNL     1      41.516 -15.082   2.446  1.00  0.00     0.032 A 
HETATM   22  C   UNL     1      41.769 -14.630   1.141  1.00  0.00     0.045 A 
HETATM   23 CL   UNL     1      42.411 -13.059   0.812  1.00  0.00    -0.084 Cl
HETATM   24  C   UNL     1      41.504 -15.448   0.034  1.00  0.00     0.024 A 
HETATM   25  C   UNL     1      40.986 -16.730   0.208  1.00  0.00     0.005 A 
HETATM   26  C   UNL     1      40.732 -17.196   1.493  1.00  0.00     0.043 A 
HETATM   27  C   UNL     1      40.999 -16.378   2.588  1.00  0.00     0.126 A 
HETATM   28  F   UNL     1      40.748 -16.866   3.811  1.00  0.00    -0.205 F 
ENDBRANCH   9  21
BRANCH  10  29
HETATM   29  C   UNL     1      39.869 -12.647   3.302  1.00  0.00     0.293 C 
HETATM   30  O   UNL     1      38.883 -12.998   2.674  1.00  0.00    -0.259 OA
BRANCH  29  31
HETATM   31  O   UNL     1      40.463 -11.432   3.240  1.00  0.00    -0.323 OA
HETATM   32  C   UNL     1      39.571 -10.369   2.896  1.00  0.00     0.213 C 
ENDBRANCH  29  31
ENDBRANCH  10  29
TORSDOF 6
ENDMDL
MODEL 6
REMARK VINA RESULT:      -8.0      3.148      4.324
REMARK  6 active torsions:
REMARK  status: ('A' for Active; 'I' for Inactive)
REMARK    1  A    between atoms: C_7  and  S_8 
REMARK    2  A    between atoms: S_8  and  C_9 
REMARK    3  A    between atoms: C_9  and  C_10 
REMARK    4  A    between atoms: C_18  and  C_19 
REMARK    5  A    between atoms: C_27  and  C_28 
REMARK    6  A    between atoms: C_28  and  O_29 
ROOT
HETATM    1  C   UNL     1      39.218 -13.079   6.232  1.00  0.00     0.070 C 
HETATM    2  C   UNL     1      39.868 -13.576   4.966  1.00  0.00     0.037 A 
HETATM    3  N   UNL     1      40.282 -14.904   4.983  1.00  0.00    -0.192 N 
HETATM    4  C   UNL     1      40.868 -15.513   3.937  1.00  0.00     0.726 A 
HETATM    5  N   UNL     1      41.125 -14.796   2.804  1.00  0.00    -0.082 N 
HETATM    6  N   UNL     1      41.752 -15.547   1.876  1.00  0.00    -0.128 NA
HETATM    7  C   UNL     1      41.767 -16.739   2.489  1.00  0.00     0.226 A 
HETATM    8  N   UNL     1      41.262 -16.747   3.767  1.00  0.00    -0.035 NA
HETATM    9  C   UNL     1      40.769 -13.380   2.621  1.00  0.00     0.208 A 
HETATM   10  C   UNL     1      40.082 -12.818   3.861  1.00  0.00     0.070 A 
HETATM   11  H   UNL     1      40.052 -15.459   5.804  1.00  0.00     0.184 HD
ENDROOT
BRANCH   7  12
HETATM   12  S   UNL     1      42.343 -18.194   1.728  1.00  0.00    -0.083 SA
BRANCH  12  13
HETATM   13  C   UNL     1      43.984 -18.368   2.483  1.00  0.00     0.123 C 
BRANCH  13  14
HETATM   14  C   UNL     1      44.222 -19.783   2.959  1.00  0.00    -0.027 A 
HETATM   15  C   UNL     1      44.660 -20.085   4.260  1.00  0.00     0.041 A 
HETATM   16 CL   UNL     1      44.945 -18.859   5.444  1.00  0.00    -0.084 Cl
HETATM   17  C   UNL     1      44.886 -21.411   4.645  1.00  0.00     0.024 A 
HETATM   18  C   UNL     1      44.688 -22.451   3.738  1.00  0.00     0.002 A 
HETATM   19  C   UNL     1      44.265 -22.169   2.443  1.00  0.00     0.001 A 
HETATM   20  C   UNL     1      44.034 -20.847   2.056  1.00  0.00     0.009 A 
ENDBRANCH  13  14
ENDBRANCH  12  13
ENDBRANCH   7  12
BRANCH   9  21
HETATM   21  C   UNL     1      39.963 -13.227   1.339  1.00  0.00     0.032 A 
HETATM   22  C   UNL     1      40.338 -12.361   0.299  1.00  0.00     0.045 A 
HETATM   23 CL   UNL     1      41.735 -11.348   0.395  1.00  0.00    -0.084 Cl
HETATM   24  C   UNL     1      39.580 -12.280  -0.877  1.00  0.00     0.024 A 
HETATM   25  C   UNL     1      38.438 -13.063  -1.039  1.00  0.00     0.005 A 
HETATM   26  C   UNL     1      38.053 -13.929  -0.022  1.00  0.00     0.043 A 
HETATM   27  C   UNL     1      38.811 -14.004   1.143  1.00  0.00     0.126 A 
HETATM   28  F   UNL     1      38.412 -14.856   2.098  1.00  0.00    -0.205 F 
ENDBRANCH   9  21
BRANCH  10  29
HETATM   29  C   UNL     1      39.626 -11.416   3.784  1.00  0.00     0.293 C 
HETATM   30  O   UNL     1      38.469 -11.071   3.609  1.00  0.00    -0.259 OA
BRANCH  29  31
HETATM   31  O   UNL     1      40.692 -10.592   3.925  1.00  0.00    -0.323 OA
HETATM   32  C   UNL     1      40.456  -9.259   3.467  1.00  0.00     0.213 C 
ENDBRANCH  29  31
ENDBRANCH  10  29
TORSDOF 6
ENDMDL
MODEL 7
REMARK VINA RESULT:      -7.9      2.062      2.658
REMARK  6 active torsions:
REMARK  status: ('A' for Active; 'I' for Inactive)
REMARK    1  A    between atoms: C_7  and  S_8 
REMARK    2  A    between atoms: S_8  and  C_9 
REMARK    3  A    between atoms: C_9  and  C_10 
REMARK    4  A    between atoms: C_18  and  C_19 
REMARK    5  A    between atoms: C_27  and  C_28 
REMARK    6  A    between atoms: C_28  and  O_29 
ROOT
HETATM    1  C   UNL     1      39.218 -11.228   3.100  1.00  0.00     0.070 C 
HETATM    2  C   UNL     1      39.914 -12.283   2.278  1.00  0.00     0.037 A 
HETATM    3  N   UNL     1      40.061 -13.523   2.891  1.00  0.00    -0.192 N 
HETATM    4  C   UNL     1      40.646 -14.580   2.299  1.00  0.00     0.726 A 
HETATM    5  N   UNL     1      41.175 -14.437   1.048  1.00  0.00    -0.082 N 
HETATM    6  N   UNL     1      41.758 -15.577   0.625  1.00  0.00    -0.128 NA
HETATM    7  C   UNL     1      41.468 -16.397   1.645  1.00  0.00     0.226 A 
HETATM    8  N   UNL     1      40.815 -15.811   2.703  1.00  0.00    -0.035 NA
HETATM    9  C   UNL     1      41.122 -13.194   0.263  1.00  0.00     0.208 A 
HETATM   10  C   UNL     1      40.405 -12.086   1.029  1.00  0.00     0.070 A 
HETATM   11  H   UNL     1      39.628 -13.652   3.802  1.00  0.00     0.184 HD
ENDROOT
BRANCH   7  12
HETATM   12  S   UNL     1      41.846 -18.096   1.638  1.00  0.00    -0.083 SA
BRANCH  12  13
HETATM   13  C   UNL     1      43.434 -18.114   2.515  1.00  0.00     0.123 C 
BRANCH  13  14
HETATM   14  C   UNL     1      43.857 -19.525   2.858  1.00  0.00    -0.027 A 
HETATM   15  C   UNL     1      44.459 -19.863   4.082  1.00  0.00     0.041 A 
HETATM   16 CL   UNL     1      44.749 -18.693   5.321  1.00  0.00    -0.084 Cl
HETATM   17  C   UNL     1      44.850 -21.181   4.342  1.00  0.00     0.024 A 
HETATM   18  C   UNL     1      44.658 -22.175   3.384  1.00  0.00     0.002 A 
HETATM   19  C   UNL     1      44.074 -21.854   2.162  1.00  0.00     0.001 A 
HETATM   20  C   UNL     1      43.676 -20.542   1.900  1.00  0.00     0.009 A 
ENDBRANCH  13  14
ENDBRANCH  12  13
ENDBRANCH   7  12
BRANCH   9  21
HETATM   21  C   UNL     1      40.527 -13.490  -1.106  1.00  0.00     0.032 A 
HETATM   22  C   UNL     1      41.257 -13.370  -2.299  1.00  0.00     0.045 A 
HETATM   23 CL   UNL     1      42.898 -12.828  -2.331  1.00  0.00    -0.084 Cl
HETATM   24  C   UNL     1      40.673 -13.687  -3.534  1.00  0.00     0.024 A 
HETATM   25  C   UNL     1      39.354 -14.132  -3.600  1.00  0.00     0.005 A 
HETATM   26  C   UNL     1      38.616 -14.261  -2.429  1.00  0.00     0.043 A 
HETATM   27  C   UNL     1      39.203 -13.944  -1.206  1.00  0.00     0.126 A 
HETATM   28  F   UNL     1      38.462 -14.089  -0.098  1.00  0.00    -0.205 F 
ENDBRANCH   9  21
BRANCH  10  29
HETATM   29  C   UNL     1      40.239 -10.799   0.325  1.00  0.00     0.293 C 
HETATM   30  O   UNL     1      39.238 -10.468  -0.289  1.00  0.00    -0.259 OA
BRANCH  29  31
HETATM   31  O   UNL     1      41.370 -10.066   0.463  1.00  0.00    -0.323 OA
HETATM   32  C   UNL     1      41.926  -9.624  -0.777  1.00  0.00     0.213 C 
ENDBRANCH  29  31
ENDBRANCH  10  29
TORSDOF 6
ENDMDL
MODEL 8
REMARK VINA RESULT:      -7.8      4.351      8.505
REMARK  6 active torsions:
REMARK  status: ('A' for Active; 'I' for Inactive)
REMARK    1  A    between atoms: C_7  and  S_8 
REMARK    2  A    between atoms: S_8  and  C_9 
REMARK    3  A    between atoms: C_9  and  C_10 
REMARK    4  A    between atoms: C_18  and  C_19 
REMARK    5  A    between atoms: C_27  and  C_28 
REMARK    6  A    between atoms: C_28  and  O_29 
ROOT
HETATM    1  C   UNL     1      44.485 -20.698   4.849  1.00  0.00     0.070 C 
HETATM    2  C   UNL     1      44.045 -19.389   4.243  1.00  0.00     0.037 A 
HETATM    3  N   UNL     1      43.588 -19.458   2.930  1.00  0.00    -0.192 N 
HETATM    4  C   UNL     1      43.148 -18.391   2.240  1.00  0.00     0.726 A 
HETATM    5  N   UNL     1      43.187 -17.156   2.821  1.00  0.00    -0.082 N 
HETATM    6  N   UNL     1      42.750 -16.199   1.978  1.00  0.00    -0.128 NA
HETATM    7  C   UNL     1      42.382 -16.944   0.926  1.00  0.00     0.226 A 
HETATM    8  N   UNL     1      42.641 -18.288   1.040  1.00  0.00    -0.035 NA
HETATM    9  C   UNL     1      43.654 -16.901   4.193  1.00  0.00     0.208 A 
HETATM   10  C   UNL     1      44.091 -18.191   4.878  1.00  0.00     0.070 A 
HETATM   11  H   UNL     1      43.511 -20.379   2.506  1.00  0.00     0.184 HD
ENDROOT
BRANCH   7  12
HETATM   12  S   UNL     1      41.595 -16.284  -0.479  1.00  0.00    -0.083 SA
BRANCH  12  13
HETATM   13  C   UNL     1      41.440 -14.537  -0.017  1.00  0.00     0.123 C 
BRANCH  13  14
HETATM   14  C   UNL     1      39.996 -14.087  -0.046  1.00  0.00    -0.027 A 
HETATM   15  C   UNL     1      39.106 -14.314   1.017  1.00  0.00     0.041 A 
HETATM   16 CL   UNL     1      39.592 -15.114   2.471  1.00  0.00    -0.084 Cl
HETATM   17  C   UNL     1      37.774 -13.895   0.932  1.00  0.00     0.024 A 
HETATM   18  C   UNL     1      37.309 -13.254  -0.215  1.00  0.00     0.002 A 
HETATM   19  C   UNL     1      38.175 -13.031  -1.282  1.00  0.00     0.001 A 
HETATM   20  C   UNL     1      39.506 -13.443  -1.199  1.00  0.00     0.009 A 
ENDBRANCH  13  14
ENDBRANCH  12  13
ENDBRANCH   7  12
BRANCH   9  21
HETATM   21  C   UNL     1      42.585 -16.125   4.951  1.00  0.00     0.032 A 
HETATM   22  C   UNL     1      42.745 -14.787   5.343  1.00  0.00     0.045 A 
HETATM   23 CL   UNL     1      44.197 -13.899   5.040  1.00  0.00    -0.084 Cl
HETATM   24  C   UNL     1      41.717 -14.106   6.010  1.00  0.00     0.024 A 
HETATM   25  C   UNL     1      40.511 -14.746   6.294  1.00  0.00     0.005 A 
HETATM   26  C   UNL     1      40.333 -16.070   5.911  1.00  0.00     0.043 A 
HETATM   27  C   UNL     1      41.358 -16.740   5.248  1.00  0.00     0.126 A 
HETATM   28  F   UNL     1      41.146 -18.014   4.888  1.00  0.00    -0.205 F 
ENDBRANCH   9  21
BRANCH  10  29
HETATM   29  C   UNL     1      44.533 -18.076   6.282  1.00  0.00     0.293 C 
HETATM   30  O   UNL     1      45.671 -17.811   6.632  1.00  0.00    -0.259 OA
BRANCH  29  31
HETATM   31  O   UNL     1      43.483 -18.325   7.101  1.00  0.00    -0.323 OA
HETATM   32  C   UNL     1      43.410 -17.449   8.228  1.00  0.00     0.213 C 
ENDBRANCH  29  31
ENDBRANCH  10  29
TORSDOF 6
ENDMDL
MODEL 9
REMARK VINA RESULT:      -7.7      2.215      4.035
REMARK  6 active torsions:
REMARK  status: ('A' for Active; 'I' for Inactive)
REMARK    1  A    between atoms: C_7  and  S_8 
REMARK    2  A    between atoms: S_8  and  C_9 
REMARK    3  A    between atoms: C_9  and  C_10 
REMARK    4  A    between atoms: C_18  and  C_19 
REMARK    5  A    between atoms: C_27  and  C_28 
REMARK    6  A    between atoms: C_28  and  O_29 
ROOT
HETATM    1  C   UNL     1      39.388 -15.395  -3.732  1.00  0.00     0.070 C 
HETATM    2  C   UNL     1      39.943 -14.951  -2.402  1.00  0.00     0.037 A 
HETATM    3  N   UNL     1      40.660 -15.914  -1.698  1.00  0.00    -0.192 N 
HETATM    4  C   UNL     1      41.233 -15.686  -0.502  1.00  0.00     0.726 A 
HETATM    5  N   UNL     1      41.076 -14.468   0.094  1.00  0.00    -0.082 N 
HETATM    6  N   UNL     1      41.677 -14.427   1.300  1.00  0.00    -0.128 NA
HETATM    7  C   UNL     1      42.253 -15.636   1.332  1.00  0.00     0.226 A 
HETATM    8  N   UNL     1      41.975 -16.447   0.257  1.00  0.00    -0.035 NA
HETATM    9  C   UNL     1      40.338 -13.343  -0.502  1.00  0.00     0.208 A 
HETATM   10  C   UNL     1      39.768 -13.717  -1.867  1.00  0.00     0.070 A 
HETATM   11  H   UNL     1      40.823 -16.807  -2.154  1.00  0.00     0.184 HD
ENDROOT
BRANCH   7  12
HETATM   12  S   UNL     1      43.312 -16.154   2.613  1.00  0.00    -0.083 SA
BRANCH  12  13
HETATM   13  C   UNL     1      42.310 -17.439   3.410  1.00  0.00     0.123 C 
BRANCH  13  14
HETATM   14  C   UNL     1      43.175 -18.557   3.947  1.00  0.00    -0.027 A 
HETATM   15  C   UNL     1      43.774 -19.521   3.119  1.00  0.00     0.041 A 
HETATM   16 CL   UNL     1      43.591 -19.502   1.400  1.00  0.00    -0.084 Cl
HETATM   17  C   UNL     1      44.550 -20.548   3.668  1.00  0.00     0.024 A 
HETATM   18  C   UNL     1      44.731 -20.633   5.047  1.00  0.00     0.002 A 
HETATM   19  C   UNL     1      44.136 -19.692   5.883  1.00  0.00     0.001 A 
HETATM   20  C   UNL     1      43.365 -18.663   5.339  1.00  0.00     0.009 A 
ENDBRANCH  13  14
ENDBRANCH  12  13
ENDBRANCH   7  12
BRANCH   9  21
HETATM   21  C   UNL     1      41.228 -12.109  -0.515  1.00  0.00     0.032 A 
HETATM   22  C   UNL     1      42.346 -11.981  -1.356  1.00  0.00     0.045 A 
HETATM   23 CL   UNL     1      42.845 -13.239  -2.431  1.00  0.00    -0.084 Cl
HETATM   24  C   UNL     1      43.115 -10.809  -1.355  1.00  0.00     0.024 A 
HETATM   25  C   UNL     1      42.782  -9.744  -0.520  1.00  0.00     0.005 A 
HETATM   26  C   UNL     1      41.678  -9.851   0.317  1.00  0.00     0.043 A 
HETATM   27  C   UNL     1      40.918 -11.018   0.310  1.00  0.00     0.126 A 
HETATM   28  F   UNL     1      39.856 -11.080   1.126  1.00  0.00    -0.205 F 
ENDBRANCH   9  21
BRANCH  10  29
HETATM   29  C   UNL     1      39.048 -12.653  -2.595  1.00  0.00     0.293 C 
HETATM   30  O   UNL     1      39.556 -11.907  -3.415  1.00  0.00    -0.259 OA
BRANCH  29  31
HETATM   31  O   UNL     1      37.754 -12.637  -2.195  1.00  0.00    -0.323 OA
HETATM   32  C   UNL     1      37.427 -11.541  -1.337  1.00  0.00     0.213 C 
ENDBRANCH  29  31
ENDBRANCH  10  29
TORSDOF 6
ENDMDL
MODEL 10
REMARK VINA RESULT:      -7.7      6.416      9.059
REMARK  6 active torsions:
REMARK  status: ('A' for Active; 'I' for Inactive)
REMARK    1  A    between atoms: C_7  and  S_8 
REMARK    2  A    between atoms: S_8  and  C_9 
REMARK    3  A    between atoms: C_9  and  C_10 
REMARK    4  A    between atoms: C_18  and  C_19 
REMARK    5  A    between atoms: C_27  and  C_28 
REMARK    6  A    between atoms: C_28  and  O_29 
ROOT
HETATM    1  C   UNL     1      39.495 -15.039   1.791  1.00  0.00     0.070 C 
HETATM    2  C   UNL     1      40.118 -14.476   3.044  1.00  0.00     0.037 A 
HETATM    3  N   UNL     1      39.336 -13.564   3.746  1.00  0.00    -0.192 N 
HETATM    4  C   UNL     1      39.730 -12.973   4.889  1.00  0.00     0.726 A 
HETATM    5  N   UNL     1      40.979 -13.229   5.378  1.00  0.00    -0.082 N 
HETATM    6  N   UNL     1      41.223 -12.525   6.502  1.00  0.00    -0.128 NA
HETATM    7  C   UNL     1      40.038 -11.924   6.681  1.00  0.00     0.226 A 
HETATM    8  N   UNL     1      39.110 -12.151   5.693  1.00  0.00    -0.035 NA
HETATM    9  C   UNL     1      41.939 -14.153   4.755  1.00  0.00     0.208 A 
HETATM   10  C   UNL     1      41.362 -14.782   3.491  1.00  0.00     0.070 A 
HETATM   11  H   UNL     1      38.388 -13.404   3.416  1.00  0.00     0.184 HD
ENDROOT
BRANCH   7  12
HETATM   12  S   UNL     1      39.665 -10.950   8.074  1.00  0.00    -0.083 SA
BRANCH  12  13
HETATM   13  C   UNL     1      41.324 -10.563   8.696  1.00  0.00     0.123 C 
BRANCH  13  14
HETATM   14  C   UNL     1      41.425 -10.811  10.185  1.00  0.00    -0.027 A 
HETATM   15  C   UNL     1      42.649 -10.819  10.875  1.00  0.00     0.041 A 
HETATM   16 CL   UNL     1      44.156 -10.522  10.081  1.00  0.00    -0.084 Cl
HETATM   17  C   UNL     1      42.690 -11.074  12.250  1.00  0.00     0.024 A 
HETATM   18  C   UNL     1      41.515 -11.333  12.953  1.00  0.00     0.002 A 
HETATM   19  C   UNL     1      40.295 -11.340  12.283  1.00  0.00     0.001 A 
HETATM   20  C   UNL     1      40.249 -11.081  10.912  1.00  0.00     0.009 A 
ENDBRANCH  13  14
ENDBRANCH  12  13
ENDBRANCH   7  12
BRANCH   9  21
HETATM   21  C   UNL     1      42.411 -15.162   5.792  1.00  0.00     0.032 A 
HETATM   22  C   UNL     1      43.689 -15.121   6.372  1.00  0.00     0.045 A 
HETATM   23 CL   UNL     1      44.871 -13.940   5.929  1.00  0.00    -0.084 Cl
HETATM   24  C   UNL     1      44.065 -16.053   7.349  1.00  0.00     0.024 A 
HETATM   25  C   UNL     1      43.173 -17.040   7.767  1.00  0.00     0.005 A 
HETATM   26  C   UNL     1      41.903 -17.095   7.206  1.00  0.00     0.043 A 
HETATM   27  C   UNL     1      41.536 -16.165   6.237  1.00  0.00     0.126 A 
HETATM   28  F   UNL     1      40.299 -16.245   5.725  1.00  0.00    -0.205 F 
ENDBRANCH   9  21
BRANCH  10  29
HETATM   29  C   UNL     1      42.211 -15.771   2.798  1.00  0.00     0.293 C 
HETATM   30  O   UNL     1      43.266 -15.512   2.243  1.00  0.00    -0.259 OA
BRANCH  29  31
HETATM   31  O   UNL     1      41.626 -16.990   2.872  1.00  0.00    -0.323 OA
HETATM   32  C   UNL     1      42.504 -18.026   3.317  1.00  0.00     0.213 C 
ENDBRANCH  29  31
ENDBRANCH  10  29
TORSDOF 6
ENDMDL
