MODEL 1
REMARK VINA RESULT:      -9.8      0.000      0.000
REMARK  4 active torsions:
REMARK  status: ('A' for Active; 'I' for Inactive)
REMARK    1  A    between atoms: C_2  and  C_3 
REMARK    2  A    between atoms: C_2  and  C_19 
REMARK       I    between atoms: C_3  and  N_4 
REMARK    3  A    between atoms: N_4  and  C_5 
REMARK    4  A    between atoms: C_12  and  C_13 
REMARK       I    between atoms: C_13  and  N_14 
ROOT
HETATM    1  C   UNL     1      42.060 -15.968   3.275  1.00  0.00     0.230 C 
HETATM    2  N   UNL     1      42.278 -15.125   2.198  1.00  0.00    -0.327 N 
HETATM    3  O   UNL     1      40.999 -16.532   3.536  1.00  0.00    -0.272 OA
HETATM    4  H   UNL     1      43.233 -14.865   2.000  1.00  0.00     0.169 HD
ENDROOT
BRANCH   2   5
HETATM    5  C   UNL     1      41.302 -14.616   1.315  1.00  0.00     0.035 A 
HETATM    6  C   UNL     1      41.223 -14.985  -0.035  1.00  0.00     0.046 A 
HETATM    7  C   UNL     1      40.177 -14.476  -0.835  1.00  0.00     0.030 A 
HETATM    8  C   UNL     1      39.269 -13.591  -0.268  1.00  0.00     0.063 A 
HETATM    9  C   UNL     1      39.731 -14.652  -2.179  1.00  0.00     0.156 A 
HETATM   10  N   UNL     1      38.406 -13.263  -1.275  1.00  0.00    -0.277 N 
HETATM   11  C   UNL     1      39.324 -13.195   1.070  1.00  0.00     0.034 A 
HETATM   12  H   UNL     1      37.618 -12.627  -1.226  1.00  0.00     0.189 HD
HETATM   13  N   UNL     1      38.643 -13.890  -2.438  1.00  0.00    -0.168 NA
HETATM   14  C   UNL     1      40.348 -13.743   1.854  1.00  0.00     0.032 A 
BRANCH   9  15
HETATM   15  C   UNL     1      40.301 -15.539  -3.204  1.00  0.00     0.270 C 
HETATM   16  N   UNL     1      39.485 -16.580  -3.556  1.00  0.00    -0.365 N 
HETATM   17  H   UNL     1      38.595 -16.679  -3.083  1.00  0.00     0.159 HD
HETATM   18  H   UNL     1      39.812 -17.266  -4.218  1.00  0.00     0.159 HD
HETATM   19  O   UNL     1      41.410 -15.405  -3.708  1.00  0.00    -0.266 OA
ENDBRANCH   9  15
ENDBRANCH   2   5
BRANCH   1  20
HETATM   20  C   UNL     1      43.280 -16.163   4.191  1.00  0.00     0.107 C 
HETATM   21  C   UNL     1      43.076 -15.477   5.546  1.00  0.00     0.025 C 
BRANCH  20  22
HETATM   22  C   UNL     1      43.706 -17.626   4.228  1.00  0.00    -0.044 A 
HETATM   23  C   UNL     1      43.521 -18.403   3.066  1.00  0.00     0.020 A 
HETATM   24  C   UNL     1      43.886 -19.758   3.013  1.00  0.00    -0.025 A 
HETATM   25  C   UNL     1      44.464 -20.360   4.149  1.00  0.00    -0.026 A 
HETATM   26  C   UNL     1      43.687 -20.523   1.852  1.00  0.00     0.012 A 
HETATM   27  C   UNL     1      44.658 -19.588   5.305  1.00  0.00     0.013 A 
HETATM   28  C   UNL     1      44.834 -21.715   4.093  1.00  0.00     0.012 A 
HETATM   29  C   UNL     1      44.285 -18.240   5.345  1.00  0.00     0.009 A 
HETATM   30  C   UNL     1      44.632 -22.463   2.932  1.00  0.00     0.001 A 
HETATM   31  C   UNL     1      44.058 -21.867   1.812  1.00  0.00     0.001 A 
ENDBRANCH  20  22
ENDBRANCH   1  20
TORSDOF 4
ENDMDL
MODEL 2
REMARK VINA RESULT:      -9.8      1.286      1.863
REMARK  4 active torsions:
REMARK  status: ('A' for Active; 'I' for Inactive)
REMARK    1  A    between atoms: C_2  and  C_3 
REMARK    2  A    between atoms: C_2  and  C_19 
REMARK       I    between atoms: C_3  and  N_4 
REMARK    3  A    between atoms: N_4  and  C_5 
REMARK    4  A    between atoms: C_12  and  C_13 
REMARK       I    between atoms: C_13  and  N_14 
ROOT
HETATM    1  C   UNL     1      42.819 -15.285   3.305  1.00  0.00     0.230 C 
HETATM    2  N   UNL     1      41.540 -15.713   2.990  1.00  0.00    -0.327 N 
HETATM    3  O   UNL     1      43.370 -14.286   2.848  1.00  0.00    -0.272 OA
HETATM    4  H   UNL     1      41.144 -16.446   3.560  1.00  0.00     0.169 HD
ENDROOT
BRANCH   2   5
HETATM    5  C   UNL     1      40.708 -15.202   1.971  1.00  0.00     0.035 A 
HETATM    6  C   UNL     1      41.122 -15.067   0.639  1.00  0.00     0.046 A 
HETATM    7  C   UNL     1      40.205 -14.605  -0.331  1.00  0.00     0.030 A 
HETATM    8  C   UNL     1      38.921 -14.262   0.071  1.00  0.00     0.063 A 
HETATM    9  C   UNL     1      40.220 -14.397  -1.743  1.00  0.00     0.156 A 
HETATM   10  N   UNL     1      38.288 -13.839  -1.064  1.00  0.00    -0.277 N 
HETATM   11  C   UNL     1      38.478 -14.376   1.390  1.00  0.00     0.034 A 
HETATM   12  H   UNL     1      37.336 -13.500  -1.146  1.00  0.00     0.189 HD
HETATM   13  N   UNL     1      39.033 -13.915  -2.179  1.00  0.00    -0.168 NA
HETATM   14  C   UNL     1      39.394 -14.873   2.327  1.00  0.00     0.032 A 
BRANCH   9  15
HETATM   15  C   UNL     1      41.321 -14.667  -2.678  1.00  0.00     0.270 C 
HETATM   16  N   UNL     1      42.368 -13.793  -2.574  1.00  0.00    -0.365 N 
HETATM   17  H   UNL     1      42.301 -13.033  -1.908  1.00  0.00     0.159 HD
HETATM   18  H   UNL     1      43.148 -13.873  -3.207  1.00  0.00     0.159 HD
HETATM   19  O   UNL     1      41.331 -15.572  -3.505  1.00  0.00    -0.266 OA
ENDBRANCH   9  15
ENDBRANCH   2   5
BRANCH   1  20
HETATM   20  C   UNL     1      43.566 -16.184   4.305  1.00  0.00     0.107 C 
HETATM   21  C   UNL     1      42.962 -16.079   5.709  1.00  0.00     0.025 C 
BRANCH  20  22
HETATM   22  C   UNL     1      43.745 -17.591   3.746  1.00  0.00    -0.044 A 
HETATM   23  C   UNL     1      44.114 -18.619   4.637  1.00  0.00     0.020 A 
HETATM   24  C   UNL     1      44.298 -19.943   4.207  1.00  0.00    -0.025 A 
HETATM   25  C   UNL     1      44.100 -20.259   2.847  1.00  0.00    -0.026 A 
HETATM   26  C   UNL     1      44.676 -20.956   5.102  1.00  0.00     0.012 A 
HETATM   27  C   UNL     1      43.724 -19.240   1.959  1.00  0.00     0.013 A 
HETATM   28  C   UNL     1      44.280 -21.585   2.418  1.00  0.00     0.012 A 
HETATM   29  C   UNL     1      43.548 -17.923   2.401  1.00  0.00     0.009 A 
HETATM   30  C   UNL     1      44.654 -22.583   3.321  1.00  0.00     0.001 A 
HETATM   31  C   UNL     1      44.853 -22.268   4.662  1.00  0.00     0.001 A 
ENDBRANCH  20  22
ENDBRANCH   1  20
TORSDOF 4
ENDMDL
MODEL 3
REMARK VINA RESULT:      -9.3      2.442      2.948
REMARK  4 active torsions:
REMARK  status: ('A' for Active; 'I' for Inactive)
REMARK    1  A    between atoms: C_2  and  C_3 
REMARK    2  A    between atoms: C_2  and  C_19 
REMARK       I    between atoms: C_3  and  N_4 
REMARK    3  A    between atoms: N_4  and  C_5 
REMARK    4  A    between atoms: C_12  and  C_13 
REMARK       I    between atoms: C_13  and  N_14 
ROOT
HETATM    1  C   UNL     1      42.813 -15.537   2.530  1.00  0.00     0.230 C 
HETATM    2  N   UNL     1      41.675 -15.239   1.800  1.00  0.00    -0.327 N 
HETATM    3  O   UNL     1      43.969 -15.347   2.157  1.00  0.00    -0.272 OA
HETATM    4  H   UNL     1      40.790 -15.283   2.285  1.00  0.00     0.169 HD
ENDROOT
BRANCH   2   5
HETATM    5  C   UNL     1      41.621 -14.838   0.449  1.00  0.00     0.035 A 
HETATM    6  C   UNL     1      42.042 -13.577   0.005  1.00  0.00     0.046 A 
HETATM    7  C   UNL     1      42.012 -13.279  -1.374  1.00  0.00     0.030 A 
HETATM    8  C   UNL     1      41.529 -14.237  -2.257  1.00  0.00     0.063 A 
HETATM    9  C   UNL     1      42.399 -12.179  -2.198  1.00  0.00     0.156 A 
HETATM   10  N   UNL     1      41.603 -13.659  -3.493  1.00  0.00    -0.277 N 
HETATM   11  C   UNL     1      41.093 -15.498  -1.849  1.00  0.00     0.034 A 
HETATM   12  H   UNL     1      41.322 -14.066  -4.378  1.00  0.00     0.189 HD
HETATM   13  N   UNL     1      42.132 -12.425  -3.501  1.00  0.00    -0.168 NA
HETATM   14  C   UNL     1      41.168 -15.785  -0.480  1.00  0.00     0.032 A 
BRANCH   9  15
HETATM   15  C   UNL     1      43.032 -10.921  -1.775  1.00  0.00     0.270 C 
HETATM   16  N   UNL     1      42.913  -9.904  -2.682  1.00  0.00    -0.365 N 
HETATM   17  H   UNL     1      42.442 -10.090  -3.559  1.00  0.00     0.159 HD
HETATM   18  H   UNL     1      43.357  -9.019  -2.497  1.00  0.00     0.159 HD
HETATM   19  O   UNL     1      43.639 -10.763  -0.721  1.00  0.00    -0.266 OA
ENDBRANCH   9  15
ENDBRANCH   2   5
BRANCH   1  20
HETATM   20  C   UNL     1      42.543 -16.169   3.906  1.00  0.00     0.107 C 
HETATM   21  C   UNL     1      41.062 -16.072   4.284  1.00  0.00     0.025 C 
BRANCH  20  22
HETATM   22  C   UNL     1      43.181 -17.549   4.007  1.00  0.00    -0.044 A 
HETATM   23  C   UNL     1      43.029 -18.434   2.920  1.00  0.00     0.020 A 
HETATM   24  C   UNL     1      43.585 -19.723   2.929  1.00  0.00    -0.025 A 
HETATM   25  C   UNL     1      44.326 -20.146   4.051  1.00  0.00    -0.026 A 
HETATM   26  C   UNL     1      43.417 -20.599   1.843  1.00  0.00     0.012 A 
HETATM   27  C   UNL     1      44.487 -19.265   5.132  1.00  0.00     0.013 A 
HETATM   28  C   UNL     1      44.886 -21.435   4.057  1.00  0.00     0.012 A 
HETATM   29  C   UNL     1      43.924 -17.984   5.111  1.00  0.00     0.009 A 
HETATM   30  C   UNL     1      44.713 -22.294   2.970  1.00  0.00     0.001 A 
HETATM   31  C   UNL     1      43.978 -21.876   1.864  1.00  0.00     0.001 A 
ENDBRANCH  20  22
ENDBRANCH   1  20
TORSDOF 4
ENDMDL
MODEL 4
REMARK VINA RESULT:      -9.0      2.376      3.240
REMARK  4 active torsions:
REMARK  status: ('A' for Active; 'I' for Inactive)
REMARK    1  A    between atoms: C_2  and  C_3 
REMARK    2  A    between atoms: C_2  and  C_19 
REMARK       I    between atoms: C_3  and  N_4 
REMARK    3  A    between atoms: N_4  and  C_5 
REMARK    4  A    between atoms: C_12  and  C_13 
REMARK       I    between atoms: C_13  and  N_14 
ROOT
HETATM    1  C   UNL     1      42.097 -15.548   4.769  1.00  0.00     0.230 C 
HETATM    2  N   UNL     1      42.144 -14.427   3.957  1.00  0.00    -0.327 N 
HETATM    3  O   UNL     1      41.081 -16.015   5.281  1.00  0.00    -0.272 OA
HETATM    4  H   UNL     1      43.008 -14.250   3.464  1.00  0.00     0.169 HD
ENDROOT
BRANCH   2   5
HETATM    5  C   UNL     1      41.093 -13.519   3.712  1.00  0.00     0.035 A 
HETATM    6  C   UNL     1      40.243 -13.612   2.602  1.00  0.00     0.046 A 
HETATM    7  C   UNL     1      39.176 -12.697   2.463  1.00  0.00     0.030 A 
HETATM    8  C   UNL     1      39.019 -11.702   3.420  1.00  0.00     0.063 A 
HETATM    9  C   UNL     1      38.098 -12.505   1.548  1.00  0.00     0.156 A 
HETATM   10  N   UNL     1      37.937 -10.975   3.010  1.00  0.00    -0.277 N 
HETATM   11  C   UNL     1      39.852 -11.575   4.532  1.00  0.00     0.034 A 
HETATM   12  H   UNL     1      37.538 -10.160   3.461  1.00  0.00     0.189 HD
HETATM   13  N   UNL     1      37.348 -11.434   1.894  1.00  0.00    -0.168 NA
HETATM   14  C   UNL     1      40.880 -12.517   4.668  1.00  0.00     0.032 A 
BRANCH   9  15
HETATM   15  C   UNL     1      37.758 -13.328   0.378  1.00  0.00     0.270 C 
HETATM   16  N   UNL     1      37.278 -14.570   0.690  1.00  0.00    -0.365 N 
HETATM   17  H   UNL     1      37.221 -14.837   1.665  1.00  0.00     0.159 HD
HETATM   18  H   UNL     1      37.062 -15.220  -0.049  1.00  0.00     0.159 HD
HETATM   19  O   UNL     1      37.896 -12.976  -0.788  1.00  0.00    -0.266 OA
ENDBRANCH   9  15
ENDBRANCH   2   5
BRANCH   1  20
HETATM   20  C   UNL     1      43.461 -16.210   5.026  1.00  0.00     0.107 C 
HETATM   21  C   UNL     1      43.756 -16.316   6.526  1.00  0.00     0.025 C 
BRANCH  20  22
HETATM   22  C   UNL     1      43.607 -17.491   4.213  1.00  0.00    -0.044 A 
HETATM   23  C   UNL     1      44.047 -18.654   4.876  1.00  0.00     0.020 A 
HETATM   24  C   UNL     1      44.208 -19.877   4.204  1.00  0.00    -0.025 A 
HETATM   25  C   UNL     1      43.912 -19.949   2.827  1.00  0.00    -0.026 A 
HETATM   26  C   UNL     1      44.656 -21.026   4.875  1.00  0.00     0.012 A 
HETATM   27  C   UNL     1      43.467 -18.795   2.165  1.00  0.00     0.013 A 
HETATM   28  C   UNL     1      44.069 -21.174   2.156  1.00  0.00     0.012 A 
HETATM   29  C   UNL     1      43.315 -17.582   2.848  1.00  0.00     0.009 A 
HETATM   30  C   UNL     1      44.514 -22.309   2.836  1.00  0.00     0.001 A 
HETATM   31  C   UNL     1      44.808 -22.235   4.195  1.00  0.00     0.001 A 
ENDBRANCH  20  22
ENDBRANCH   1  20
TORSDOF 4
ENDMDL
MODEL 5
REMARK VINA RESULT:      -9.0      1.704      2.469
REMARK  4 active torsions:
REMARK  status: ('A' for Active; 'I' for Inactive)
REMARK    1  A    between atoms: C_2  and  C_3 
REMARK    2  A    between atoms: C_2  and  C_19 
REMARK       I    between atoms: C_3  and  N_4 
REMARK    3  A    between atoms: N_4  and  C_5 
REMARK    4  A    between atoms: C_12  and  C_13 
REMARK       I    between atoms: C_13  and  N_14 
ROOT
HETATM    1  C   UNL     1      42.775 -15.615   3.441  1.00  0.00     0.230 C 
HETATM    2  N   UNL     1      41.504 -15.821   2.932  1.00  0.00    -0.327 N 
HETATM    3  O   UNL     1      43.670 -14.981   2.887  1.00  0.00    -0.272 OA
HETATM    4  H   UNL     1      40.813 -16.209   3.558  1.00  0.00     0.169 HD
ENDROOT
BRANCH   2   5
HETATM    5  C   UNL     1      41.055 -15.508   1.632  1.00  0.00     0.035 A 
HETATM    6  C   UNL     1      40.052 -14.564   1.373  1.00  0.00     0.046 A 
HETATM    7  C   UNL     1      39.705 -14.265   0.038  1.00  0.00     0.030 A 
HETATM    8  C   UNL     1      40.347 -14.945  -0.990  1.00  0.00     0.063 A 
HETATM    9  C   UNL     1      38.818 -13.358  -0.616  1.00  0.00     0.156 A 
HETATM   10  N   UNL     1      39.793 -14.464  -2.143  1.00  0.00    -0.277 N 
HETATM   11  C   UNL     1      41.343 -15.897  -0.768  1.00  0.00     0.034 A 
HETATM   12  H   UNL     1      40.012 -14.744  -3.092  1.00  0.00     0.189 HD
HETATM   13  N   UNL     1      38.877 -13.499  -1.961  1.00  0.00    -0.168 NA
HETATM   14  C   UNL     1      41.697 -16.149   0.564  1.00  0.00     0.032 A 
BRANCH   9  15
HETATM   15  C   UNL     1      37.942 -12.355   0.006  1.00  0.00     0.270 C 
HETATM   16  N   UNL     1      36.835 -12.880   0.614  1.00  0.00    -0.365 N 
HETATM   17  H   UNL     1      36.687 -13.881   0.568  1.00  0.00     0.159 HD
HETATM   18  H   UNL     1      36.154 -12.263   1.027  1.00  0.00     0.159 HD
HETATM   19  O   UNL     1      38.141 -11.145  -0.013  1.00  0.00    -0.266 OA
ENDBRANCH   9  15
ENDBRANCH   2   5
BRANCH   1  20
HETATM   20  C   UNL     1      43.031 -16.270   4.809  1.00  0.00     0.107 C 
HETATM   21  C   UNL     1      41.834 -16.086   5.748  1.00  0.00     0.025 C 
BRANCH  20  22
HETATM   22  C   UNL     1      43.553 -17.692   4.644  1.00  0.00    -0.044 A 
HETATM   23  C   UNL     1      43.318 -18.349   3.419  1.00  0.00     0.020 A 
HETATM   24  C   UNL     1      43.766 -19.659   3.182  1.00  0.00    -0.025 A 
HETATM   25  C   UNL     1      44.479 -20.337   4.192  1.00  0.00    -0.026 A 
HETATM   26  C   UNL     1      43.516 -20.307   1.961  1.00  0.00     0.012 A 
HETATM   27  C   UNL     1      44.722 -19.683   5.409  1.00  0.00     0.013 A 
HETATM   28  C   UNL     1      44.930 -21.645   3.952  1.00  0.00     0.012 A 
HETATM   29  C   UNL     1      44.266 -18.378   5.633  1.00  0.00     0.009 A 
HETATM   30  C   UNL     1      44.677 -22.276   2.732  1.00  0.00     0.001 A 
HETATM   31  C   UNL     1      43.969 -21.607   1.737  1.00  0.00     0.001 A 
ENDBRANCH  20  22
ENDBRANCH   1  20
TORSDOF 4
ENDMDL
MODEL 6
REMARK VINA RESULT:      -9.0      2.018      2.502
REMARK  4 active torsions:
REMARK  status: ('A' for Active; 'I' for Inactive)
REMARK    1  A    between atoms: C_2  and  C_3 
REMARK    2  A    between atoms: C_2  and  C_19 
REMARK       I    between atoms: C_3  and  N_4 
REMARK    3  A    between atoms: N_4  and  C_5 
REMARK    4  A    between atoms: C_12  and  C_13 
REMARK       I    between atoms: C_13  and  N_14 
ROOT
HETATM    1  C   UNL     1      42.490 -14.310   3.203  1.00  0.00     0.230 C 
HETATM    2  N   UNL     1      41.251 -13.993   2.673  1.00  0.00    -0.327 N 
HETATM    3  O   UNL     1      43.554 -13.770   2.904  1.00  0.00    -0.272 OA
HETATM    4  H   UNL     1      40.440 -14.389   3.125  1.00  0.00     0.169 HD
ENDROOT
BRANCH   2   5
HETATM    5  C   UNL     1      40.996 -13.136   1.581  1.00  0.00     0.035 A 
HETATM    6  C   UNL     1      41.366 -13.441   0.264  1.00  0.00     0.046 A 
HETATM    7  C   UNL     1      41.017 -12.556  -0.779  1.00  0.00     0.030 A 
HETATM    8  C   UNL     1      40.342 -11.383  -0.466  1.00  0.00     0.063 A 
HETATM    9  C   UNL     1      41.151 -12.538  -2.200  1.00  0.00     0.156 A 
HETATM   10  N   UNL     1      40.167 -10.737  -1.657  1.00  0.00    -0.277 N 
HETATM   11  C   UNL     1      39.967 -11.044   0.835  1.00  0.00     0.034 A 
HETATM   12  H   UNL     1      39.721  -9.840  -1.809  1.00  0.00     0.189 HD
HETATM   13  N   UNL     1      40.630 -11.405  -2.726  1.00  0.00    -0.168 NA
HETATM   14  C   UNL     1      40.290 -11.956   1.849  1.00  0.00     0.032 A 
BRANCH   9  15
HETATM   15  C   UNL     1      41.737 -13.577  -3.059  1.00  0.00     0.270 C 
HETATM   16  N   UNL     1      43.105 -13.579  -3.078  1.00  0.00    -0.365 N 
HETATM   17  H   UNL     1      43.598 -12.874  -2.544  1.00  0.00     0.159 HD
HETATM   18  H   UNL     1      43.593 -14.227  -3.676  1.00  0.00     0.159 HD
HETATM   19  O   UNL     1      41.093 -14.376  -3.729  1.00  0.00    -0.266 OA
ENDBRANCH   9  15
ENDBRANCH   2   5
BRANCH   1  20
HETATM   20  C   UNL     1      42.472 -15.449   4.236  1.00  0.00     0.107 C 
HETATM   21  C   UNL     1      41.226 -15.377   5.125  1.00  0.00     0.025 C 
BRANCH  20  22
HETATM   22  C   UNL     1      42.755 -16.792   3.573  1.00  0.00    -0.044 A 
HETATM   23  C   UNL     1      43.519 -17.738   4.285  1.00  0.00     0.020 A 
HETATM   24  C   UNL     1      43.825 -19.000   3.750  1.00  0.00    -0.025 A 
HETATM   25  C   UNL     1      43.349 -19.337   2.467  1.00  0.00    -0.026 A 
HETATM   26  C   UNL     1      44.597 -19.930   4.466  1.00  0.00     0.012 A 
HETATM   27  C   UNL     1      42.581 -18.401   1.758  1.00  0.00     0.013 A 
HETATM   28  C   UNL     1      43.652 -20.602   1.933  1.00  0.00     0.012 A 
HETATM   29  C   UNL     1      42.286 -17.146   2.302  1.00  0.00     0.009 A 
HETATM   30  C   UNL     1      44.418 -21.517   2.658  1.00  0.00     0.001 A 
HETATM   31  C   UNL     1      44.891 -21.181   3.923  1.00  0.00     0.001 A 
ENDBRANCH  20  22
ENDBRANCH   1  20
TORSDOF 4
ENDMDL
MODEL 7
REMARK VINA RESULT:      -8.8      4.388      6.260
REMARK  4 active torsions:
REMARK  status: ('A' for Active; 'I' for Inactive)
REMARK    1  A    between atoms: C_2  and  C_3 
REMARK    2  A    between atoms: C_2  and  C_19 
REMARK       I    between atoms: C_3  and  N_4 
REMARK    3  A    between atoms: N_4  and  C_5 
REMARK    4  A    between atoms: C_12  and  C_13 
REMARK       I    between atoms: C_13  and  N_14 
ROOT
HETATM    1  C   UNL     1      42.360 -15.613   5.642  1.00  0.00     0.230 C 
HETATM    2  N   UNL     1      42.540 -14.334   5.144  1.00  0.00    -0.327 N 
HETATM    3  O   UNL     1      41.292 -16.082   6.035  1.00  0.00    -0.272 OA
HETATM    4  H   UNL     1      43.423 -14.132   4.698  1.00  0.00     0.169 HD
ENDROOT
BRANCH   2   5
HETATM    5  C   UNL     1      41.599 -13.283   5.158  1.00  0.00     0.035 A 
HETATM    6  C   UNL     1      41.161 -12.662   6.336  1.00  0.00     0.046 A 
HETATM    7  C   UNL     1      40.263 -11.576   6.256  1.00  0.00     0.030 A 
HETATM    8  C   UNL     1      39.808 -11.172   5.008  1.00  0.00     0.063 A 
HETATM    9  C   UNL     1      39.655 -10.674   7.181  1.00  0.00     0.156 A 
HETATM   10  N   UNL     1      38.953 -10.134   5.252  1.00  0.00    -0.277 N 
HETATM   11  C   UNL     1      40.216 -11.774   3.816  1.00  0.00     0.034 A 
HETATM   12  H   UNL     1      38.424  -9.601   4.572  1.00  0.00     0.189 HD
HETATM   13  N   UNL     1      38.842  -9.797   6.547  1.00  0.00    -0.168 NA
HETATM   14  C   UNL     1      41.137 -12.825   3.918  1.00  0.00     0.032 A 
BRANCH   9  15
HETATM   15  C   UNL     1      39.849 -10.617   8.637  1.00  0.00     0.270 C 
HETATM   16  N   UNL     1      38.704 -10.810   9.360  1.00  0.00    -0.365 N 
HETATM   17  H   UNL     1      37.833 -10.944   8.862  1.00  0.00     0.159 HD
HETATM   18  H   UNL     1      38.733 -10.743  10.365  1.00  0.00     0.159 HD
HETATM   19  O   UNL     1      40.920 -10.398   9.192  1.00  0.00    -0.266 OA
ENDBRANCH   9  15
ENDBRANCH   2   5
BRANCH   1  20
HETATM   20  C   UNL     1      43.639 -16.465   5.697  1.00  0.00     0.107 C 
HETATM   21  C   UNL     1      43.939 -16.929   7.126  1.00  0.00     0.025 C 
BRANCH  20  22
HETATM   22  C   UNL     1      43.622 -17.545   4.622  1.00  0.00    -0.044 A 
HETATM   23  C   UNL     1      44.146 -18.813   4.943  1.00  0.00     0.020 A 
HETATM   24  C   UNL     1      44.168 -19.866   4.014  1.00  0.00    -0.025 A 
HETATM   25  C   UNL     1      43.642 -19.654   2.723  1.00  0.00    -0.026 A 
HETATM   26  C   UNL     1      44.703 -21.122   4.343  1.00  0.00     0.012 A 
HETATM   27  C   UNL     1      43.112 -18.396   2.401  1.00  0.00     0.013 A 
HETATM   28  C   UNL     1      43.660 -20.709   1.794  1.00  0.00     0.012 A 
HETATM   29  C   UNL     1      43.100 -17.355   3.337  1.00  0.00     0.009 A 
HETATM   30  C   UNL     1      44.193 -21.953   2.137  1.00  0.00     0.001 A 
HETATM   31  C   UNL     1      44.715 -22.159   3.411  1.00  0.00     0.001 A 
ENDBRANCH  20  22
ENDBRANCH   1  20
TORSDOF 4
ENDMDL
MODEL 8
REMARK VINA RESULT:      -8.8      3.870      8.142
REMARK  4 active torsions:
REMARK  status: ('A' for Active; 'I' for Inactive)
REMARK    1  A    between atoms: C_2  and  C_3 
REMARK    2  A    between atoms: C_2  and  C_19 
REMARK       I    between atoms: C_3  and  N_4 
REMARK    3  A    between atoms: N_4  and  C_5 
REMARK    4  A    between atoms: C_12  and  C_13 
REMARK       I    between atoms: C_13  and  N_14 
ROOT
HETATM    1  C   UNL     1      42.265 -16.183   5.279  1.00  0.00     0.230 C 
HETATM    2  N   UNL     1      43.288 -16.432   4.379  1.00  0.00    -0.327 N 
HETATM    3  O   UNL     1      41.499 -17.027   5.740  1.00  0.00    -0.272 OA
HETATM    4  H   UNL     1      43.949 -15.686   4.213  1.00  0.00     0.169 HD
ENDROOT
BRANCH   2   5
HETATM    5  C   UNL     1      43.531 -17.639   3.692  1.00  0.00     0.035 A 
HETATM    6  C   UNL     1      43.962 -18.811   4.329  1.00  0.00     0.046 A 
HETATM    7  C   UNL     1      44.122 -19.994   3.576  1.00  0.00     0.030 A 
HETATM    8  C   UNL     1      43.880 -19.957   2.209  1.00  0.00     0.063 A 
HETATM    9  C   UNL     1      44.469 -21.351   3.854  1.00  0.00     0.156 A 
HETATM   10  N   UNL     1      44.136 -21.222   1.762  1.00  0.00    -0.277 N 
HETATM   11  C   UNL     1      43.459 -18.806   1.541  1.00  0.00     0.034 A 
HETATM   12  H   UNL     1      44.075 -21.560   0.808  1.00  0.00     0.189 HD
HETATM   13  N   UNL     1      44.482 -22.094   2.723  1.00  0.00    -0.168 NA
HETATM   14  C   UNL     1      43.269 -17.654   2.316  1.00  0.00     0.032 A 
BRANCH   9  15
HETATM   15  C   UNL     1      44.762 -21.952   5.163  1.00  0.00     0.270 C 
HETATM   16  N   UNL     1      45.624 -23.013   5.109  1.00  0.00    -0.365 N 
HETATM   17  H   UNL     1      45.962 -23.317   4.204  1.00  0.00     0.159 HD
HETATM   18  H   UNL     1      45.845 -23.517   5.953  1.00  0.00     0.159 HD
HETATM   19  O   UNL     1      44.282 -21.578   6.227  1.00  0.00    -0.266 OA
ENDBRANCH   9  15
ENDBRANCH   2   5
BRANCH   1  20
HETATM   20  C   UNL     1      42.116 -14.707   5.686  1.00  0.00     0.107 C 
HETATM   21  C   UNL     1      43.481 -14.048   5.905  1.00  0.00     0.025 C 
BRANCH  20  22
HETATM   22  C   UNL     1      41.151 -13.979   4.758  1.00  0.00    -0.044 A 
HETATM   23  C   UNL     1      40.488 -14.729   3.766  1.00  0.00     0.020 A 
HETATM   24  C   UNL     1      39.582 -14.139   2.870  1.00  0.00    -0.025 A 
HETATM   25  C   UNL     1      39.318 -12.758   2.968  1.00  0.00    -0.026 A 
HETATM   26  C   UNL     1      38.936 -14.896   1.879  1.00  0.00     0.012 A 
HETATM   27  C   UNL     1      39.969 -12.009   3.960  1.00  0.00     0.013 A 
HETATM   28  C   UNL     1      38.407 -12.169   2.075  1.00  0.00     0.012 A 
HETATM   29  C   UNL     1      40.873 -12.610   4.844  1.00  0.00     0.009 A 
HETATM   30  C   UNL     1      37.771 -12.934   1.095  1.00  0.00     0.001 A 
HETATM   31  C   UNL     1      38.036 -14.298   0.997  1.00  0.00     0.001 A 
ENDBRANCH  20  22
ENDBRANCH   1  20
TORSDOF 4
ENDMDL
MODEL 9
REMARK VINA RESULT:      -8.7      3.346      8.686
REMARK  4 active torsions:
REMARK  status: ('A' for Active; 'I' for Inactive)
REMARK    1  A    between atoms: C_2  and  C_3 
REMARK    2  A    between atoms: C_2  and  C_19 
REMARK       I    between atoms: C_3  and  N_4 
REMARK    3  A    between atoms: N_4  and  C_5 
REMARK    4  A    between atoms: C_12  and  C_13 
REMARK       I    between atoms: C_13  and  N_14 
ROOT
HETATM    1  C   UNL     1      41.603 -15.460   3.002  1.00  0.00     0.230 C 
HETATM    2  N   UNL     1      42.928 -15.835   3.144  1.00  0.00    -0.327 N 
HETATM    3  O   UNL     1      40.633 -16.202   3.147  1.00  0.00    -0.272 OA
HETATM    4  H   UNL     1      43.617 -15.097   3.168  1.00  0.00     0.169 HD
ENDROOT
BRANCH   2   5
HETATM    5  C   UNL     1      43.422 -17.148   3.299  1.00  0.00     0.035 A 
HETATM    6  C   UNL     1      43.539 -17.780   4.544  1.00  0.00     0.046 A 
HETATM    7  C   UNL     1      43.984 -19.119   4.606  1.00  0.00     0.030 A 
HETATM    8  C   UNL     1      44.329 -19.765   3.425  1.00  0.00     0.063 A 
HETATM    9  C   UNL     1      44.172 -20.094   5.630  1.00  0.00     0.156 A 
HETATM   10  N   UNL     1      44.734 -21.014   3.802  1.00  0.00    -0.277 N 
HETATM   11  C   UNL     1      44.233 -19.162   2.170  1.00  0.00     0.034 A 
HETATM   12  H   UNL     1      45.070 -21.758   3.201  1.00  0.00     0.189 HD
HETATM   13  N   UNL     1      44.644 -21.255   5.120  1.00  0.00    -0.168 NA
HETATM   14  C   UNL     1      43.752 -17.847   2.131  1.00  0.00     0.032 A 
BRANCH   9  15
HETATM   15  C   UNL     1      43.891 -19.952   7.066  1.00  0.00     0.270 C 
HETATM   16  N   UNL     1      43.495 -21.111   7.675  1.00  0.00    -0.365 N 
HETATM   17  H   UNL     1      43.397 -21.946   7.109  1.00  0.00     0.159 HD
HETATM   18  H   UNL     1      43.237 -21.099   8.648  1.00  0.00     0.159 HD
HETATM   19  O   UNL     1      43.974 -18.903   7.695  1.00  0.00    -0.266 OA
ENDBRANCH   9  15
ENDBRANCH   2   5
BRANCH   1  20
HETATM   20  C   UNL     1      41.392 -13.986   2.617  1.00  0.00     0.107 C 
HETATM   21  C   UNL     1      42.235 -13.055   3.494  1.00  0.00     0.025 C 
BRANCH  20  22
HETATM   22  C   UNL     1      41.513 -13.794   1.110  1.00  0.00    -0.044 A 
HETATM   23  C   UNL     1      42.021 -12.568   0.634  1.00  0.00     0.020 A 
HETATM   24  C   UNL     1      42.167 -12.307  -0.739  1.00  0.00    -0.025 A 
HETATM   25  C   UNL     1      41.806 -13.302  -1.670  1.00  0.00    -0.026 A 
HETATM   26  C   UNL     1      42.664 -11.077  -1.200  1.00  0.00     0.012 A 
HETATM   27  C   UNL     1      41.308 -14.527  -1.200  1.00  0.00     0.013 A 
HETATM   28  C   UNL     1      41.957 -13.042  -3.043  1.00  0.00     0.012 A 
HETATM   29  C   UNL     1      41.165 -14.771   0.170  1.00  0.00     0.009 A 
HETATM   30  C   UNL     1      42.455 -11.815  -3.487  1.00  0.00     0.001 A 
HETATM   31  C   UNL     1      42.807 -10.833  -2.566  1.00  0.00     0.001 A 
ENDBRANCH  20  22
ENDBRANCH   1  20
TORSDOF 4
ENDMDL
MODEL 10
REMARK VINA RESULT:      -8.6      2.614      4.132
REMARK  4 active torsions:
REMARK  status: ('A' for Active; 'I' for Inactive)
REMARK    1  A    between atoms: C_2  and  C_3 
REMARK    2  A    between atoms: C_2  and  C_19 
REMARK       I    between atoms: C_3  and  N_4 
REMARK    3  A    between atoms: N_4  and  C_5 
REMARK    4  A    between atoms: C_12  and  C_13 
REMARK       I    between atoms: C_13  and  N_14 
ROOT
HETATM    1  C   UNL     1      41.470 -15.304   3.305  1.00  0.00     0.230 C 
HETATM    2  N   UNL     1      41.237 -14.477   2.219  1.00  0.00    -0.327 N 
HETATM    3  O   UNL     1      40.604 -15.789   4.031  1.00  0.00    -0.272 OA
HETATM    4  H   UNL     1      42.017 -14.288   1.606  1.00  0.00     0.169 HD
ENDROOT
BRANCH   2   5
HETATM    5  C   UNL     1      40.006 -13.894   1.852  1.00  0.00     0.035 A 
HETATM    6  C   UNL     1      39.547 -12.678   2.375  1.00  0.00     0.046 A 
HETATM    7  C   UNL     1      38.331 -12.134   1.907  1.00  0.00     0.030 A 
HETATM    8  C   UNL     1      37.600 -12.841   0.961  1.00  0.00     0.063 A 
HETATM    9  C   UNL     1      37.584 -10.939   2.134  1.00  0.00     0.156 A 
HETATM   10  N   UNL     1      36.485 -12.087   0.727  1.00  0.00    -0.277 N 
HETATM   11  C   UNL     1      38.023 -14.059   0.426  1.00  0.00     0.034 A 
HETATM   12  H   UNL     1      35.719 -12.301   0.099  1.00  0.00     0.189 HD
HETATM   13  N   UNL     1      36.444 -10.928   1.406  1.00  0.00    -0.168 NA
HETATM   14  C   UNL     1      39.252 -14.559   0.877  1.00  0.00     0.032 A 
BRANCH   9  15
HETATM   15  C   UNL     1      37.943  -9.808   3.002  1.00  0.00     0.270 C 
HETATM   16  N   UNL     1      36.965  -9.455   3.892  1.00  0.00    -0.365 N 
HETATM   17  H   UNL     1      36.087  -9.959   3.870  1.00  0.00     0.159 HD
HETATM   18  H   UNL     1      37.106  -8.661   4.496  1.00  0.00     0.159 HD
HETATM   19  O   UNL     1      39.004  -9.196   2.951  1.00  0.00    -0.266 OA
ENDBRANCH   9  15
ENDBRANCH   2   5
BRANCH   1  20
HETATM   20  C   UNL     1      42.955 -15.593   3.582  1.00  0.00     0.107 C 
HETATM   21  C   UNL     1      43.364 -15.116   4.980  1.00  0.00     0.025 C 
BRANCH  20  22
HETATM   22  C   UNL     1      43.307 -17.032   3.226  1.00  0.00    -0.044 A 
HETATM   23  C   UNL     1      43.731 -17.890   4.260  1.00  0.00     0.020 A 
HETATM   24  C   UNL     1      44.074 -19.230   4.020  1.00  0.00    -0.025 A 
HETATM   25  C   UNL     1      43.981 -19.740   2.709  1.00  0.00    -0.026 A 
HETATM   26  C   UNL     1      44.505 -20.072   5.059  1.00  0.00     0.012 A 
HETATM   27  C   UNL     1      43.551 -18.892   1.677  1.00  0.00     0.013 A 
HETATM   28  C   UNL     1      44.319 -21.083   2.470  1.00  0.00     0.012 A 
HETATM   29  C   UNL     1      43.217 -17.556   1.931  1.00  0.00     0.009 A 
HETATM   30  C   UNL     1      44.745 -21.909   3.513  1.00  0.00     0.001 A 
HETATM   31  C   UNL     1      44.839 -21.402   4.807  1.00  0.00     0.001 A 
ENDBRANCH  20  22
ENDBRANCH   1  20
TORSDOF 4
ENDMDL
