MODEL 1
REMARK VINA RESULT:      -9.4      0.000      0.000
REMARK  8 active torsions:
REMARK  status: ('A' for Active; 'I' for Inactive)
REMARK    1  A    between atoms: O_2  and  C_3 
REMARK    2  A    between atoms: C_11  and  C_12 
REMARK       I    between atoms: C_12  and  N_13 
REMARK    3  A    between atoms: N_13  and  C_14 
REMARK    4  A    between atoms: C_14  and  C_15 
REMARK    5  A    between atoms: C_15  and  C_16 
REMARK    6  A    between atoms: C_16  and  C_17 
REMARK    7  A    between atoms: C_17  and  O_18 
REMARK    8  A    between atoms: O_18  and  C_19 
ROOT
HETATM    1  C   UNL     1      44.668 -12.121  10.258  1.00  0.00     0.268 C 
HETATM    2  N   UNL     1      44.592 -12.097   8.888  1.00  0.00    -0.345 N 
HETATM    3  O   UNL     1      45.569 -12.700  10.858  1.00  0.00    -0.266 OA
HETATM    4  H   UNL     1      43.792 -11.684   8.434  1.00  0.00     0.163 HD
ENDROOT
BRANCH   2   5
HETATM    5  C   UNL     1      45.518 -12.851   8.089  1.00  0.00     0.217 C 
BRANCH   5   6
HETATM    6  C   UNL     1      44.799 -14.014   7.426  1.00  0.00    -0.085 C 
BRANCH   6   7
HETATM    7  C   UNL     1      44.183 -15.013   6.857  1.00  0.00    -0.078 C 
BRANCH   7   8
HETATM    8  C   UNL     1      43.465 -16.175   6.192  1.00  0.00     0.269 C 
BRANCH   8   9
HETATM    9  O   UNL     1      44.335 -17.304   6.203  1.00  0.00    -0.339 OA
BRANCH   9  10
HETATM   10  C   UNL     1      44.223 -18.183   5.161  1.00  0.00     0.072 A 
HETATM   11  C   UNL     1      44.549 -19.542   5.189  1.00  0.00     0.069 A 
HETATM   12  C   UNL     1      44.402 -20.350   4.069  1.00  0.00     0.069 A 
HETATM   13  C   UNL     1      43.910 -19.775   2.878  1.00  0.00    -0.007 A 
HETATM   14  N   UNL     1      44.734 -21.652   4.151  1.00  0.00    -0.260 NA
HETATM   15  C   UNL     1      43.578 -18.412   2.841  1.00  0.00     0.016 A 
HETATM   16  C   UNL     1      43.768 -20.600   1.755  1.00  0.00     0.015 A 
HETATM   17  C   UNL     1      43.736 -17.624   3.980  1.00  0.00     0.038 A 
HETATM   18  C   UNL     1      44.111 -21.943   1.839  1.00  0.00     0.020 A 
HETATM   19  C   UNL     1      44.584 -22.416   3.047  1.00  0.00     0.117 A 
ENDBRANCH   9  10
ENDBRANCH   8   9
ENDBRANCH   7   8
ENDBRANCH   6   7
ENDBRANCH   5   6
ENDBRANCH   2   5
BRANCH   1  20
HETATM   20  C   UNL     1      43.617 -11.416  10.955  1.00  0.00     0.102 A 
HETATM   21  N   UNL     1      42.313 -11.471  10.510  1.00  0.00    -0.351 N 
HETATM   22  C   UNL     1      41.478 -10.744  11.322  1.00  0.00     0.045 A 
HETATM   23  H   UNL     1      42.028 -11.994   9.691  1.00  0.00     0.166 HD
HETATM   24  C   UNL     1      40.090 -10.546  11.248  1.00  0.00     0.067 A 
HETATM   25  C   UNL     1      42.272 -10.178  12.314  1.00  0.00    -0.007 A 
HETATM   26  C   UNL     1      39.497  -9.740  12.226  1.00  0.00     0.070 A 
HETATM   27  C   UNL     1      40.279  -9.150  13.221  1.00  0.00     0.038 A 
HETATM   28  C   UNL     1      41.663  -9.359  13.281  1.00  0.00     0.016 A 
HETATM   29  C   UNL     1      43.609 -10.609  12.080  1.00  0.00     0.049 A 
BRANCH  26  30
HETATM   30  O   UNL     1      38.160  -9.448  12.310  1.00  0.00    -0.356 OA
HETATM   31  C   UNL     1      37.616  -8.628  11.284  1.00  0.00     0.210 C 
ENDBRANCH  26  30
ENDBRANCH   1  20
TORSDOF 8
ENDMDL
MODEL 2
REMARK VINA RESULT:      -9.1      1.580      1.982
REMARK  8 active torsions:
REMARK  status: ('A' for Active; 'I' for Inactive)
REMARK    1  A    between atoms: O_2  and  C_3 
REMARK    2  A    between atoms: C_11  and  C_12 
REMARK       I    between atoms: C_12  and  N_13 
REMARK    3  A    between atoms: N_13  and  C_14 
REMARK    4  A    between atoms: C_14  and  C_15 
REMARK    5  A    between atoms: C_15  and  C_16 
REMARK    6  A    between atoms: C_16  and  C_17 
REMARK    7  A    between atoms: C_17  and  O_18 
REMARK    8  A    between atoms: O_18  and  C_19 
ROOT
HETATM    1  C   UNL     1      45.075 -12.290   8.743  1.00  0.00     0.268 C 
HETATM    2  N   UNL     1      44.356 -13.274   8.114  1.00  0.00    -0.345 N 
HETATM    3  O   UNL     1      46.217 -11.991   8.408  1.00  0.00    -0.266 OA
HETATM    4  H   UNL     1      43.454 -13.548   8.473  1.00  0.00     0.163 HD
ENDROOT
BRANCH   2   5
HETATM    5  C   UNL     1      44.959 -14.083   7.091  1.00  0.00     0.217 C 
BRANCH   5   6
HETATM    6  C   UNL     1      43.970 -14.304   5.958  1.00  0.00    -0.085 C 
BRANCH   6   7
HETATM    7  C   UNL     1      43.122 -14.493   4.986  1.00  0.00    -0.078 C 
BRANCH   7   8
HETATM    8  C   UNL     1      42.134 -14.714   3.854  1.00  0.00     0.269 C 
BRANCH   8   9
HETATM    9  O   UNL     1      41.456 -15.946   4.085  1.00  0.00    -0.339 OA
BRANCH   9  10
HETATM   10  C   UNL     1      42.051 -17.081   3.606  1.00  0.00     0.072 A 
HETATM   11  C   UNL     1      42.889 -17.939   4.323  1.00  0.00     0.069 A 
HETATM   12  C   UNL     1      43.449 -19.068   3.739  1.00  0.00     0.069 A 
HETATM   13  C   UNL     1      43.156 -19.346   2.387  1.00  0.00    -0.007 A 
HETATM   14  N   UNL     1      44.251 -19.859   4.475  1.00  0.00    -0.260 NA
HETATM   15  C   UNL     1      42.314 -18.492   1.660  1.00  0.00     0.016 A 
HETATM   16  C   UNL     1      43.728 -20.487   1.809  1.00  0.00     0.015 A 
HETATM   17  C   UNL     1      41.766 -17.366   2.271  1.00  0.00     0.038 A 
HETATM   18  C   UNL     1      44.557 -21.303   2.567  1.00  0.00     0.020 A 
HETATM   19  C   UNL     1      44.785 -20.950   3.883  1.00  0.00     0.117 A 
ENDBRANCH   9  10
ENDBRANCH   8   9
ENDBRANCH   7   8
ENDBRANCH   6   7
ENDBRANCH   5   6
ENDBRANCH   2   5
BRANCH   1  20
HETATM   20  C   UNL     1      44.400 -11.620   9.831  1.00  0.00     0.102 A 
HETATM   21  N   UNL     1      43.028 -11.483   9.833  1.00  0.00    -0.351 N 
HETATM   22  C   UNL     1      42.594 -10.829  10.961  1.00  0.00     0.045 A 
HETATM   23  H   UNL     1      42.433 -11.835   9.093  1.00  0.00     0.166 HD
HETATM   24  C   UNL     1      41.293 -10.500  11.372  1.00  0.00     0.067 A 
HETATM   25  C   UNL     1      43.726 -10.510  11.703  1.00  0.00    -0.007 A 
HETATM   26  C   UNL     1      41.149  -9.818  12.584  1.00  0.00     0.070 A 
HETATM   27  C   UNL     1      42.274  -9.473  13.336  1.00  0.00     0.038 A 
HETATM   28  C   UNL     1      43.566  -9.812  12.913  1.00  0.00     0.016 A 
HETATM   29  C   UNL     1      44.852 -11.014  10.990  1.00  0.00     0.049 A 
BRANCH  26  30
HETATM   30  O   UNL     1      39.958  -9.426  13.139  1.00  0.00    -0.356 OA
HETATM   31  C   UNL     1      39.510  -8.111  12.833  1.00  0.00     0.210 C 
ENDBRANCH  26  30
ENDBRANCH   1  20
TORSDOF 8
ENDMDL
MODEL 3
REMARK VINA RESULT:      -8.9      2.026      2.869
REMARK  8 active torsions:
REMARK  status: ('A' for Active; 'I' for Inactive)
REMARK    1  A    between atoms: O_2  and  C_3 
REMARK    2  A    between atoms: C_11  and  C_12 
REMARK       I    between atoms: C_12  and  N_13 
REMARK    3  A    between atoms: N_13  and  C_14 
REMARK    4  A    between atoms: C_14  and  C_15 
REMARK    5  A    between atoms: C_15  and  C_16 
REMARK    6  A    between atoms: C_16  and  C_17 
REMARK    7  A    between atoms: C_17  and  O_18 
REMARK    8  A    between atoms: O_18  and  C_19 
ROOT
HETATM    1  C   UNL     1      44.991 -12.555   8.871  1.00  0.00     0.268 C 
HETATM    2  N   UNL     1      44.150 -13.233   8.026  1.00  0.00    -0.345 N 
HETATM    3  O   UNL     1      46.212 -12.575   8.742  1.00  0.00    -0.266 OA
HETATM    4  H   UNL     1      43.159 -13.262   8.216  1.00  0.00     0.163 HD
ENDROOT
BRANCH   2   5
HETATM    5  C   UNL     1      44.675 -14.094   7.002  1.00  0.00     0.217 C 
BRANCH   5   6
HETATM    6  C   UNL     1      44.057 -15.477   7.125  1.00  0.00    -0.085 C 
BRANCH   6   7
HETATM    7  C   UNL     1      43.527 -16.664   7.229  1.00  0.00    -0.078 C 
BRANCH   7   8
HETATM    8  C   UNL     1      42.909 -18.046   7.351  1.00  0.00     0.269 C 
BRANCH   8   9
HETATM    9  O   UNL     1      43.425 -18.861   6.302  1.00  0.00    -0.339 OA
BRANCH   9  10
HETATM   10  C   UNL     1      43.151 -18.470   5.020  1.00  0.00     0.072 A 
HETATM   11  C   UNL     1      42.013 -17.782   4.592  1.00  0.00     0.069 A 
HETATM   12  C   UNL     1      41.828 -17.435   3.260  1.00  0.00     0.069 A 
HETATM   13  C   UNL     1      42.822 -17.790   2.324  1.00  0.00    -0.007 A 
HETATM   14  N   UNL     1      40.711 -16.775   2.902  1.00  0.00    -0.260 NA
HETATM   15  C   UNL     1      43.971 -18.478   2.744  1.00  0.00     0.016 A 
HETATM   16  C   UNL     1      42.625 -17.435   0.983  1.00  0.00     0.015 A 
HETATM   17  C   UNL     1      44.129 -18.814   4.088  1.00  0.00     0.038 A 
HETATM   18  C   UNL     1      41.471 -16.754   0.613  1.00  0.00     0.020 A 
HETATM   19  C   UNL     1      40.554 -16.450   1.600  1.00  0.00     0.117 A 
ENDBRANCH   9  10
ENDBRANCH   8   9
ENDBRANCH   7   8
ENDBRANCH   6   7
ENDBRANCH   5   6
ENDBRANCH   2   5
BRANCH   1  20
HETATM   20  C   UNL     1      44.348 -11.810   9.930  1.00  0.00     0.102 A 
HETATM   21  N   UNL     1      42.974 -11.763  10.026  1.00  0.00    -0.351 N 
HETATM   22  C   UNL     1      42.576 -11.014  11.106  1.00  0.00     0.045 A 
HETATM   23  H   UNL     1      42.355 -12.234   9.378  1.00  0.00     0.166 HD
HETATM   24  C   UNL     1      41.287 -10.724  11.581  1.00  0.00     0.067 A 
HETATM   25  C   UNL     1      43.732 -10.540  11.717  1.00  0.00    -0.007 A 
HETATM   26  C   UNL     1      41.181  -9.919  12.720  1.00  0.00     0.070 A 
HETATM   27  C   UNL     1      42.329  -9.420  13.338  1.00  0.00     0.038 A 
HETATM   28  C   UNL     1      43.609  -9.721  12.853  1.00  0.00     0.016 A 
HETATM   29  C   UNL     1      44.838 -11.049  10.977  1.00  0.00     0.049 A 
BRANCH  26  30
HETATM   30  O   UNL     1      40.007  -9.543  13.321  1.00  0.00    -0.356 OA
HETATM   31  C   UNL     1      39.602  -8.192  13.148  1.00  0.00     0.210 C 
ENDBRANCH  26  30
ENDBRANCH   1  20
TORSDOF 8
ENDMDL
MODEL 4
REMARK VINA RESULT:      -8.7      1.777      2.487
REMARK  8 active torsions:
REMARK  status: ('A' for Active; 'I' for Inactive)
REMARK    1  A    between atoms: O_2  and  C_3 
REMARK    2  A    between atoms: C_11  and  C_12 
REMARK       I    between atoms: C_12  and  N_13 
REMARK    3  A    between atoms: N_13  and  C_14 
REMARK    4  A    between atoms: C_14  and  C_15 
REMARK    5  A    between atoms: C_15  and  C_16 
REMARK    6  A    between atoms: C_16  and  C_17 
REMARK    7  A    between atoms: C_17  and  O_18 
REMARK    8  A    between atoms: O_18  and  C_19 
ROOT
HETATM    1  C   UNL     1      44.830 -11.213   9.534  1.00  0.00     0.268 C 
HETATM    2  N   UNL     1      44.469 -12.413   8.976  1.00  0.00    -0.345 N 
HETATM    3  O   UNL     1      45.859 -10.622   9.219  1.00  0.00    -0.266 OA
HETATM    4  H   UNL     1      43.661 -12.908   9.323  1.00  0.00     0.163 HD
ENDROOT
BRANCH   2   5
HETATM    5  C   UNL     1      45.348 -13.093   8.065  1.00  0.00     0.217 C 
BRANCH   5   6
HETATM    6  C   UNL     1      44.535 -13.791   6.988  1.00  0.00    -0.085 C 
BRANCH   6   7
HETATM    7  C   UNL     1      43.837 -14.389   6.062  1.00  0.00    -0.078 C 
BRANCH   7   8
HETATM    8  C   UNL     1      43.024 -15.086   4.986  1.00  0.00     0.269 C 
BRANCH   8   9
HETATM    9  O   UNL     1      42.547 -16.321   5.514  1.00  0.00    -0.339 OA
BRANCH   9  10
HETATM   10  C   UNL     1      43.074 -17.468   4.986  1.00  0.00     0.072 A 
HETATM   11  C   UNL     1      42.743 -18.037   3.754  1.00  0.00     0.069 A 
HETATM   12  C   UNL     1      43.336 -19.213   3.311  1.00  0.00     0.069 A 
HETATM   13  C   UNL     1      44.297 -19.838   4.134  1.00  0.00    -0.007 A 
HETATM   14  N   UNL     1      42.978 -19.719   2.117  1.00  0.00    -0.260 NA
HETATM   15  C   UNL     1      44.639 -19.271   5.371  1.00  0.00     0.016 A 
HETATM   16  C   UNL     1      44.888 -21.023   3.676  1.00  0.00     0.015 A 
HETATM   17  C   UNL     1      44.027 -18.092   5.791  1.00  0.00     0.038 A 
HETATM   18  C   UNL     1      44.518 -21.547   2.444  1.00  0.00     0.020 A 
HETATM   19  C   UNL     1      43.568 -20.864   1.709  1.00  0.00     0.117 A 
ENDBRANCH   9  10
ENDBRANCH   8   9
ENDBRANCH   7   8
ENDBRANCH   6   7
ENDBRANCH   5   6
ENDBRANCH   2   5
BRANCH   1  20
HETATM   20  C   UNL     1      43.917 -10.681  10.520  1.00  0.00     0.102 A 
HETATM   21  N   UNL     1      44.363 -10.320  11.773  1.00  0.00    -0.351 N 
HETATM   22  C   UNL     1      43.338  -9.830  12.544  1.00  0.00     0.045 A 
HETATM   23  H   UNL     1      45.328 -10.405  12.065  1.00  0.00     0.166 HD
HETATM   24  C   UNL     1      43.350  -9.337  13.859  1.00  0.00     0.067 A 
HETATM   25  C   UNL     1      42.183  -9.898  11.772  1.00  0.00    -0.007 A 
HETATM   26  C   UNL     1      42.136  -8.900  14.400  1.00  0.00     0.070 A 
HETATM   27  C   UNL     1      40.962  -8.976  13.646  1.00  0.00     0.038 A 
HETATM   28  C   UNL     1      40.968  -9.468  12.334  1.00  0.00     0.016 A 
HETATM   29  C   UNL     1      42.556 -10.427  10.503  1.00  0.00     0.049 A 
BRANCH  26  30
HETATM   30  O   UNL     1      41.966  -8.386  15.659  1.00  0.00    -0.356 OA
HETATM   31  C   UNL     1      40.786  -8.767  16.354  1.00  0.00     0.210 C 
ENDBRANCH  26  30
ENDBRANCH   1  20
TORSDOF 8
ENDMDL
MODEL 5
REMARK VINA RESULT:      -8.5      2.664      3.598
REMARK  8 active torsions:
REMARK  status: ('A' for Active; 'I' for Inactive)
REMARK    1  A    between atoms: O_2  and  C_3 
REMARK    2  A    between atoms: C_11  and  C_12 
REMARK       I    between atoms: C_12  and  N_13 
REMARK    3  A    between atoms: N_13  and  C_14 
REMARK    4  A    between atoms: C_14  and  C_15 
REMARK    5  A    between atoms: C_15  and  C_16 
REMARK    6  A    between atoms: C_16  and  C_17 
REMARK    7  A    between atoms: C_17  and  O_18 
REMARK    8  A    between atoms: O_18  and  C_19 
ROOT
HETATM    1  C   UNL     1      39.849 -11.201   7.764  1.00  0.00     0.268 C 
HETATM    2  N   UNL     1      39.895 -12.489   7.296  1.00  0.00    -0.345 N 
HETATM    3  O   UNL     1      39.132 -10.342   7.261  1.00  0.00    -0.266 OA
HETATM    4  H   UNL     1      40.559 -13.144   7.681  1.00  0.00     0.163 HD
ENDROOT
BRANCH   2   5
HETATM    5  C   UNL     1      39.175 -12.865   6.110  1.00  0.00     0.217 C 
BRANCH   5   6
HETATM    6  C   UNL     1      40.092 -13.627   5.169  1.00  0.00    -0.085 C 
BRANCH   6   7
HETATM    7  C   UNL     1      40.879 -14.280   4.360  1.00  0.00    -0.078 C 
BRANCH   7   8
HETATM    8  C   UNL     1      41.796 -15.041   3.417  1.00  0.00     0.269 C 
BRANCH   8   9
HETATM    9  O   UNL     1      42.658 -15.864   4.198  1.00  0.00    -0.339 OA
BRANCH   9  10
HETATM   10  C   UNL     1      42.946 -17.106   3.703  1.00  0.00     0.072 A 
HETATM   11  C   UNL     1      43.651 -18.115   4.364  1.00  0.00     0.069 A 
HETATM   12  C   UNL     1      43.896 -19.346   3.767  1.00  0.00     0.069 A 
HETATM   13  C   UNL     1      43.414 -19.572   2.461  1.00  0.00    -0.007 A 
HETATM   14  N   UNL     1      44.583 -20.281   4.449  1.00  0.00    -0.260 NA
HETATM   15  C   UNL     1      42.702 -18.566   1.790  1.00  0.00     0.016 A 
HETATM   16  C   UNL     1      43.667 -20.816   1.870  1.00  0.00     0.015 A 
HETATM   17  C   UNL     1      42.472 -17.341   2.413  1.00  0.00     0.038 A 
HETATM   18  C   UNL     1      44.377 -21.782   2.572  1.00  0.00     0.020 A 
HETATM   19  C   UNL     1      44.809 -21.468   3.846  1.00  0.00     0.117 A 
ENDBRANCH   9  10
ENDBRANCH   8   9
ENDBRANCH   7   8
ENDBRANCH   6   7
ENDBRANCH   5   6
ENDBRANCH   2   5
BRANCH   1  20
HETATM   20  C   UNL     1      40.702 -10.916   8.896  1.00  0.00     0.102 A 
HETATM   21  N   UNL     1      40.279 -11.178  10.182  1.00  0.00    -0.351 N 
HETATM   22  C   UNL     1      41.245 -10.846  11.100  1.00  0.00     0.045 A 
HETATM   23  H   UNL     1      39.373 -11.573  10.399  1.00  0.00     0.166 HD
HETATM   24  C   UNL     1      41.242 -10.964  12.499  1.00  0.00     0.067 A 
HETATM   25  C   UNL     1      42.321 -10.328  10.387  1.00  0.00    -0.007 A 
HETATM   26  C   UNL     1      42.381 -10.534  13.189  1.00  0.00     0.070 A 
HETATM   27  C   UNL     1      43.464  -9.997  12.492  1.00  0.00     0.038 A 
HETATM   28  C   UNL     1      43.452  -9.888  11.095  1.00  0.00     0.016 A 
HETATM   29  C   UNL     1      41.974 -10.381   9.006  1.00  0.00     0.049 A 
BRANCH  26  30
HETATM   30  O   UNL     1      42.551 -10.583  14.549  1.00  0.00    -0.356 OA
HETATM   31  C   UNL     1      42.293  -9.385  15.270  1.00  0.00     0.210 C 
ENDBRANCH  26  30
ENDBRANCH   1  20
TORSDOF 8
ENDMDL
MODEL 6
REMARK VINA RESULT:      -8.2      2.908     11.809
REMARK  8 active torsions:
REMARK  status: ('A' for Active; 'I' for Inactive)
REMARK    1  A    between atoms: O_2  and  C_3 
REMARK    2  A    between atoms: C_11  and  C_12 
REMARK       I    between atoms: C_12  and  N_13 
REMARK    3  A    between atoms: N_13  and  C_14 
REMARK    4  A    between atoms: C_14  and  C_15 
REMARK    5  A    between atoms: C_15  and  C_16 
REMARK    6  A    between atoms: C_16  and  C_17 
REMARK    7  A    between atoms: C_17  and  O_18 
REMARK    8  A    between atoms: O_18  and  C_19 
ROOT
HETATM    1  C   UNL     1      42.514 -14.627   3.982  1.00  0.00     0.268 C 
HETATM    2  N   UNL     1      41.298 -14.388   4.571  1.00  0.00    -0.345 N 
HETATM    3  O   UNL     1      43.119 -13.769   3.347  1.00  0.00    -0.266 OA
HETATM    4  H   UNL     1      40.793 -15.142   5.011  1.00  0.00     0.163 HD
ENDROOT
BRANCH   2   5
HETATM    5  C   UNL     1      40.621 -13.136   4.375  1.00  0.00     0.217 C 
BRANCH   5   6
HETATM    6  C   UNL     1      41.029 -12.154   5.461  1.00  0.00    -0.085 C 
BRANCH   6   7
HETATM    7  C   UNL     1      41.379 -11.310   6.392  1.00  0.00    -0.078 C 
BRANCH   7   8
HETATM    8  C   UNL     1      41.787 -10.327   7.475  1.00  0.00     0.269 C 
BRANCH   8   9
HETATM    9  O   UNL     1      42.823 -10.922   8.253  1.00  0.00    -0.339 OA
BRANCH   9  10
HETATM   10  C   UNL     1      42.887 -10.571   9.574  1.00  0.00     0.072 A 
HETATM   11  C   UNL     1      41.822 -10.129  10.362  1.00  0.00     0.069 A 
HETATM   12  C   UNL     1      41.996  -9.791  11.699  1.00  0.00     0.069 A 
HETATM   13  C   UNL     1      43.284  -9.903  12.263  1.00  0.00    -0.007 A 
HETATM   14  N   UNL     1      40.936  -9.367  12.411  1.00  0.00    -0.260 NA
HETATM   15  C   UNL     1      44.359 -10.351  11.480  1.00  0.00     0.016 A 
HETATM   16  C   UNL     1      43.446  -9.560  13.611  1.00  0.00     0.015 A 
HETATM   17  C   UNL     1      44.156 -10.682  10.141  1.00  0.00     0.038 A 
HETATM   18  C   UNL     1      42.353  -9.121  14.348  1.00  0.00     0.020 A 
HETATM   19  C   UNL     1      41.131  -9.043  13.708  1.00  0.00     0.117 A 
ENDBRANCH   9  10
ENDBRANCH   8   9
ENDBRANCH   7   8
ENDBRANCH   6   7
ENDBRANCH   5   6
ENDBRANCH   2   5
BRANCH   1  20
HETATM   20  C   UNL     1      43.043 -15.961   4.158  1.00  0.00     0.102 A 
HETATM   21  N   UNL     1      43.088 -16.848   3.104  1.00  0.00    -0.351 N 
HETATM   22  C   UNL     1      43.636 -18.048   3.485  1.00  0.00     0.045 A 
HETATM   23  H   UNL     1      42.761 -16.621   2.173  1.00  0.00     0.166 HD
HETATM   24  C   UNL     1      43.885 -19.208   2.736  1.00  0.00     0.067 A 
HETATM   25  C   UNL     1      43.935 -17.943   4.840  1.00  0.00    -0.007 A 
HETATM   26  C   UNL     1      44.459 -20.298   3.399  1.00  0.00     0.070 A 
HETATM   27  C   UNL     1      44.752 -20.218   4.762  1.00  0.00     0.038 A 
HETATM   28  C   UNL     1      44.499 -19.051   5.495  1.00  0.00     0.016 A 
HETATM   29  C   UNL     1      43.565 -16.630   5.251  1.00  0.00     0.049 A 
BRANCH  26  30
HETATM   30  O   UNL     1      44.775 -21.502   2.823  1.00  0.00    -0.356 OA
HETATM   31  C   UNL     1      44.056 -21.860   1.650  1.00  0.00     0.210 C 
ENDBRANCH  26  30
ENDBRANCH   1  20
TORSDOF 8
ENDMDL
MODEL 7
REMARK VINA RESULT:      -8.0      3.196      4.206
REMARK  8 active torsions:
REMARK  status: ('A' for Active; 'I' for Inactive)
REMARK    1  A    between atoms: O_2  and  C_3 
REMARK    2  A    between atoms: C_11  and  C_12 
REMARK       I    between atoms: C_12  and  N_13 
REMARK    3  A    between atoms: N_13  and  C_14 
REMARK    4  A    between atoms: C_14  and  C_15 
REMARK    5  A    between atoms: C_15  and  C_16 
REMARK    6  A    between atoms: C_16  and  C_17 
REMARK    7  A    between atoms: C_17  and  O_18 
REMARK    8  A    between atoms: O_18  and  C_19 
ROOT
HETATM    1  C   UNL     1      45.053 -12.714   8.497  1.00  0.00     0.268 C 
HETATM    2  N   UNL     1      44.178 -13.575   7.884  1.00  0.00    -0.345 N 
HETATM    3  O   UNL     1      46.247 -12.678   8.216  1.00  0.00    -0.266 OA
HETATM    4  H   UNL     1      43.223 -13.635   8.201  1.00  0.00     0.163 HD
ENDROOT
BRANCH   2   5
HETATM    5  C   UNL     1      44.650 -14.559   6.950  1.00  0.00     0.217 C 
BRANCH   5   6
HETATM    6  C   UNL     1      43.491 -15.420   6.476  1.00  0.00    -0.085 C 
BRANCH   6   7
HETATM    7  C   UNL     1      42.495 -16.157   6.069  1.00  0.00    -0.078 C 
BRANCH   7   8
HETATM    8  C   UNL     1      41.336 -17.016   5.595  1.00  0.00     0.269 C 
BRANCH   8   9
HETATM    9  O   UNL     1      41.763 -17.752   4.451  1.00  0.00    -0.339 OA
BRANCH   9  10
HETATM   10  C   UNL     1      41.598 -17.155   3.231  1.00  0.00     0.072 A 
HETATM   11  C   UNL     1      40.633 -16.199   2.905  1.00  0.00     0.069 A 
HETATM   12  C   UNL     1      40.547 -15.657   1.628  1.00  0.00     0.069 A 
HETATM   13  C   UNL     1      41.463 -16.089   0.646  1.00  0.00    -0.007 A 
HETATM   14  N   UNL     1      39.595 -14.742   1.367  1.00  0.00    -0.260 NA
HETATM   15  C   UNL     1      42.438 -17.046   0.966  1.00  0.00     0.016 A 
HETATM   16  C   UNL     1      41.365 -15.535  -0.637  1.00  0.00     0.015 A 
HETATM   17  C   UNL     1      42.500 -17.574   2.254  1.00  0.00     0.038 A 
HETATM   18  C   UNL     1      40.383 -14.591  -0.908  1.00  0.00     0.020 A 
HETATM   19  C   UNL     1      39.532 -14.231   0.118  1.00  0.00     0.117 A 
ENDBRANCH   9  10
ENDBRANCH   8   9
ENDBRANCH   7   8
ENDBRANCH   6   7
ENDBRANCH   5   6
ENDBRANCH   2   5
BRANCH   1  20
HETATM   20  C   UNL     1      44.478 -11.846   9.499  1.00  0.00     0.102 A 
HETATM   21  N   UNL     1      43.253 -11.246   9.294  1.00  0.00    -0.351 N 
HETATM   22  C   UNL     1      42.890 -10.476  10.372  1.00  0.00     0.045 A 
HETATM   23  H   UNL     1      42.704 -11.376   8.454  1.00  0.00     0.166 HD
HETATM   24  C   UNL     1      41.730  -9.716  10.592  1.00  0.00     0.067 A 
HETATM   25  C   UNL     1      43.926 -10.561  11.297  1.00  0.00    -0.007 A 
HETATM   26  C   UNL     1      41.630  -9.019  11.800  1.00  0.00     0.070 A 
HETATM   27  C   UNL     1      42.667  -9.078  12.734  1.00  0.00     0.038 A 
HETATM   28  C   UNL     1      43.817  -9.843  12.501  1.00  0.00     0.016 A 
HETATM   29  C   UNL     1      44.913 -11.426  10.743  1.00  0.00     0.049 A 
BRANCH  26  30
HETATM   30  O   UNL     1      40.570  -8.237  12.181  1.00  0.00    -0.356 OA
HETATM   31  C   UNL     1      39.587  -8.849  13.006  1.00  0.00     0.210 C 
ENDBRANCH  26  30
ENDBRANCH   1  20
TORSDOF 8
ENDMDL
MODEL 8
REMARK VINA RESULT:      -8.0      6.043      8.548
REMARK  8 active torsions:
REMARK  status: ('A' for Active; 'I' for Inactive)
REMARK    1  A    between atoms: O_2  and  C_3 
REMARK    2  A    between atoms: C_11  and  C_12 
REMARK       I    between atoms: C_12  and  N_13 
REMARK    3  A    between atoms: N_13  and  C_14 
REMARK    4  A    between atoms: C_14  and  C_15 
REMARK    5  A    between atoms: C_15  and  C_16 
REMARK    6  A    between atoms: C_16  and  C_17 
REMARK    7  A    between atoms: C_17  and  O_18 
REMARK    8  A    between atoms: O_18  and  C_19 
ROOT
HETATM    1  C   UNL     1      40.780 -16.407   4.111  1.00  0.00     0.268 C 
HETATM    2  N   UNL     1      40.627 -15.733   5.296  1.00  0.00    -0.345 N 
HETATM    3  O   UNL     1      40.699 -17.629   4.034  1.00  0.00    -0.266 OA
HETATM    4  H   UNL     1      40.785 -14.737   5.334  1.00  0.00     0.163 HD
ENDROOT
BRANCH   2   5
HETATM    5  C   UNL     1      40.471 -16.447   6.533  1.00  0.00     0.217 C 
BRANCH   5   6
HETATM    6  C   UNL     1      41.801 -17.052   6.951  1.00  0.00    -0.085 C 
BRANCH   6   7
HETATM    7  C   UNL     1      42.943 -17.571   7.308  1.00  0.00    -0.078 C 
BRANCH   7   8
HETATM    8  C   UNL     1      44.273 -18.174   7.726  1.00  0.00     0.269 C 
BRANCH   8   9
HETATM    9  O   UNL     1      45.177 -18.069   6.629  1.00  0.00    -0.339 OA
BRANCH   9  10
HETATM   10  C   UNL     1      44.837 -18.728   5.479  1.00  0.00     0.072 A 
HETATM   11  C   UNL     1      45.000 -20.093   5.231  1.00  0.00     0.069 A 
HETATM   12  C   UNL     1      44.625 -20.664   4.021  1.00  0.00     0.069 A 
HETATM   13  C   UNL     1      44.064 -19.836   3.027  1.00  0.00    -0.007 A 
HETATM   14  N   UNL     1      44.808 -21.984   3.835  1.00  0.00    -0.260 NA
HETATM   15  C   UNL     1      43.893 -18.464   3.268  1.00  0.00     0.016 A 
HETATM   16  C   UNL     1      43.690 -20.423   1.811  1.00  0.00     0.015 A 
HETATM   17  C   UNL     1      44.279 -17.918   4.490  1.00  0.00     0.038 A 
HETATM   18  C   UNL     1      43.879 -21.786   1.617  1.00  0.00     0.020 A 
HETATM   19  C   UNL     1      44.436 -22.515   2.649  1.00  0.00     0.117 A 
ENDBRANCH   9  10
ENDBRANCH   8   9
ENDBRANCH   7   8
ENDBRANCH   6   7
ENDBRANCH   5   6
ENDBRANCH   2   5
BRANCH   1  20
HETATM   20  C   UNL     1      41.041 -15.585   2.952  1.00  0.00     0.102 A 
HETATM   21  N   UNL     1      40.913 -16.098   1.679  1.00  0.00    -0.351 N 
HETATM   22  C   UNL     1      41.195 -15.148   0.728  1.00  0.00     0.045 A 
HETATM   23  H   UNL     1      40.638 -17.054   1.490  1.00  0.00     0.166 HD
HETATM   24  C   UNL     1      41.171 -15.234  -0.673  1.00  0.00     0.067 A 
HETATM   25  C   UNL     1      41.540 -13.985   1.409  1.00  0.00    -0.007 A 
HETATM   26  C   UNL     1      41.513 -14.089  -1.400  1.00  0.00     0.070 A 
HETATM   27  C   UNL     1      41.878 -12.916  -0.734  1.00  0.00     0.038 A 
HETATM   28  C   UNL     1      41.895 -12.846   0.665  1.00  0.00     0.016 A 
HETATM   29  C   UNL     1      41.435 -14.266   2.802  1.00  0.00     0.049 A 
BRANCH  26  30
HETATM   30  O   UNL     1      41.536 -13.993  -2.767  1.00  0.00    -0.356 OA
HETATM   31  C   UNL     1      40.337 -14.330  -3.453  1.00  0.00     0.210 C 
ENDBRANCH  26  30
ENDBRANCH   1  20
TORSDOF 8
ENDMDL
MODEL 9
REMARK VINA RESULT:      -8.0      5.427      9.898
REMARK  8 active torsions:
REMARK  status: ('A' for Active; 'I' for Inactive)
REMARK    1  A    between atoms: O_2  and  C_3 
REMARK    2  A    between atoms: C_11  and  C_12 
REMARK       I    between atoms: C_12  and  N_13 
REMARK    3  A    between atoms: N_13  and  C_14 
REMARK    4  A    between atoms: C_14  and  C_15 
REMARK    5  A    between atoms: C_15  and  C_16 
REMARK    6  A    between atoms: C_16  and  C_17 
REMARK    7  A    between atoms: C_17  and  O_18 
REMARK    8  A    between atoms: O_18  and  C_19 
ROOT
HETATM    1  C   UNL     1      43.315 -17.537   1.664  1.00  0.00     0.268 C 
HETATM    2  N   UNL     1      42.934 -18.650   2.368  1.00  0.00    -0.345 N 
HETATM    3  O   UNL     1      44.487 -17.301   1.386  1.00  0.00    -0.266 OA
HETATM    4  H   UNL     1      41.972 -18.765   2.650  1.00  0.00     0.163 HD
ENDROOT
BRANCH   2   5
HETATM    5  C   UNL     1      43.917 -19.546   2.913  1.00  0.00     0.217 C 
BRANCH   5   6
HETATM    6  C   UNL     1      44.347 -19.065   4.288  1.00  0.00    -0.085 C 
BRANCH   6   7
HETATM    7  C   UNL     1      44.718 -18.653   5.469  1.00  0.00    -0.078 C 
BRANCH   7   8
HETATM    8  C   UNL     1      45.151 -18.172   6.843  1.00  0.00     0.269 C 
BRANCH   8   9
HETATM    9  O   UNL     1      44.019 -17.601   7.495  1.00  0.00    -0.339 OA
BRANCH   9  10
HETATM   10  C   UNL     1      43.442 -16.513   6.898  1.00  0.00     0.072 A 
HETATM   11  C   UNL     1      42.122 -16.420   6.451  1.00  0.00     0.069 A 
HETATM   12  C   UNL     1      41.635 -15.266   5.850  1.00  0.00     0.069 A 
HETATM   13  C   UNL     1      42.504 -14.165   5.695  1.00  0.00    -0.007 A 
HETATM   14  N   UNL     1      40.355 -15.232   5.435  1.00  0.00    -0.260 NA
HETATM   15  C   UNL     1      43.830 -14.248   6.144  1.00  0.00     0.016 A 
HETATM   16  C   UNL     1      42.001 -13.007   5.088  1.00  0.00     0.015 A 
HETATM   17  C   UNL     1      44.293 -15.419   6.742  1.00  0.00     0.038 A 
HETATM   18  C   UNL     1      40.681 -12.972   4.658  1.00  0.00     0.020 A 
HETATM   19  C   UNL     1      39.906 -14.099   4.853  1.00  0.00     0.117 A 
ENDBRANCH   9  10
ENDBRANCH   8   9
ENDBRANCH   7   8
ENDBRANCH   6   7
ENDBRANCH   5   6
ENDBRANCH   2   5
BRANCH   1  20
HETATM   20  C   UNL     1      42.244 -16.653   1.263  1.00  0.00     0.102 A 
HETATM   21  N   UNL     1      42.143 -16.211  -0.039  1.00  0.00    -0.351 N 
HETATM   22  C   UNL     1      41.051 -15.395  -0.204  1.00  0.00     0.045 A 
HETATM   23  H   UNL     1      42.796 -16.473  -0.767  1.00  0.00     0.166 HD
HETATM   24  C   UNL     1      40.568 -14.750  -1.355  1.00  0.00     0.067 A 
HETATM   25  C   UNL     1      40.436 -15.285   1.039  1.00  0.00    -0.007 A 
HETATM   26  C   UNL     1      39.417 -13.966  -1.224  1.00  0.00     0.070 A 
HETATM   27  C   UNL     1      38.795 -13.830   0.018  1.00  0.00     0.038 A 
HETATM   28  C   UNL     1      39.288 -14.482   1.157  1.00  0.00     0.016 A 
HETATM   29  C   UNL     1      41.187 -16.081   1.951  1.00  0.00     0.049 A 
BRANCH  26  30
HETATM   30  O   UNL     1      38.807 -13.275  -2.240  1.00  0.00    -0.356 OA
HETATM   31  C   UNL     1      38.367 -14.035  -3.358  1.00  0.00     0.210 C 
ENDBRANCH  26  30
ENDBRANCH   1  20
TORSDOF 8
ENDMDL
MODEL 10
REMARK VINA RESULT:      -7.8      4.577      5.561
REMARK  8 active torsions:
REMARK  status: ('A' for Active; 'I' for Inactive)
REMARK    1  A    between atoms: O_2  and  C_3 
REMARK    2  A    between atoms: C_11  and  C_12 
REMARK       I    between atoms: C_12  and  N_13 
REMARK    3  A    between atoms: N_13  and  C_14 
REMARK    4  A    between atoms: C_14  and  C_15 
REMARK    5  A    between atoms: C_15  and  C_16 
REMARK    6  A    between atoms: C_16  and  C_17 
REMARK    7  A    between atoms: C_17  and  O_18 
REMARK    8  A    between atoms: O_18  and  C_19 
ROOT
HETATM    1  C   UNL     1      45.133 -12.604   8.719  1.00  0.00     0.268 C 
HETATM    2  N   UNL     1      44.275 -13.502   8.137  1.00  0.00    -0.345 N 
HETATM    3  O   UNL     1      46.280 -12.434   8.317  1.00  0.00    -0.266 OA
HETATM    4  H   UNL     1      43.370 -13.675   8.548  1.00  0.00     0.163 HD
ENDROOT
BRANCH   2   5
HETATM    5  C   UNL     1      44.724 -14.370   7.084  1.00  0.00     0.217 C 
BRANCH   5   6
HETATM    6  C   UNL     1      44.006 -14.027   5.790  1.00  0.00    -0.085 C 
BRANCH   6   7
HETATM    7  C   UNL     1      43.390 -13.730   4.679  1.00  0.00    -0.078 C 
BRANCH   7   8
HETATM    8  C   UNL     1      42.671 -13.385   3.386  1.00  0.00     0.269 C 
BRANCH   8   9
HETATM    9  O   UNL     1      42.040 -14.566   2.896  1.00  0.00    -0.339 OA
BRANCH   9  10
HETATM   10  C   UNL     1      41.080 -14.403   1.935  1.00  0.00     0.072 A 
HETATM   11  C   UNL     1      41.245 -14.602   0.562  1.00  0.00     0.069 A 
HETATM   12  C   UNL     1      40.202 -14.403  -0.334  1.00  0.00     0.069 A 
HETATM   13  C   UNL     1      38.949 -13.992   0.166  1.00  0.00    -0.007 A 
HETATM   14  N   UNL     1      40.418 -14.606  -1.647  1.00  0.00    -0.260 NA
HETATM   15  C   UNL     1      38.773 -13.793   1.544  1.00  0.00     0.016 A 
HETATM   16  C   UNL     1      37.906 -13.794  -0.747  1.00  0.00     0.015 A 
HETATM   17  C   UNL     1      39.837 -13.999   2.420  1.00  0.00     0.038 A 
HETATM   18  C   UNL     1      38.127 -14.003  -2.102  1.00  0.00     0.020 A 
HETATM   19  C   UNL     1      39.388 -14.405  -2.498  1.00  0.00     0.117 A 
ENDBRANCH   9  10
ENDBRANCH   8   9
ENDBRANCH   7   8
ENDBRANCH   6   7
ENDBRANCH   5   6
ENDBRANCH   2   5
BRANCH   1  20
HETATM   20  C   UNL     1      44.600 -11.866   9.841  1.00  0.00     0.102 A 
HETATM   21  N   UNL     1      43.583 -12.388  10.612  1.00  0.00    -0.351 N 
HETATM   22  C   UNL     1      43.238 -11.531  11.628  1.00  0.00     0.045 A 
HETATM   23  H   UNL     1      43.165 -13.293  10.439  1.00  0.00     0.166 HD
HETATM   24  C   UNL     1      42.279 -11.671  12.643  1.00  0.00     0.067 A 
HETATM   25  C   UNL     1      44.042 -10.404  11.497  1.00  0.00    -0.007 A 
HETATM   26  C   UNL     1      42.139 -10.618  13.554  1.00  0.00     0.070 A 
HETATM   27  C   UNL     1      42.926  -9.471  13.429  1.00  0.00     0.038 A 
HETATM   28  C   UNL     1      43.881  -9.348  12.411  1.00  0.00     0.016 A 
HETATM   29  C   UNL     1      44.896 -10.625  10.378  1.00  0.00     0.049 A 
BRANCH  26  30
HETATM   30  O   UNL     1      41.261 -10.590  14.607  1.00  0.00    -0.356 OA
HETATM   31  C   UNL     1      41.535  -9.657  15.644  1.00  0.00     0.210 C 
ENDBRANCH  26  30
ENDBRANCH   1  20
TORSDOF 8
ENDMDL
