MODEL 1
REMARK VINA RESULT:      -9.1      0.000      0.000
REMARK  3 active torsions:
REMARK  status: ('A' for Active; 'I' for Inactive)
REMARK    1  A    between atoms: C_5  and  C_6 
REMARK    2  A    between atoms: C_11  and  C_12 
REMARK    3  A    between atoms: C_23  and  O_24 
ROOT
HETATM    1  C   UNL     1      41.512 -14.168  -0.105  1.00  0.00     0.031 C 
HETATM    2  C   UNL     1      40.349 -14.521   0.461  1.00  0.00     0.066 A 
HETATM    3  C   UNL     1      38.987 -14.028   0.140  1.00  0.00     0.274 A 
HETATM    4  O   UNL     1      38.614 -13.291  -0.750  1.00  0.00    -0.266 OA
HETATM    5  N   UNL     1      38.208 -14.593   1.138  1.00  0.00    -0.242 N 
HETATM    6  C   UNL     1      40.133 -15.411   1.634  1.00  0.00     0.111 A 
HETATM    7  N   UNL     1      38.877 -15.404   2.023  1.00  0.00    -0.170 NA
HETATM    8  H   UNL     1      37.206 -14.454   1.204  1.00  0.00     0.192 HD
ENDROOT
BRANCH   6   9
HETATM    9  C   UNL     1      41.195 -16.182   2.315  1.00  0.00     0.098 C 
HETATM   10  C   UNL     1      41.920 -15.653   3.502  1.00  0.00     0.263 C 
HETATM   11  O   UNL     1      41.727 -14.489   3.854  1.00  0.00    -0.267 OA
HETATM   12  N   UNL     1      42.791 -16.508   4.169  1.00  0.00    -0.317 N 
HETATM   13  C   UNL     1      43.430 -16.027   5.384  1.00  0.00     0.159 C 
HETATM   14  C   UNL     1      43.136 -17.789   3.645  1.00  0.00     0.050 A 
HETATM   15  C   UNL     1      42.535 -18.225   2.451  1.00  0.00     0.025 A 
HETATM   16  C   UNL     1      44.079 -18.617   4.275  1.00  0.00     0.031 A 
HETATM   17  C   UNL     1      42.897 -19.471   1.911  1.00  0.00     0.016 A 
HETATM   18  C   UNL     1      41.530 -17.376   1.794  1.00  0.00     0.096 C 
HETATM   19  C   UNL     1      43.839 -20.281   2.545  1.00  0.00     0.001 A 
HETATM   20  C   UNL     1      44.428 -19.854   3.728  1.00  0.00     0.002 A 
BRANCH  18  21
HETATM   21  O   UNL     1      40.973 -17.908   0.641  1.00  0.00    -0.359 OA
HETATM   22  H   UNL     1      40.846 -17.187  -0.011  1.00  0.00     0.218 HD
ENDBRANCH  18  21
ENDBRANCH   6   9
BRANCH   1  23
HETATM   23  C   UNL     1      41.701 -13.303  -1.275  1.00  0.00    -0.035 A 
HETATM   24  C   UNL     1      42.228 -12.019  -1.101  1.00  0.00     0.012 A 
HETATM   25  C   UNL     1      42.494 -11.204  -2.207  1.00  0.00     0.007 A 
HETATM   26  C   UNL     1      42.235 -11.662  -3.503  1.00  0.00    -0.062 A 
HETATM   27  C   UNL     1      42.550 -10.811  -4.698  1.00  0.00     0.048 C 
HETATM   28  C   UNL     1      41.726 -12.953  -3.677  1.00  0.00     0.007 A 
HETATM   29  C   UNL     1      41.465 -13.768  -2.572  1.00  0.00     0.012 A 
ENDBRANCH   1  23
TORSDOF 3
ENDMDL
MODEL 2
REMARK VINA RESULT:      -8.9      1.699      7.535
REMARK  3 active torsions:
REMARK  status: ('A' for Active; 'I' for Inactive)
REMARK    1  A    between atoms: C_5  and  C_6 
REMARK    2  A    between atoms: C_11  and  C_12 
REMARK    3  A    between atoms: C_23  and  O_24 
ROOT
HETATM    1  C   UNL     1      42.542 -16.519   1.506  1.00  0.00     0.031 C 
HETATM    2  C   UNL     1      41.555 -15.804   2.066  1.00  0.00     0.066 A 
HETATM    3  C   UNL     1      40.778 -16.119   3.291  1.00  0.00     0.274 A 
HETATM    4  O   UNL     1      40.922 -17.015   4.097  1.00  0.00    -0.266 OA
HETATM    5  N   UNL     1      39.794 -15.142   3.295  1.00  0.00    -0.242 N 
HETATM    6  C   UNL     1      40.905 -14.571   1.545  1.00  0.00     0.111 A 
HETATM    7  N   UNL     1      39.860 -14.232   2.268  1.00  0.00    -0.170 NA
HETATM    8  H   UNL     1      39.087 -15.071   4.018  1.00  0.00     0.192 HD
ENDROOT
BRANCH   6   9
HETATM    9  C   UNL     1      41.341 -13.832   0.342  1.00  0.00     0.098 C 
HETATM   10  C   UNL     1      41.141 -14.366  -1.032  1.00  0.00     0.263 C 
HETATM   11  O   UNL     1      40.719 -15.514  -1.174  1.00  0.00    -0.267 OA
HETATM   12  N   UNL     1      41.441 -13.535  -2.105  1.00  0.00    -0.317 N 
HETATM   13  C   UNL     1      41.159 -14.018  -3.449  1.00  0.00     0.159 C 
HETATM   14  C   UNL     1      42.095 -12.280  -1.925  1.00  0.00     0.050 A 
HETATM   15  C   UNL     1      42.392 -11.843  -0.623  1.00  0.00     0.025 A 
HETATM   16  C   UNL     1      42.473 -11.479  -3.016  1.00  0.00     0.031 A 
HETATM   17  C   UNL     1      43.067 -10.624  -0.441  1.00  0.00     0.016 A 
HETATM   18  C   UNL     1      41.982 -12.663   0.527  1.00  0.00     0.096 C 
HETATM   19  C   UNL     1      43.442  -9.841  -1.533  1.00  0.00     0.001 A 
HETATM   20  C   UNL     1      43.142 -10.269  -2.820  1.00  0.00     0.002 A 
BRANCH  18  21
HETATM   21  O   UNL     1      42.291 -12.131   1.769  1.00  0.00    -0.359 OA
HETATM   22  H   UNL     1      42.643 -11.223   1.646  1.00  0.00     0.218 HD
ENDBRANCH  18  21
ENDBRANCH   6   9
BRANCH   1  23
HETATM   23  C   UNL     1      43.181 -17.723   2.048  1.00  0.00    -0.035 A 
HETATM   24  C   UNL     1      43.905 -17.638   3.242  1.00  0.00     0.012 A 
HETATM   25  C   UNL     1      44.455 -18.785   3.823  1.00  0.00     0.007 A 
HETATM   26  C   UNL     1      44.290 -20.035   3.216  1.00  0.00    -0.062 A 
HETATM   27  C   UNL     1      44.844 -21.277   3.849  1.00  0.00     0.048 C 
HETATM   28  C   UNL     1      43.550 -20.122   2.033  1.00  0.00     0.007 A 
HETATM   29  C   UNL     1      42.997 -18.976   1.456  1.00  0.00     0.012 A 
ENDBRANCH   1  23
TORSDOF 3
ENDMDL
MODEL 3
REMARK VINA RESULT:      -8.6      0.750      2.603
REMARK  3 active torsions:
REMARK  status: ('A' for Active; 'I' for Inactive)
REMARK    1  A    between atoms: C_5  and  C_6 
REMARK    2  A    between atoms: C_11  and  C_12 
REMARK    3  A    between atoms: C_23  and  O_24 
ROOT
HETATM    1  C   UNL     1      41.572 -14.125   0.069  1.00  0.00     0.031 C 
HETATM    2  C   UNL     1      40.356 -14.455   0.529  1.00  0.00     0.066 A 
HETATM    3  C   UNL     1      39.037 -13.945   0.078  1.00  0.00     0.274 A 
HETATM    4  O   UNL     1      38.760 -13.213  -0.849  1.00  0.00    -0.266 OA
HETATM    5  N   UNL     1      38.161 -14.488   1.005  1.00  0.00    -0.242 N 
HETATM    6  C   UNL     1      40.019 -15.328   1.686  1.00  0.00     0.111 A 
HETATM    7  N   UNL     1      38.733 -15.298   1.957  1.00  0.00    -0.170 NA
HETATM    8  H   UNL     1      37.160 -14.333   0.977  1.00  0.00     0.192 HD
ENDROOT
BRANCH   6   9
HETATM    9  C   UNL     1      41.002 -16.107   2.469  1.00  0.00     0.098 C 
HETATM   10  C   UNL     1      41.520 -17.422   2.006  1.00  0.00     0.263 C 
HETATM   11  O   UNL     1      41.025 -17.945   1.008  1.00  0.00    -0.267 OA
HETATM   12  N   UNL     1      42.553 -18.007   2.730  1.00  0.00    -0.317 N 
HETATM   13  C   UNL     1      43.127 -19.247   2.228  1.00  0.00     0.159 C 
HETATM   14  C   UNL     1      42.991 -17.477   3.980  1.00  0.00     0.050 A 
HETATM   15  C   UNL     1      42.402 -16.298   4.467  1.00  0.00     0.025 A 
HETATM   16  C   UNL     1      43.977 -18.116   4.750  1.00  0.00     0.031 A 
HETATM   17  C   UNL     1      42.804 -15.790   5.714  1.00  0.00     0.016 A 
HETATM   18  C   UNL     1      41.384 -15.609   3.660  1.00  0.00     0.096 C 
HETATM   19  C   UNL     1      43.781 -16.437   6.471  1.00  0.00     0.001 A 
HETATM   20  C   UNL     1      44.368 -17.599   5.987  1.00  0.00     0.002 A 
BRANCH  18  21
HETATM   21  O   UNL     1      40.889 -14.437   4.211  1.00  0.00    -0.359 OA
HETATM   22  H   UNL     1      40.224 -14.056   3.599  1.00  0.00     0.218 HD
ENDBRANCH  18  21
ENDBRANCH   6   9
BRANCH   1  23
HETATM   23  C   UNL     1      41.881 -13.276  -1.087  1.00  0.00    -0.035 A 
HETATM   24  C   UNL     1      41.713 -13.786  -2.379  1.00  0.00     0.012 A 
HETATM   25  C   UNL     1      41.922 -12.972  -3.497  1.00  0.00     0.007 A 
HETATM   26  C   UNL     1      42.303 -11.635  -3.339  1.00  0.00    -0.062 A 
HETATM   27  C   UNL     1      42.495 -10.743  -4.530  1.00  0.00     0.048 C 
HETATM   28  C   UNL     1      42.452 -11.121  -2.047  1.00  0.00     0.007 A 
HETATM   29  C   UNL     1      42.239 -11.934  -0.931  1.00  0.00     0.012 A 
ENDBRANCH   1  23
TORSDOF 3
ENDMDL
MODEL 4
REMARK VINA RESULT:      -8.3      3.173      4.113
REMARK  3 active torsions:
REMARK  status: ('A' for Active; 'I' for Inactive)
REMARK    1  A    between atoms: C_5  and  C_6 
REMARK    2  A    between atoms: C_11  and  C_12 
REMARK    3  A    between atoms: C_23  and  O_24 
ROOT
HETATM    1  C   UNL     1      40.471 -14.891   2.418  1.00  0.00     0.031 C 
HETATM    2  C   UNL     1      41.397 -15.508   1.668  1.00  0.00     0.066 A 
HETATM    3  C   UNL     1      41.436 -15.645   0.190  1.00  0.00     0.274 A 
HETATM    4  O   UNL     1      40.716 -15.158  -0.657  1.00  0.00    -0.266 OA
HETATM    5  N   UNL     1      42.500 -16.510  -0.013  1.00  0.00    -0.242 N 
HETATM    6  C   UNL     1      42.561 -16.313   2.127  1.00  0.00     0.111 A 
HETATM    7  N   UNL     1      43.163 -16.911   1.122  1.00  0.00    -0.170 NA
HETATM    8  H   UNL     1      42.801 -16.810  -0.934  1.00  0.00     0.192 HD
ENDROOT
BRANCH   6   9
HETATM    9  C   UNL     1      42.978 -16.466   3.537  1.00  0.00     0.098 C 
HETATM   10  C   UNL     1      43.392 -15.305   4.370  1.00  0.00     0.263 C 
HETATM   11  O   UNL     1      43.520 -14.201   3.841  1.00  0.00    -0.267 OA
HETATM   12  N   UNL     1      43.619 -15.522   5.724  1.00  0.00    -0.317 N 
HETATM   13  C   UNL     1      43.933 -14.374   6.562  1.00  0.00     0.159 C 
HETATM   14  C   UNL     1      43.641 -16.835   6.283  1.00  0.00     0.050 A 
HETATM   15  C   UNL     1      43.370 -17.937   5.453  1.00  0.00     0.025 A 
HETATM   16  C   UNL     1      43.952 -17.060   7.634  1.00  0.00     0.031 A 
HETATM   17  C   UNL     1      43.424 -19.235   5.989  1.00  0.00     0.016 A 
HETATM   18  C   UNL     1      43.021 -17.713   4.042  1.00  0.00     0.096 C 
HETATM   19  C   UNL     1      43.739 -19.444   7.332  1.00  0.00     0.001 A 
HETATM   20  C   UNL     1      44.001 -18.355   8.154  1.00  0.00     0.002 A 
BRANCH  18  21
HETATM   21  O   UNL     1      42.739 -18.859   3.316  1.00  0.00    -0.359 OA
HETATM   22  H   UNL     1      42.181 -18.617   2.546  1.00  0.00     0.218 HD
ENDBRANCH  18  21
ENDBRANCH   6   9
BRANCH   1  23
HETATM   23  C   UNL     1      39.340 -14.086   1.943  1.00  0.00    -0.035 A 
HETATM   24  C   UNL     1      39.405 -12.691   2.034  1.00  0.00     0.012 A 
HETATM   25  C   UNL     1      38.376 -11.897   1.515  1.00  0.00     0.007 A 
HETATM   26  C   UNL     1      37.268 -12.487   0.898  1.00  0.00    -0.062 A 
HETATM   27  C   UNL     1      36.177 -11.645   0.306  1.00  0.00     0.048 C 
HETATM   28  C   UNL     1      37.214 -13.881   0.791  1.00  0.00     0.007 A 
HETATM   29  C   UNL     1      38.244 -14.673   1.305  1.00  0.00     0.012 A 
ENDBRANCH   1  23
TORSDOF 3
ENDMDL
MODEL 5
REMARK VINA RESULT:      -8.3      2.176      7.277
REMARK  3 active torsions:
REMARK  status: ('A' for Active; 'I' for Inactive)
REMARK    1  A    between atoms: C_5  and  C_6 
REMARK    2  A    between atoms: C_11  and  C_12 
REMARK    3  A    between atoms: C_23  and  O_24 
ROOT
HETATM    1  C   UNL     1      42.110 -17.267   2.267  1.00  0.00     0.031 C 
HETATM    2  C   UNL     1      41.584 -16.606   3.309  1.00  0.00     0.066 A 
HETATM    3  C   UNL     1      41.507 -17.042   4.726  1.00  0.00     0.274 A 
HETATM    4  O   UNL     1      41.978 -18.020   5.267  1.00  0.00    -0.266 OA
HETATM    5  N   UNL     1      40.722 -16.060   5.310  1.00  0.00    -0.242 N 
HETATM    6  C   UNL     1      40.839 -15.318   3.296  1.00  0.00     0.111 A 
HETATM    7  N   UNL     1      40.321 -15.046   4.474  1.00  0.00    -0.170 NA
HETATM    8  H   UNL     1      40.478 -16.059   6.294  1.00  0.00     0.192 HD
ENDROOT
BRANCH   6   9
HETATM    9  C   UNL     1      40.660 -14.459   2.106  1.00  0.00     0.098 C 
HETATM   10  C   UNL     1      41.670 -13.444   1.703  1.00  0.00     0.263 C 
HETATM   11  O   UNL     1      42.622 -13.215   2.448  1.00  0.00    -0.267 OA
HETATM   12  N   UNL     1      41.490 -12.792   0.488  1.00  0.00    -0.317 N 
HETATM   13  C   UNL     1      42.523 -11.867   0.045  1.00  0.00     0.159 C 
HETATM   14  C   UNL     1      40.293 -12.938  -0.275  1.00  0.00     0.050 A 
HETATM   15  C   UNL     1      39.290 -13.809   0.185  1.00  0.00     0.025 A 
HETATM   16  C   UNL     1      40.078 -12.215  -1.460  1.00  0.00     0.031 A 
HETATM   17  C   UNL     1      38.095 -13.930  -0.544  1.00  0.00     0.016 A 
HETATM   18  C   UNL     1      39.513 -14.587   1.412  1.00  0.00     0.096 C 
HETATM   19  C   UNL     1      37.892 -13.203  -1.717  1.00  0.00     0.001 A 
HETATM   20  C   UNL     1      38.885 -12.347  -2.175  1.00  0.00     0.002 A 
BRANCH  18  21
HETATM   21  O   UNL     1      38.480 -15.442   1.764  1.00  0.00    -0.359 OA
HETATM   22  H   UNL     1      38.205 -15.243   2.685  1.00  0.00     0.218 HD
ENDBRANCH  18  21
ENDBRANCH   6   9
BRANCH   1  23
HETATM   23  C   UNL     1      42.857 -18.529   2.305  1.00  0.00    -0.035 A 
HETATM   24  C   UNL     1      44.040 -18.604   3.048  1.00  0.00     0.012 A 
HETATM   25  C   UNL     1      44.728 -19.816   3.168  1.00  0.00     0.007 A 
HETATM   26  C   UNL     1      44.243 -20.971   2.545  1.00  0.00    -0.062 A 
HETATM   27  C   UNL     1      44.953 -22.284   2.697  1.00  0.00     0.048 C 
HETATM   28  C   UNL     1      43.050 -20.899   1.819  1.00  0.00     0.007 A 
HETATM   29  C   UNL     1      42.361 -19.689   1.703  1.00  0.00     0.012 A 
ENDBRANCH   1  23
TORSDOF 3
ENDMDL
MODEL 6
REMARK VINA RESULT:      -7.9      3.815      7.369
REMARK  3 active torsions:
REMARK  status: ('A' for Active; 'I' for Inactive)
REMARK    1  A    between atoms: C_5  and  C_6 
REMARK    2  A    between atoms: C_11  and  C_12 
REMARK    3  A    between atoms: C_23  and  O_24 
ROOT
HETATM    1  C   UNL     1      41.794 -15.568   3.686  1.00  0.00     0.031 C 
HETATM    2  C   UNL     1      40.624 -15.378   3.059  1.00  0.00     0.066 A 
HETATM    3  C   UNL     1      39.965 -16.259   2.063  1.00  0.00     0.274 A 
HETATM    4  O   UNL     1      40.275 -17.367   1.675  1.00  0.00    -0.266 OA
HETATM    5  N   UNL     1      38.891 -15.494   1.634  1.00  0.00    -0.242 N 
HETATM    6  C   UNL     1      39.739 -14.183   3.112  1.00  0.00     0.111 A 
HETATM    7  N   UNL     1      38.755 -14.270   2.243  1.00  0.00    -0.170 NA
HETATM    8  H   UNL     1      38.224 -15.817   0.942  1.00  0.00     0.192 HD
ENDROOT
BRANCH   6   9
HETATM    9  C   UNL     1      39.948 -13.017   3.996  1.00  0.00     0.098 C 
HETATM   10  C   UNL     1      40.534 -11.743   3.500  1.00  0.00     0.263 C 
HETATM   11  O   UNL     1      40.981 -11.694   2.354  1.00  0.00    -0.267 OA
HETATM   12  N   UNL     1      40.550 -10.653   4.362  1.00  0.00    -0.317 N 
HETATM   13  C   UNL     1      41.036  -9.379   3.852  1.00  0.00     0.159 C 
HETATM   14  C   UNL     1      40.193 -10.776   5.738  1.00  0.00     0.050 A 
HETATM   15  C   UNL     1      39.758 -12.022   6.224  1.00  0.00     0.025 A 
HETATM   16  C   UNL     1      40.289  -9.693   6.628  1.00  0.00     0.031 A 
HETATM   17  C   UNL     1      39.439 -12.159   7.585  1.00  0.00     0.016 A 
HETATM   18  C   UNL     1      39.633 -13.157   5.297  1.00  0.00     0.096 C 
HETATM   19  C   UNL     1      39.543 -11.076   8.459  1.00  0.00     0.001 A 
HETATM   20  C   UNL     1      39.966  -9.844   7.979  1.00  0.00     0.002 A 
BRANCH  18  21
HETATM   21  O   UNL     1      39.166 -14.332   5.865  1.00  0.00    -0.359 OA
HETATM   22  H   UNL     1      38.473 -14.111   6.523  1.00  0.00     0.218 HD
ENDBRANCH  18  21
ENDBRANCH   6   9
BRANCH   1  23
HETATM   23  C   UNL     1      42.643 -16.764   3.633  1.00  0.00    -0.035 A 
HETATM   24  C   UNL     1      42.546 -17.720   4.650  1.00  0.00     0.012 A 
HETATM   25  C   UNL     1      43.283 -18.907   4.582  1.00  0.00     0.007 A 
HETATM   26  C   UNL     1      44.130 -19.154   3.497  1.00  0.00    -0.062 A 
HETATM   27  C   UNL     1      44.898 -20.439   3.395  1.00  0.00     0.048 C 
HETATM   28  C   UNL     1      44.212 -18.206   2.471  1.00  0.00     0.007 A 
HETATM   29  C   UNL     1      43.472 -17.023   2.538  1.00  0.00     0.012 A 
ENDBRANCH   1  23
TORSDOF 3
ENDMDL
MODEL 7
REMARK VINA RESULT:      -7.8      2.668      7.822
REMARK  3 active torsions:
REMARK  status: ('A' for Active; 'I' for Inactive)
REMARK    1  A    between atoms: C_5  and  C_6 
REMARK    2  A    between atoms: C_11  and  C_12 
REMARK    3  A    between atoms: C_23  and  O_24 
ROOT
HETATM    1  C   UNL     1      42.780 -16.968   4.083  1.00  0.00     0.031 C 
HETATM    2  C   UNL     1      42.800 -15.858   4.835  1.00  0.00     0.066 A 
HETATM    3  C   UNL     1      43.367 -15.683   6.196  1.00  0.00     0.274 A 
HETATM    4  O   UNL     1      44.011 -16.454   6.877  1.00  0.00    -0.266 OA
HETATM    5  N   UNL     1      42.954 -14.406   6.542  1.00  0.00    -0.242 N 
HETATM    6  C   UNL     1      42.159 -14.546   4.550  1.00  0.00     0.111 A 
HETATM    7  N   UNL     1      42.239 -13.733   5.581  1.00  0.00    -0.170 NA
HETATM    8  H   UNL     1      43.185 -13.971   7.429  1.00  0.00     0.192 HD
ENDROOT
BRANCH   6   9
HETATM    9  C   UNL     1      41.477 -14.197   3.285  1.00  0.00     0.098 C 
HETATM   10  C   UNL     1      42.182 -13.512   2.168  1.00  0.00     0.263 C 
HETATM   11  O   UNL     1      43.330 -13.104   2.343  1.00  0.00    -0.267 OA
HETATM   12  N   UNL     1      41.504 -13.363   0.963  1.00  0.00    -0.317 N 
HETATM   13  C   UNL     1      42.221 -12.779  -0.161  1.00  0.00     0.159 C 
HETATM   14  C   UNL     1      40.119 -13.679   0.835  1.00  0.00     0.050 A 
HETATM   15  C   UNL     1      39.433 -14.211   1.940  1.00  0.00     0.025 A 
HETATM   16  C   UNL     1      39.415 -13.451  -0.359  1.00  0.00     0.031 A 
HETATM   17  C   UNL     1      38.060 -14.492   1.830  1.00  0.00     0.016 A 
HETATM   18  C   UNL     1      40.164 -14.475   3.189  1.00  0.00     0.096 C 
HETATM   19  C   UNL     1      37.372 -14.255   0.640  1.00  0.00     0.001 A 
HETATM   20  C   UNL     1      38.051 -13.736  -0.455  1.00  0.00     0.002 A 
BRANCH  18  21
HETATM   21  O   UNL     1      39.406 -15.030   4.209  1.00  0.00    -0.359 OA
HETATM   22  H   UNL     1      39.138 -15.936   3.946  1.00  0.00     0.218 HD
ENDBRANCH  18  21
ENDBRANCH   6   9
BRANCH   1  23
HETATM   23  C   UNL     1      43.436 -18.248   4.375  1.00  0.00    -0.035 A 
HETATM   24  C   UNL     1      43.200 -18.875   5.604  1.00  0.00     0.012 A 
HETATM   25  C   UNL     1      43.747 -20.133   5.876  1.00  0.00     0.007 A 
HETATM   26  C   UNL     1      44.539 -20.783   4.922  1.00  0.00    -0.062 A 
HETATM   27  C   UNL     1      45.100 -22.148   5.189  1.00  0.00     0.048 C 
HETATM   28  C   UNL     1      44.757 -20.164   3.687  1.00  0.00     0.007 A 
HETATM   29  C   UNL     1      44.207 -18.909   3.415  1.00  0.00     0.012 A 
ENDBRANCH   1  23
TORSDOF 3
ENDMDL
MODEL 8
REMARK VINA RESULT:      -7.8      2.231      7.760
REMARK  3 active torsions:
REMARK  status: ('A' for Active; 'I' for Inactive)
REMARK    1  A    between atoms: C_5  and  C_6 
REMARK    2  A    between atoms: C_11  and  C_12 
REMARK    3  A    between atoms: C_23  and  O_24 
ROOT
HETATM    1  C   UNL     1      42.139 -15.347   1.286  1.00  0.00     0.031 C 
HETATM    2  C   UNL     1      42.171 -14.155   1.901  1.00  0.00     0.066 A 
HETATM    3  C   UNL     1      42.599 -13.852   3.289  1.00  0.00     0.274 A 
HETATM    4  O   UNL     1      43.098 -14.574   4.127  1.00  0.00    -0.266 OA
HETATM    5  N   UNL     1      42.261 -12.514   3.433  1.00  0.00    -0.242 N 
HETATM    6  C   UNL     1      41.678 -12.847   1.391  1.00  0.00     0.111 A 
HETATM    7  N   UNL     1      41.714 -11.919   2.322  1.00  0.00    -0.170 NA
HETATM    8  H   UNL     1      42.430 -11.990   4.284  1.00  0.00     0.192 HD
ENDROOT
BRANCH   6   9
HETATM    9  C   UNL     1      41.169 -12.612   0.023  1.00  0.00     0.098 C 
HETATM   10  C   UNL     1      39.844 -13.119  -0.427  1.00  0.00     0.263 C 
HETATM   11  O   UNL     1      39.205 -13.866   0.313  1.00  0.00    -0.267 OA
HETATM   12  N   UNL     1      39.383 -12.719  -1.676  1.00  0.00    -0.317 N 
HETATM   13  C   UNL     1      38.048 -13.134  -2.081  1.00  0.00     0.159 C 
HETATM   14  C   UNL     1      40.211 -12.002  -2.590  1.00  0.00     0.050 A 
HETATM   15  C   UNL     1      41.510 -11.637  -2.196  1.00  0.00     0.025 A 
HETATM   16  C   UNL     1      39.772 -11.670  -3.883  1.00  0.00     0.031 A 
HETATM   17  C   UNL     1      42.343 -10.962  -3.104  1.00  0.00     0.016 A 
HETATM   18  C   UNL     1      41.972 -11.959  -0.837  1.00  0.00     0.096 C 
HETATM   19  C   UNL     1      41.896 -10.644  -4.387  1.00  0.00     0.001 A 
HETATM   20  C   UNL     1      40.610 -10.997  -4.774  1.00  0.00     0.002 A 
BRANCH  18  21
HETATM   21  O   UNL     1      43.255 -11.530  -0.534  1.00  0.00    -0.359 OA
HETATM   22  H   UNL     1      43.874 -12.283  -0.643  1.00  0.00     0.218 HD
ENDBRANCH  18  21
ENDBRANCH   6   9
BRANCH   1  23
HETATM   23  C   UNL     1      42.648 -16.623   1.802  1.00  0.00    -0.035 A 
HETATM   24  C   UNL     1      43.877 -17.107   1.342  1.00  0.00     0.012 A 
HETATM   25  C   UNL     1      44.424 -18.279   1.877  1.00  0.00     0.007 A 
HETATM   26  C   UNL     1      43.748 -18.983   2.879  1.00  0.00    -0.062 A 
HETATM   27  C   UNL     1      44.342 -20.220   3.485  1.00  0.00     0.048 C 
HETATM   28  C   UNL     1      42.529 -18.487   3.351  1.00  0.00     0.007 A 
HETATM   29  C   UNL     1      41.985 -17.315   2.820  1.00  0.00     0.012 A 
ENDBRANCH   1  23
TORSDOF 3
ENDMDL
MODEL 9
REMARK VINA RESULT:      -7.7      3.565      7.238
REMARK  3 active torsions:
REMARK  status: ('A' for Active; 'I' for Inactive)
REMARK    1  A    between atoms: C_5  and  C_6 
REMARK    2  A    between atoms: C_11  and  C_12 
REMARK    3  A    between atoms: C_23  and  O_24 
ROOT
HETATM    1  C   UNL     1      41.956 -15.347   3.187  1.00  0.00     0.031 C 
HETATM    2  C   UNL     1      40.686 -15.184   2.787  1.00  0.00     0.066 A 
HETATM    3  C   UNL     1      39.821 -16.152   2.068  1.00  0.00     0.274 A 
HETATM    4  O   UNL     1      40.025 -17.312   1.775  1.00  0.00    -0.266 OA
HETATM    5  N   UNL     1      38.697 -15.399   1.766  1.00  0.00    -0.242 N 
HETATM    6  C   UNL     1      39.853 -13.953   2.859  1.00  0.00     0.111 A 
HETATM    7  N   UNL     1      38.711 -14.103   2.224  1.00  0.00    -0.170 NA
HETATM    8  H   UNL     1      37.896 -15.774   1.270  1.00  0.00     0.192 HD
ENDROOT
BRANCH   6   9
HETATM    9  C   UNL     1      40.259 -12.696   3.523  1.00  0.00     0.098 C 
HETATM   10  C   UNL     1      40.517 -12.621   4.986  1.00  0.00     0.263 C 
HETATM   11  O   UNL     1      40.260 -13.596   5.692  1.00  0.00    -0.267 OA
HETATM   12  N   UNL     1      41.043 -11.439   5.495  1.00  0.00    -0.317 N 
HETATM   13  C   UNL     1      41.385 -11.391   6.909  1.00  0.00     0.159 C 
HETATM   14  C   UNL     1      41.166 -10.264   4.696  1.00  0.00     0.050 A 
HETATM   15  C   UNL     1      40.799 -10.316   3.340  1.00  0.00     0.025 A 
HETATM   16  C   UNL     1      41.620  -9.047   5.233  1.00  0.00     0.031 A 
HETATM   17  C   UNL     1      40.885  -9.153   2.556  1.00  0.00     0.016 A 
HETATM   18  C   UNL     1      40.344 -11.590   2.762  1.00  0.00     0.096 C 
HETATM   19  C   UNL     1      41.332  -7.951   3.103  1.00  0.00     0.001 A 
HETATM   20  C   UNL     1      41.701  -7.899   4.441  1.00  0.00     0.002 A 
BRANCH  18  21
HETATM   21  O   UNL     1      40.037 -11.546   1.410  1.00  0.00    -0.359 OA
HETATM   22  H   UNL     1      40.009 -12.463   1.063  1.00  0.00     0.218 HD
ENDBRANCH  18  21
ENDBRANCH   6   9
BRANCH   1  23
HETATM   23  C   UNL     1      42.754 -16.577   3.123  1.00  0.00    -0.035 A 
HETATM   24  C   UNL     1      42.694 -17.489   4.182  1.00  0.00     0.012 A 
HETATM   25  C   UNL     1      43.380 -18.706   4.111  1.00  0.00     0.007 A 
HETATM   26  C   UNL     1      44.137 -19.028   2.979  1.00  0.00    -0.062 A 
HETATM   27  C   UNL     1      44.847 -20.345   2.876  1.00  0.00     0.048 C 
HETATM   28  C   UNL     1      44.180 -18.123   1.913  1.00  0.00     0.007 A 
HETATM   29  C   UNL     1      43.491 -16.909   1.983  1.00  0.00     0.012 A 
ENDBRANCH   1  23
TORSDOF 3
ENDMDL
MODEL 10
REMARK VINA RESULT:      -7.6      2.032      7.406
REMARK  3 active torsions:
REMARK  status: ('A' for Active; 'I' for Inactive)
REMARK    1  A    between atoms: C_5  and  C_6 
REMARK    2  A    between atoms: C_11  and  C_12 
REMARK    3  A    between atoms: C_23  and  O_24 
ROOT
HETATM    1  C   UNL     1      42.025 -17.154   2.337  1.00  0.00     0.031 C 
HETATM    2  C   UNL     1      41.509 -16.507   3.392  1.00  0.00     0.066 A 
HETATM    3  C   UNL     1      41.451 -16.958   4.805  1.00  0.00     0.274 A 
HETATM    4  O   UNL     1      41.933 -17.941   5.330  1.00  0.00    -0.266 OA
HETATM    5  N   UNL     1      40.668 -15.987   5.410  1.00  0.00    -0.242 N 
HETATM    6  C   UNL     1      40.759 -15.222   3.403  1.00  0.00     0.111 A 
HETATM    7  N   UNL     1      40.253 -14.966   4.590  1.00  0.00    -0.170 NA
HETATM    8  H   UNL     1      40.437 -15.999   6.397  1.00  0.00     0.192 HD
ENDROOT
BRANCH   6   9
HETATM    9  C   UNL     1      40.561 -14.350   2.225  1.00  0.00     0.098 C 
HETATM   10  C   UNL     1      39.309 -14.379   1.421  1.00  0.00     0.263 C 
HETATM   11  O   UNL     1      38.463 -15.241   1.657  1.00  0.00    -0.267 OA
HETATM   12  N   UNL     1      39.150 -13.418   0.428  1.00  0.00    -0.317 N 
HETATM   13  C   UNL     1      37.890 -13.382  -0.298  1.00  0.00     0.159 C 
HETATM   14  C   UNL     1      40.213 -12.544   0.050  1.00  0.00     0.050 A 
HETATM   15  C   UNL     1      41.436 -12.614   0.739  1.00  0.00     0.025 A 
HETATM   16  C   UNL     1      40.078 -11.630  -1.009  1.00  0.00     0.031 A 
HETATM   17  C   UNL     1      42.497 -11.780   0.348  1.00  0.00     0.016 A 
HETATM   18  C   UNL     1      41.581 -13.551   1.863  1.00  0.00     0.096 C 
HETATM   19  C   UNL     1      42.351 -10.881  -0.708  1.00  0.00     0.001 A 
HETATM   20  C   UNL     1      41.141 -10.806  -1.385  1.00  0.00     0.002 A 
BRANCH  18  21
HETATM   21  O   UNL     1      42.813 -13.523   2.498  1.00  0.00    -0.359 OA
HETATM   22  H   UNL     1      42.749 -12.943   3.287  1.00  0.00     0.218 HD
ENDBRANCH  18  21
ENDBRANCH   6   9
BRANCH   1  23
HETATM   23  C   UNL     1      42.779 -18.413   2.352  1.00  0.00    -0.035 A 
HETATM   24  C   UNL     1      43.968 -18.492   3.084  1.00  0.00     0.012 A 
HETATM   25  C   UNL     1      44.663 -19.702   3.182  1.00  0.00     0.007 A 
HETATM   26  C   UNL     1      44.178 -20.851   2.547  1.00  0.00    -0.062 A 
HETATM   27  C   UNL     1      44.895 -22.162   2.676  1.00  0.00     0.048 C 
HETATM   28  C   UNL     1      42.979 -20.775   1.832  1.00  0.00     0.007 A 
HETATM   29  C   UNL     1      42.283 -19.567   1.738  1.00  0.00     0.012 A 
ENDBRANCH   1  23
TORSDOF 3
ENDMDL
