MODEL 1
REMARK VINA RESULT:      -7.6      0.000      0.000
REMARK  7 active torsions:
REMARK  status: ('A' for Active; 'I' for Inactive)
REMARK    1  A    between atoms: O_2  and  C_3 
REMARK    2  A    between atoms: C_4  and  O_5 
REMARK    3  A    between atoms: C_6  and  C_7 
REMARK    4  A    between atoms: C_7  and  N_8 
REMARK    5  A    between atoms: C_11  and  C_12 
REMARK    6  A    between atoms: C_12  and  N_13 
REMARK    7  A    between atoms: N_13  and  C_14 
ROOT
HETATM    1  N   UNL     1      42.014 -16.718   1.756  1.00  0.00    -0.067 N 
HETATM    2  H   UNL     1      42.068 -17.662   1.325  1.00  0.00     0.280 HD
HETATM    3  C   UNL     1      41.881 -15.700   0.650  1.00  0.00     0.241 C 
HETATM    4  C   UNL     1      40.867 -14.704   1.199  1.00  0.00     0.031 C 
HETATM    5  C   UNL     1      39.879 -15.629   1.905  1.00  0.00     0.035 C 
HETATM    6  C   UNL     1      40.772 -16.640   2.613  1.00  0.00     0.235 C 
ENDROOT
BRANCH   1   7
HETATM    7  C   UNL     1      43.297 -16.641   2.550  1.00  0.00     0.276 C 
BRANCH   7   8
HETATM    8  C   UNL     1      43.699 -17.946   3.173  1.00  0.00     0.005 A 
HETATM    9  C   UNL     1      44.002 -18.035   4.536  1.00  0.00     0.107 A 
HETATM   10  C   UNL     1      44.440 -19.227   5.130  1.00  0.00     0.103 A 
HETATM   11  C   UNL     1      44.553 -20.371   4.345  1.00  0.00     0.058 A 
HETATM   12  C   UNL     1      44.245 -20.302   2.984  1.00  0.00     0.014 A 
HETATM   13  C   UNL     1      43.833 -19.103   2.395  1.00  0.00     0.030 A 
HETATM   14 BR   UNL     1      44.384 -21.855   1.913  1.00  0.00    -0.051 Br
BRANCH   9  15
HETATM   15  O   UNL     1      43.849 -16.912   5.316  1.00  0.00    -0.357 OA
HETATM   16  H   UNL     1      42.897 -16.673   5.212  1.00  0.00     0.218 HD
ENDBRANCH   9  15
BRANCH  10  17
HETATM   17  O   UNL     1      44.708 -19.133   6.470  1.00  0.00    -0.353 OA
HETATM   18  C   UNL     1      43.791 -19.784   7.349  1.00  0.00     0.210 C 
ENDBRANCH  10  17
ENDBRANCH   7   8
ENDBRANCH   1   7
BRANCH   4  19
HETATM   19  C   UNL     1      40.242 -13.832   0.105  1.00  0.00     0.127 C 
BRANCH  19  20
HETATM   20  N   UNL     1      40.760 -14.217  -1.212  1.00  0.00    -0.376 N 
HETATM   21  H   UNL     1      41.683 -14.641  -1.191  1.00  0.00     0.161 HD
BRANCH  20  22
HETATM   22  C   UNL     1      39.894 -14.696  -2.185  1.00  0.00     0.100 A 
HETATM   23  N   UNL     1      38.608 -14.297  -2.148  1.00  0.00    -0.353 N 
HETATM   24  H   UNL     1      38.323 -13.661  -1.409  1.00  0.00     0.166 HD
HETATM   25  C   UNL     1      37.673 -14.702  -3.021  1.00  0.00     0.089 A 
HETATM   26  C   UNL     1      38.000 -15.594  -4.029  1.00  0.00     0.017 A 
HETATM   27  C   UNL     1      39.302 -16.064  -4.102  1.00  0.00     0.005 A 
HETATM   28  C   UNL     1      40.249 -15.621  -3.177  1.00  0.00     0.048 A 
ENDBRANCH  20  22
ENDBRANCH  19  20
ENDBRANCH   4  19
TORSDOF 7
ENDMDL
MODEL 2
REMARK VINA RESULT:      -7.5      2.064      2.721
REMARK  7 active torsions:
REMARK  status: ('A' for Active; 'I' for Inactive)
REMARK    1  A    between atoms: O_2  and  C_3 
REMARK    2  A    between atoms: C_4  and  O_5 
REMARK    3  A    between atoms: C_6  and  C_7 
REMARK    4  A    between atoms: C_7  and  N_8 
REMARK    5  A    between atoms: C_11  and  C_12 
REMARK    6  A    between atoms: C_12  and  N_13 
REMARK    7  A    between atoms: N_13  and  C_14 
ROOT
HETATM    1  N   UNL     1      41.858 -16.718   1.754  1.00  0.00    -0.067 N 
HETATM    2  H   UNL     1      41.571 -17.701   1.933  1.00  0.00     0.280 HD
HETATM    3  C   UNL     1      41.852 -16.489   0.263  1.00  0.00     0.241 C 
HETATM    4  C   UNL     1      41.264 -15.090   0.116  1.00  0.00     0.031 C 
HETATM    5  C   UNL     1      40.174 -15.102   1.186  1.00  0.00     0.035 C 
HETATM    6  C   UNL     1      40.839 -15.789   2.372  1.00  0.00     0.235 C 
ENDROOT
BRANCH   1   7
HETATM    7  C   UNL     1      43.216 -16.641   2.411  1.00  0.00     0.276 C 
BRANCH   7   8
HETATM    8  C   UNL     1      43.636 -17.921   3.075  1.00  0.00     0.005 A 
HETATM    9  C   UNL     1      43.938 -17.963   4.440  1.00  0.00     0.107 A 
HETATM   10  C   UNL     1      44.393 -19.130   5.071  1.00  0.00     0.103 A 
HETATM   11  C   UNL     1      44.524 -20.296   4.322  1.00  0.00     0.058 A 
HETATM   12  C   UNL     1      44.218 -20.273   2.959  1.00  0.00     0.014 A 
HETATM   13  C   UNL     1      43.788 -19.099   2.333  1.00  0.00     0.030 A 
HETATM   14 BR   UNL     1      44.381 -21.856   1.937  1.00  0.00    -0.051 Br
BRANCH   9  15
HETATM   15  O   UNL     1      43.767 -16.819   5.185  1.00  0.00    -0.357 OA
HETATM   16  H   UNL     1      44.211 -17.020   6.042  1.00  0.00     0.218 HD
ENDBRANCH   9  15
BRANCH  10  17
HETATM   17  O   UNL     1      44.658 -18.990   6.408  1.00  0.00    -0.353 OA
HETATM   18  C   UNL     1      43.783 -19.675   7.303  1.00  0.00     0.210 C 
ENDBRANCH  10  17
ENDBRANCH   7   8
ENDBRANCH   1   7
BRANCH   4  19
HETATM   19  C   UNL     1      40.753 -14.808  -1.301  1.00  0.00     0.127 C 
BRANCH  19  20
HETATM   20  N   UNL     1      41.872 -14.480  -2.190  1.00  0.00    -0.376 N 
HETATM   21  H   UNL     1      42.028 -15.155  -2.934  1.00  0.00     0.161 HD
BRANCH  20  22
HETATM   22  C   UNL     1      42.140 -13.155  -2.508  1.00  0.00     0.100 A 
HETATM   23  N   UNL     1      42.013 -12.768  -3.792  1.00  0.00    -0.353 N 
HETATM   24  H   UNL     1      41.728 -13.461  -4.476  1.00  0.00     0.166 HD
HETATM   25  C   UNL     1      42.257 -11.522  -4.225  1.00  0.00     0.089 A 
HETATM   26  C   UNL     1      42.681 -10.546  -3.339  1.00  0.00     0.017 A 
HETATM   27  C   UNL     1      42.857 -10.891  -2.007  1.00  0.00     0.005 A 
HETATM   28  C   UNL     1      42.593 -12.196  -1.591  1.00  0.00     0.048 A 
ENDBRANCH  20  22
ENDBRANCH  19  20
ENDBRANCH   4  19
TORSDOF 7
ENDMDL
MODEL 3
REMARK VINA RESULT:      -7.4      1.865      2.371
REMARK  7 active torsions:
REMARK  status: ('A' for Active; 'I' for Inactive)
REMARK    1  A    between atoms: O_2  and  C_3 
REMARK    2  A    between atoms: C_4  and  O_5 
REMARK    3  A    between atoms: C_6  and  C_7 
REMARK    4  A    between atoms: C_7  and  N_8 
REMARK    5  A    between atoms: C_11  and  C_12 
REMARK    6  A    between atoms: C_12  and  N_13 
REMARK    7  A    between atoms: N_13  and  C_14 
ROOT
HETATM    1  N   UNL     1      42.069 -16.683   2.251  1.00  0.00    -0.067 N 
HETATM    2  H   UNL     1      42.117 -17.694   2.012  1.00  0.00     0.280 HD
HETATM    3  C   UNL     1      42.415 -15.889   1.016  1.00  0.00     0.241 C 
HETATM    4  C   UNL     1      41.433 -14.724   1.050  1.00  0.00     0.031 C 
HETATM    5  C   UNL     1      40.160 -15.412   1.540  1.00  0.00     0.035 C 
HETATM    6  C   UNL     1      40.652 -16.339   2.644  1.00  0.00     0.235 C 
ENDROOT
BRANCH   1   7
HETATM    7  C   UNL     1      43.054 -16.563   3.390  1.00  0.00     0.276 C 
BRANCH   7   8
HETATM    8  C   UNL     1      43.564 -17.885   3.888  1.00  0.00     0.005 A 
HETATM    9  C   UNL     1      44.095 -18.833   3.007  1.00  0.00     0.107 A 
HETATM   10  C   UNL     1      44.520 -20.098   3.436  1.00  0.00     0.103 A 
HETATM   11  C   UNL     1      44.438 -20.415   4.789  1.00  0.00     0.058 A 
HETATM   12  C   UNL     1      43.919 -19.476   5.684  1.00  0.00     0.014 A 
HETATM   13  C   UNL     1      43.474 -18.226   5.243  1.00  0.00     0.030 A 
HETATM   14 BR   UNL     1      43.816 -19.895   7.525  1.00  0.00    -0.051 Br
BRANCH   9  15
HETATM   15  O   UNL     1      44.213 -18.499   1.677  1.00  0.00    -0.357 OA
HETATM   16  H   UNL     1      44.906 -19.112   1.335  1.00  0.00     0.218 HD
ENDBRANCH   9  15
BRANCH  10  17
HETATM   17  O   UNL     1      44.997 -20.909   2.440  1.00  0.00    -0.353 OA
HETATM   18  C   UNL     1      44.113 -21.924   1.968  1.00  0.00     0.210 C 
ENDBRANCH  10  17
ENDBRANCH   7   8
ENDBRANCH   1   7
BRANCH   4  19
HETATM   19  C   UNL     1      41.290 -14.029  -0.308  1.00  0.00     0.127 C 
BRANCH  19  20
HETATM   20  N   UNL     1      41.341 -15.014  -1.393  1.00  0.00    -0.376 N 
HETATM   21  H   UNL     1      41.846 -15.865  -1.162  1.00  0.00     0.161 HD
BRANCH  20  22
HETATM   22  C   UNL     1      40.255 -15.165  -2.244  1.00  0.00     0.100 A 
HETATM   23  N   UNL     1      39.135 -14.465  -1.980  1.00  0.00    -0.353 N 
HETATM   24  H   UNL     1      39.130 -13.855  -1.168  1.00  0.00     0.166 HD
HETATM   25  C   UNL     1      38.016 -14.536  -2.717  1.00  0.00     0.089 A 
HETATM   26  C   UNL     1      37.958 -15.377  -3.816  1.00  0.00     0.017 A 
HETATM   27  C   UNL     1      39.070 -16.145  -4.122  1.00  0.00     0.005 A 
HETATM   28  C   UNL     1      40.217 -16.045  -3.334  1.00  0.00     0.048 A 
ENDBRANCH  20  22
ENDBRANCH  19  20
ENDBRANCH   4  19
TORSDOF 7
ENDMDL
MODEL 4
REMARK VINA RESULT:      -7.4      3.856      7.966
REMARK  7 active torsions:
REMARK  status: ('A' for Active; 'I' for Inactive)
REMARK    1  A    between atoms: O_2  and  C_3 
REMARK    2  A    between atoms: C_4  and  O_5 
REMARK    3  A    between atoms: C_6  and  C_7 
REMARK    4  A    between atoms: C_7  and  N_8 
REMARK    5  A    between atoms: C_11  and  C_12 
REMARK    6  A    between atoms: C_12  and  N_13 
REMARK    7  A    between atoms: N_13  and  C_14 
ROOT
HETATM    1  N   UNL     1      41.933 -14.434   3.316  1.00  0.00    -0.067 N 
HETATM    2  H   UNL     1      42.514 -13.597   3.110  1.00  0.00     0.280 HD
HETATM    3  C   UNL     1      42.792 -15.661   3.141  1.00  0.00     0.241 C 
HETATM    4  C   UNL     1      42.377 -16.560   4.299  1.00  0.00     0.031 C 
HETATM    5  C   UNL     1      42.205 -15.545   5.427  1.00  0.00     0.035 C 
HETATM    6  C   UNL     1      41.488 -14.379   4.759  1.00  0.00     0.235 C 
ENDROOT
BRANCH   1   7
HETATM    7  C   UNL     1      40.795 -14.299   2.332  1.00  0.00     0.276 C 
BRANCH   7   8
HETATM    8  C   UNL     1      41.239 -13.941   0.943  1.00  0.00     0.005 A 
HETATM    9  C   UNL     1      41.991 -12.787   0.699  1.00  0.00     0.107 A 
HETATM   10  C   UNL     1      42.364 -12.397  -0.595  1.00  0.00     0.103 A 
HETATM   11  C   UNL     1      42.001 -13.198  -1.674  1.00  0.00     0.058 A 
HETATM   12  C   UNL     1      41.258 -14.359  -1.447  1.00  0.00     0.014 A 
HETATM   13  C   UNL     1      40.868 -14.728  -0.155  1.00  0.00     0.030 A 
HETATM   14 BR   UNL     1      40.771 -15.459  -2.906  1.00  0.00    -0.051 Br
BRANCH   9  15
HETATM   15  O   UNL     1      42.383 -12.021   1.772  1.00  0.00    -0.357 OA
HETATM   16  H   UNL     1      41.705 -11.307   1.820  1.00  0.00     0.218 HD
ENDBRANCH   9  15
BRANCH  10  17
HETATM   17  O   UNL     1      43.084 -11.233  -0.656  1.00  0.00    -0.353 OA
HETATM   18  C   UNL     1      43.113 -10.568  -1.918  1.00  0.00     0.210 C 
ENDBRANCH  10  17
ENDBRANCH   7   8
ENDBRANCH   1   7
BRANCH   4  19
HETATM   19  C   UNL     1      43.402 -17.660   4.593  1.00  0.00     0.127 C 
BRANCH  19  20
HETATM   20  N   UNL     1      43.969 -18.175   3.342  1.00  0.00    -0.376 N 
HETATM   21  H   UNL     1      44.724 -17.612   2.961  1.00  0.00     0.161 HD
BRANCH  20  22
HETATM   22  C   UNL     1      44.073 -19.545   3.141  1.00  0.00     0.100 A 
HETATM   23  N   UNL     1      44.652 -20.290   4.102  1.00  0.00    -0.353 N 
HETATM   24  H   UNL     1      44.991 -19.819   4.935  1.00  0.00     0.166 HD
HETATM   25  C   UNL     1      44.825 -21.618   4.019  1.00  0.00     0.089 A 
HETATM   26  C   UNL     1      44.411 -22.304   2.889  1.00  0.00     0.017 A 
HETATM   27  C   UNL     1      43.833 -21.589   1.852  1.00  0.00     0.005 A 
HETATM   28  C   UNL     1      43.669 -20.208   1.974  1.00  0.00     0.048 A 
ENDBRANCH  20  22
ENDBRANCH  19  20
ENDBRANCH   4  19
TORSDOF 7
ENDMDL
MODEL 5
REMARK VINA RESULT:      -7.3      4.696      8.366
REMARK  7 active torsions:
REMARK  status: ('A' for Active; 'I' for Inactive)
REMARK    1  A    between atoms: O_2  and  C_3 
REMARK    2  A    between atoms: C_4  and  O_5 
REMARK    3  A    between atoms: C_6  and  C_7 
REMARK    4  A    between atoms: C_7  and  N_8 
REMARK    5  A    between atoms: C_11  and  C_12 
REMARK    6  A    between atoms: C_12  and  N_13 
REMARK    7  A    between atoms: N_13  and  C_14 
ROOT
HETATM    1  N   UNL     1      42.074 -15.964   5.220  1.00  0.00    -0.067 N 
HETATM    2  H   UNL     1      42.130 -15.611   4.244  1.00  0.00     0.280 HD
HETATM    3  C   UNL     1      42.160 -17.469   5.184  1.00  0.00     0.241 C 
HETATM    4  C   UNL     1      43.050 -17.808   6.374  1.00  0.00     0.031 C 
HETATM    5  C   UNL     1      44.088 -16.691   6.308  1.00  0.00     0.035 C 
HETATM    6  C   UNL     1      43.264 -15.448   5.997  1.00  0.00     0.235 C 
ENDROOT
BRANCH   1   7
HETATM    7  C   UNL     1      40.756 -15.406   5.702  1.00  0.00     0.276 C 
BRANCH   7   8
HETATM    8  C   UNL     1      40.175 -14.362   4.792  1.00  0.00     0.005 A 
HETATM    9  C   UNL     1      39.852 -14.659   3.464  1.00  0.00     0.107 A 
HETATM   10  C   UNL     1      39.368 -13.688   2.576  1.00  0.00     0.103 A 
HETATM   11  C   UNL     1      39.173 -12.389   3.036  1.00  0.00     0.058 A 
HETATM   12  C   UNL     1      39.482 -12.077   4.363  1.00  0.00     0.014 A 
HETATM   13  C   UNL     1      39.988 -13.047   5.234  1.00  0.00     0.030 A 
HETATM   14 BR   UNL     1      39.210 -10.317   4.998  1.00  0.00    -0.051 Br
BRANCH   9  15
HETATM   15  O   UNL     1      40.006 -15.954   3.026  1.00  0.00    -0.357 OA
HETATM   16  H   UNL     1      39.792 -15.911   2.064  1.00  0.00     0.218 HD
ENDBRANCH   9  15
BRANCH  10  17
HETATM   17  O   UNL     1      39.118 -14.146   1.309  1.00  0.00    -0.353 OA
HETATM   18  C   UNL     1      37.754 -14.146   0.890  1.00  0.00     0.210 C 
ENDBRANCH  10  17
ENDBRANCH   7   8
ENDBRANCH   1   7
BRANCH   4  19
HETATM   19  C   UNL     1      43.638 -19.221   6.291  1.00  0.00     0.127 C 
BRANCH  19  20
HETATM   20  N   UNL     1      44.633 -19.296   5.216  1.00  0.00    -0.376 N 
HETATM   21  H   UNL     1      45.596 -19.237   5.532  1.00  0.00     0.161 HD
BRANCH  20  22
HETATM   22  C   UNL     1      44.405 -20.113   4.117  1.00  0.00     0.100 A 
HETATM   23  N   UNL     1      44.738 -21.415   4.208  1.00  0.00    -0.353 N 
HETATM   24  H   UNL     1      45.143 -21.747   5.078  1.00  0.00     0.166 HD
HETATM   25  C   UNL     1      44.580 -22.300   3.212  1.00  0.00     0.089 A 
HETATM   26  C   UNL     1      44.062 -21.893   1.994  1.00  0.00     0.017 A 
HETATM   27  C   UNL     1      43.726 -20.558   1.828  1.00  0.00     0.005 A 
HETATM   28  C   UNL     1      43.903 -19.666   2.886  1.00  0.00     0.048 A 
ENDBRANCH  20  22
ENDBRANCH  19  20
ENDBRANCH   4  19
TORSDOF 7
ENDMDL
MODEL 6
REMARK VINA RESULT:      -7.3      5.005      8.285
REMARK  7 active torsions:
REMARK  status: ('A' for Active; 'I' for Inactive)
REMARK    1  A    between atoms: O_2  and  C_3 
REMARK    2  A    between atoms: C_4  and  O_5 
REMARK    3  A    between atoms: C_6  and  C_7 
REMARK    4  A    between atoms: C_7  and  N_8 
REMARK    5  A    between atoms: C_11  and  C_12 
REMARK    6  A    between atoms: C_12  and  N_13 
REMARK    7  A    between atoms: N_13  and  C_14 
ROOT
HETATM    1  N   UNL     1      41.666 -16.374   5.014  1.00  0.00    -0.067 N 
HETATM    2  H   UNL     1      41.435 -16.257   4.008  1.00  0.00     0.280 HD
HETATM    3  C   UNL     1      41.786 -17.850   5.302  1.00  0.00     0.241 C 
HETATM    4  C   UNL     1      42.983 -17.937   6.242  1.00  0.00     0.031 C 
HETATM    5  C   UNL     1      43.925 -16.900   5.635  1.00  0.00     0.035 C 
HETATM    6  C   UNL     1      43.007 -15.735   5.288  1.00  0.00     0.235 C 
ENDROOT
BRANCH   1   7
HETATM    7  C   UNL     1      40.516 -15.677   5.703  1.00  0.00     0.276 C 
BRANCH   7   8
HETATM    8  C   UNL     1      40.065 -14.426   5.005  1.00  0.00     0.005 A 
HETATM    9  C   UNL     1      39.695 -13.288   5.728  1.00  0.00     0.107 A 
HETATM   10  C   UNL     1      39.211 -12.129   5.103  1.00  0.00     0.103 A 
HETATM   11  C   UNL     1      39.121 -12.097   3.715  1.00  0.00     0.058 A 
HETATM   12  C   UNL     1      39.496 -13.222   2.977  1.00  0.00     0.014 A 
HETATM   13  C   UNL     1      39.954 -14.382   3.609  1.00  0.00     0.030 A 
HETATM   14 BR   UNL     1      39.389 -13.182   1.089  1.00  0.00    -0.051 Br
BRANCH   9  15
HETATM   15  O   UNL     1      39.825 -13.309   7.097  1.00  0.00    -0.357 OA
HETATM   16  H   UNL     1      40.350 -14.125   7.277  1.00  0.00     0.218 HD
ENDBRANCH   9  15
BRANCH  10  17
HETATM   17  O   UNL     1      38.878 -11.114   5.962  1.00  0.00    -0.353 OA
HETATM   18  C   UNL     1      39.037  -9.785   5.466  1.00  0.00     0.210 C 
ENDBRANCH  10  17
ENDBRANCH   7   8
ENDBRANCH   1   7
BRANCH   4  19
HETATM   19  C   UNL     1      43.570 -19.350   6.325  1.00  0.00     0.127 C 
BRANCH  19  20
HETATM   20  N   UNL     1      44.646 -19.513   5.342  1.00  0.00    -0.376 N 
HETATM   21  H   UNL     1      45.575 -19.592   5.747  1.00  0.00     0.161 HD
BRANCH  20  22
HETATM   22  C   UNL     1      44.423 -20.251   4.187  1.00  0.00     0.100 A 
HETATM   23  N   UNL     1      44.725 -21.564   4.199  1.00  0.00    -0.353 N 
HETATM   24  H   UNL     1      45.105 -21.961   5.053  1.00  0.00     0.166 HD
HETATM   25  C   UNL     1      44.570 -22.378   3.144  1.00  0.00     0.089 A 
HETATM   26  C   UNL     1      44.087 -21.879   1.945  1.00  0.00     0.017 A 
HETATM   27  C   UNL     1      43.785 -20.529   1.861  1.00  0.00     0.005 A 
HETATM   28  C   UNL     1      43.958 -19.712   2.979  1.00  0.00     0.048 A 
ENDBRANCH  20  22
ENDBRANCH  19  20
ENDBRANCH   4  19
TORSDOF 7
ENDMDL
MODEL 7
REMARK VINA RESULT:      -7.3      4.183      8.869
REMARK  7 active torsions:
REMARK  status: ('A' for Active; 'I' for Inactive)
REMARK    1  A    between atoms: O_2  and  C_3 
REMARK    2  A    between atoms: C_4  and  O_5 
REMARK    3  A    between atoms: C_6  and  C_7 
REMARK    4  A    between atoms: C_7  and  N_8 
REMARK    5  A    between atoms: C_11  and  C_12 
REMARK    6  A    between atoms: C_12  and  N_13 
REMARK    7  A    between atoms: N_13  and  C_14 
ROOT
HETATM    1  N   UNL     1      40.346 -15.656   0.742  1.00  0.00    -0.067 N 
HETATM    2  H   UNL     1      39.420 -15.958   0.380  1.00  0.00     0.280 HD
HETATM    3  C   UNL     1      40.518 -16.221   2.131  1.00  0.00     0.241 C 
HETATM    4  C   UNL     1      41.977 -16.658   2.164  1.00  0.00     0.031 C 
HETATM    5  C   UNL     1      42.156 -17.234   0.761  1.00  0.00     0.035 C 
HETATM    6  C   UNL     1      41.429 -16.239  -0.135  1.00  0.00     0.235 C 
ENDROOT
BRANCH   1   7
HETATM    7  C   UNL     1      40.259 -14.149   0.667  1.00  0.00     0.276 C 
BRANCH   7   8
HETATM    8  C   UNL     1      40.025 -13.629  -0.722  1.00  0.00     0.005 A 
HETATM    9  C   UNL     1      38.807 -13.836  -1.377  1.00  0.00     0.107 A 
HETATM   10  C   UNL     1      38.585 -13.416  -2.696  1.00  0.00     0.103 A 
HETATM   11  C   UNL     1      39.599 -12.743  -3.371  1.00  0.00     0.058 A 
HETATM   12  C   UNL     1      40.819 -12.519  -2.727  1.00  0.00     0.014 A 
HETATM   13  C   UNL     1      41.041 -12.964  -1.420  1.00  0.00     0.030 A 
HETATM   14 BR   UNL     1      42.199 -11.595  -3.633  1.00  0.00    -0.051 Br
BRANCH   9  15
HETATM   15  O   UNL     1      37.793 -14.465  -0.692  1.00  0.00    -0.357 OA
HETATM   16  H   UNL     1      37.173 -14.763  -1.398  1.00  0.00     0.218 HD
ENDBRANCH   9  15
BRANCH  10  17
HETATM   17  O   UNL     1      37.342 -13.715  -3.189  1.00  0.00    -0.353 OA
HETATM   18  C   UNL     1      37.258 -14.845  -4.057  1.00  0.00     0.210 C 
ENDBRANCH  10  17
ENDBRANCH   7   8
ENDBRANCH   1   7
BRANCH   4  19
HETATM   19  C   UNL     1      42.274 -17.649   3.294  1.00  0.00     0.127 C 
BRANCH  19  20
HETATM   20  N   UNL     1      43.650 -18.145   3.189  1.00  0.00    -0.376 N 
HETATM   21  H   UNL     1      44.329 -17.612   3.724  1.00  0.00     0.161 HD
BRANCH  20  22
HETATM   22  C   UNL     1      43.889 -19.509   3.093  1.00  0.00     0.100 A 
HETATM   23  N   UNL     1      44.527 -20.119   4.110  1.00  0.00    -0.353 N 
HETATM   24  H   UNL     1      44.810 -19.556   4.906  1.00  0.00     0.166 HD
HETATM   25  C   UNL     1      44.829 -21.427   4.129  1.00  0.00     0.089 A 
HETATM   26  C   UNL     1      44.496 -22.234   3.054  1.00  0.00     0.017 A 
HETATM   27  C   UNL     1      43.862 -21.658   1.964  1.00  0.00     0.005 A 
HETATM   28  C   UNL     1      43.563 -20.295   1.979  1.00  0.00     0.048 A 
ENDBRANCH  20  22
ENDBRANCH  19  20
ENDBRANCH   4  19
TORSDOF 7
ENDMDL
MODEL 8
REMARK VINA RESULT:      -7.0      4.494      7.785
REMARK  7 active torsions:
REMARK  status: ('A' for Active; 'I' for Inactive)
REMARK    1  A    between atoms: O_2  and  C_3 
REMARK    2  A    between atoms: C_4  and  O_5 
REMARK    3  A    between atoms: C_6  and  C_7 
REMARK    4  A    between atoms: C_7  and  N_8 
REMARK    5  A    between atoms: C_11  and  C_12 
REMARK    6  A    between atoms: C_12  and  N_13 
REMARK    7  A    between atoms: N_13  and  C_14 
ROOT
HETATM    1  N   UNL     1      43.042 -15.035   6.424  1.00  0.00    -0.067 N 
HETATM    2  H   UNL     1      42.964 -14.412   7.253  1.00  0.00     0.280 HD
HETATM    3  C   UNL     1      43.828 -16.258   6.825  1.00  0.00     0.241 C 
HETATM    4  C   UNL     1      43.098 -17.400   6.128  1.00  0.00     0.031 C 
HETATM    5  C   UNL     1      41.640 -16.981   6.299  1.00  0.00     0.035 C 
HETATM    6  C   UNL     1      41.658 -15.485   6.017  1.00  0.00     0.235 C 
ENDROOT
BRANCH   1   7
HETATM    7  C   UNL     1      43.710 -14.147   5.401  1.00  0.00     0.276 C 
BRANCH   7   8
HETATM    8  C   UNL     1      43.163 -14.311   4.012  1.00  0.00     0.005 A 
HETATM    9  C   UNL     1      42.389 -13.310   3.417  1.00  0.00     0.107 A 
HETATM   10  C   UNL     1      41.814 -13.464   2.147  1.00  0.00     0.103 A 
HETATM   11  C   UNL     1      42.042 -14.641   1.440  1.00  0.00     0.058 A 
HETATM   12  C   UNL     1      42.821 -15.647   2.016  1.00  0.00     0.014 A 
HETATM   13  C   UNL     1      43.370 -15.496   3.293  1.00  0.00     0.030 A 
HETATM   14 BR   UNL     1      43.146 -17.244   1.057  1.00  0.00    -0.051 Br
BRANCH   9  15
HETATM   15  O   UNL     1      42.200 -12.132   4.102  1.00  0.00    -0.357 OA
HETATM   16  H   UNL     1      41.241 -11.934   3.984  1.00  0.00     0.218 HD
ENDBRANCH   9  15
BRANCH  10  17
HETATM   17  O   UNL     1      41.072 -12.393   1.722  1.00  0.00    -0.353 OA
HETATM   18  C   UNL     1      39.669 -12.609   1.578  1.00  0.00     0.210 C 
ENDBRANCH  10  17
ENDBRANCH   7   8
ENDBRANCH   1   7
BRANCH   4  19
HETATM   19  C   UNL     1      43.435 -18.771   6.725  1.00  0.00     0.127 C 
BRANCH  19  20
HETATM   20  N   UNL     1      44.652 -19.310   6.111  1.00  0.00    -0.376 N 
HETATM   21  H   UNL     1      45.402 -19.504   6.768  1.00  0.00     0.161 HD
BRANCH  20  22
HETATM   22  C   UNL     1      44.558 -20.171   5.026  1.00  0.00     0.100 A 
HETATM   23  N   UNL     1      44.740 -21.489   5.239  1.00  0.00    -0.353 N 
HETATM   24  H   UNL     1      44.941 -21.799   6.185  1.00  0.00     0.166 HD
HETATM   25  C   UNL     1      44.690 -22.418   4.272  1.00  0.00     0.089 A 
HETATM   26  C   UNL     1      44.453 -22.045   2.959  1.00  0.00     0.017 A 
HETATM   27  C   UNL     1      44.285 -20.699   2.672  1.00  0.00     0.005 A 
HETATM   28  C   UNL     1      44.344 -19.760   3.703  1.00  0.00     0.048 A 
ENDBRANCH  20  22
ENDBRANCH  19  20
ENDBRANCH   4  19
TORSDOF 7
ENDMDL
MODEL 9
REMARK VINA RESULT:      -6.9      4.141      8.606
REMARK  7 active torsions:
REMARK  status: ('A' for Active; 'I' for Inactive)
REMARK    1  A    between atoms: O_2  and  C_3 
REMARK    2  A    between atoms: C_4  and  O_5 
REMARK    3  A    between atoms: C_6  and  C_7 
REMARK    4  A    between atoms: C_7  and  N_8 
REMARK    5  A    between atoms: C_11  and  C_12 
REMARK    6  A    between atoms: C_12  and  N_13 
REMARK    7  A    between atoms: N_13  and  C_14 
ROOT
HETATM    1  N   UNL     1      41.791 -14.307   1.050  1.00  0.00    -0.067 N 
HETATM    2  H   UNL     1      42.213 -14.160   0.111  1.00  0.00     0.280 HD
HETATM    3  C   UNL     1      42.252 -15.646   1.570  1.00  0.00     0.241 C 
HETATM    4  C   UNL     1      42.524 -15.384   3.047  1.00  0.00     0.031 C 
HETATM    5  C   UNL     1      43.159 -13.996   2.999  1.00  0.00     0.035 C 
HETATM    6  C   UNL     1      42.304 -13.241   1.990  1.00  0.00     0.235 C 
ENDROOT
BRANCH   1   7
HETATM    7  C   UNL     1      40.311 -14.200   0.770  1.00  0.00     0.276 C 
BRANCH   7   8
HETATM    8  C   UNL     1      39.991 -13.814  -0.645  1.00  0.00     0.005 A 
HETATM    9  C   UNL     1      40.175 -14.714  -1.700  1.00  0.00     0.107 A 
HETATM   10  C   UNL     1      39.945 -14.359  -3.037  1.00  0.00     0.103 A 
HETATM   11  C   UNL     1      39.491 -13.076  -3.326  1.00  0.00     0.058 A 
HETATM   12  C   UNL     1      39.293 -12.166  -2.284  1.00  0.00     0.014 A 
HETATM   13  C   UNL     1      39.550 -12.521  -0.956  1.00  0.00     0.030 A 
HETATM   14 BR   UNL     1      38.665 -10.424  -2.668  1.00  0.00    -0.051 Br
BRANCH   9  15
HETATM   15  O   UNL     1      40.583 -15.995  -1.405  1.00  0.00    -0.357 OA
HETATM   16  H   UNL     1      41.528 -15.892  -1.140  1.00  0.00     0.218 HD
ENDBRANCH   9  15
BRANCH  10  17
HETATM   17  O   UNL     1      40.190 -15.357  -3.943  1.00  0.00    -0.353 OA
HETATM   18  C   UNL     1      39.064 -16.131  -4.357  1.00  0.00     0.210 C 
ENDBRANCH  10  17
ENDBRANCH   7   8
ENDBRANCH   1   7
BRANCH   4  19
HETATM   19  C   UNL     1      43.409 -16.459   3.686  1.00  0.00     0.127 C 
BRANCH  19  20
HETATM   20  N   UNL     1      42.667 -17.717   3.819  1.00  0.00    -0.376 N 
HETATM   21  H   UNL     1      41.666 -17.631   3.667  1.00  0.00     0.161 HD
BRANCH  20  22
HETATM   22  C   UNL     1      43.243 -18.909   3.401  1.00  0.00     0.100 A 
HETATM   23  N   UNL     1      44.138 -19.505   4.213  1.00  0.00    -0.353 N 
HETATM   24  H   UNL     1      44.357 -19.057   5.097  1.00  0.00     0.166 HD
HETATM   25  C   UNL     1      44.773 -20.649   3.915  1.00  0.00     0.089 A 
HETATM   26  C   UNL     1      44.537 -21.283   2.707  1.00  0.00     0.017 A 
HETATM   27  C   UNL     1      43.646 -20.704   1.817  1.00  0.00     0.005 A 
HETATM   28  C   UNL     1      43.003 -19.514   2.159  1.00  0.00     0.048 A 
ENDBRANCH  20  22
ENDBRANCH  19  20
ENDBRANCH   4  19
TORSDOF 7
ENDMDL
MODEL 10
REMARK VINA RESULT:      -6.8      5.854      8.626
REMARK  7 active torsions:
REMARK  status: ('A' for Active; 'I' for Inactive)
REMARK    1  A    between atoms: O_2  and  C_3 
REMARK    2  A    between atoms: C_4  and  O_5 
REMARK    3  A    between atoms: C_6  and  C_7 
REMARK    4  A    between atoms: C_7  and  N_8 
REMARK    5  A    between atoms: C_11  and  C_12 
REMARK    6  A    between atoms: C_12  and  N_13 
REMARK    7  A    between atoms: N_13  and  C_14 
ROOT
HETATM    1  N   UNL     1      40.855 -13.957   5.033  1.00  0.00    -0.067 N 
HETATM    2  H   UNL     1      41.373 -14.244   4.178  1.00  0.00     0.280 HD
HETATM    3  C   UNL     1      41.790 -13.160   5.907  1.00  0.00     0.241 C 
HETATM    4  C   UNL     1      40.913 -12.033   6.439  1.00  0.00     0.031 C 
HETATM    5  C   UNL     1      40.073 -11.694   5.210  1.00  0.00     0.035 C 
HETATM    6  C   UNL     1      39.710 -13.056   4.632  1.00  0.00     0.235 C 
ENDROOT
BRANCH   1   7
HETATM    7  C   UNL     1      40.404 -15.279   5.609  1.00  0.00     0.276 C 
BRANCH   7   8
HETATM    8  C   UNL     1      41.380 -16.398   5.385  1.00  0.00     0.005 A 
HETATM    9  C   UNL     1      41.563 -16.954   4.115  1.00  0.00     0.107 A 
HETATM   10  C   UNL     1      42.421 -18.040   3.889  1.00  0.00     0.103 A 
HETATM   11  C   UNL     1      43.139 -18.568   4.959  1.00  0.00     0.058 A 
HETATM   12  C   UNL     1      42.974 -18.018   6.233  1.00  0.00     0.014 A 
HETATM   13  C   UNL     1      42.098 -16.951   6.453  1.00  0.00     0.030 A 
HETATM   14 BR   UNL     1      43.955 -18.721   7.689  1.00  0.00    -0.051 Br
BRANCH   9  15
HETATM   15  O   UNL     1      40.884 -16.402   3.053  1.00  0.00    -0.357 OA
HETATM   16  H   UNL     1      41.287 -15.509   2.946  1.00  0.00     0.218 HD
ENDBRANCH   9  15
BRANCH  10  17
HETATM   17  O   UNL     1      42.469 -18.471   2.590  1.00  0.00    -0.353 OA
HETATM   18  C   UNL     1      43.480 -19.426   2.273  1.00  0.00     0.210 C 
ENDBRANCH  10  17
ENDBRANCH   7   8
ENDBRANCH   1   7
BRANCH   4  19
HETATM   19  C   UNL     1      41.728 -10.857   6.989  1.00  0.00     0.127 C 
BRANCH  19  20
HETATM   20  N   UNL     1      41.746 -10.891   8.455  1.00  0.00    -0.376 N 
HETATM   21  H   UNL     1      40.940 -11.347   8.873  1.00  0.00     0.161 HD
BRANCH  20  22
HETATM   22  C   UNL     1      42.949 -11.049   9.130  1.00  0.00     0.100 A 
HETATM   23  N   UNL     1      43.836 -11.944   8.654  1.00  0.00    -0.353 N 
HETATM   24  H   UNL     1      43.588 -12.469   7.822  1.00  0.00     0.166 HD
HETATM   25  C   UNL     1      45.024 -12.197   9.225  1.00  0.00     0.089 A 
HETATM   26  C   UNL     1      45.397 -11.532  10.381  1.00  0.00     0.017 A 
HETATM   27  C   UNL     1      44.514 -10.618  10.935  1.00  0.00     0.005 A 
HETATM   28  C   UNL     1      43.287 -10.380  10.315  1.00  0.00     0.048 A 
ENDBRANCH  20  22
ENDBRANCH  19  20
ENDBRANCH   4  19
TORSDOF 7
ENDMDL
