MODEL 1
REMARK VINA RESULT:      -7.8      0.000      0.000
REMARK  9 active torsions:
REMARK  status: ('A' for Active; 'I' for Inactive)
REMARK    1  A    between atoms: C_4  and  S_5 
REMARK    2  A    between atoms: S_5  and  C_6 
REMARK    3  A    between atoms: C_6  and  C_7 
REMARK       I    between atoms: C_7  and  N_8 
REMARK    4  A    between atoms: N_8  and  C_9 
REMARK    5  A    between atoms: N_11  and  C_12 
REMARK    6  A    between atoms: C_12  and  C_13 
REMARK       I    between atoms: C_13  and  N_14 
REMARK    7  A    between atoms: N_14  and  C_15 
REMARK    8  A    between atoms: C_15  and  C_16 
REMARK    9  A    between atoms: C_16  and  N_17 
ROOT
HETATM    1  C   UNL     1      41.337 -10.680   6.315  1.00  0.00     0.253 C 
ENDROOT
BRANCH   1   2
HETATM    2  N   UNL     1      40.564 -10.802   7.544  1.00  0.00    -0.270 N 
HETATM    3  C   UNL     1      41.102 -10.743   8.799  1.00  0.00     0.144 A 
HETATM    4  C   UNL     1      40.113 -11.111   9.673  1.00  0.00     0.071 A 
HETATM    5  C   UNL     1      38.989 -11.335   8.849  1.00  0.00     0.169 A 
HETATM    6  N   UNL     1      39.261 -11.187   7.544  1.00  0.00    -0.183 NA
BRANCH   4   7
HETATM    7  N   UNL     1      40.201 -11.280  11.042  1.00  0.00    -0.324 N 
HETATM    8  C   UNL     1      40.249 -10.248  11.964  1.00  0.00     0.231 C 
HETATM    9  O   UNL     1      40.020  -9.064  11.716  1.00  0.00    -0.272 OA
HETATM   10  H   UNL     1      40.414 -12.212  11.384  1.00  0.00     0.169 HD
BRANCH   8  11
HETATM   11  C   UNL     1      40.589 -10.676  13.383  1.00  0.00     0.182 C 
BRANCH  11  12
HETATM   12  S   UNL     1      42.321 -10.326  13.851  1.00  0.00    -0.121 SA
BRANCH  12  13
HETATM   13  C   UNL     1      43.294 -10.937  12.476  1.00  0.00     0.001 A 
HETATM   14  C   UNL     1      43.580 -12.279  12.207  1.00  0.00     0.018 A 
HETATM   15  C   UNL     1      44.382 -12.635  11.116  1.00  0.00     0.001 A 
HETATM   16  C   UNL     1      44.898 -11.655  10.273  1.00  0.00     0.000 A 
HETATM   17  C   UNL     1      44.612 -10.317  10.518  1.00  0.00     0.001 A 
HETATM   18  C   UNL     1      43.819  -9.962  11.613  1.00  0.00     0.018 A 
ENDBRANCH  12  13
ENDBRANCH  11  12
ENDBRANCH   8  11
ENDBRANCH   4   7
ENDBRANCH   1   2
BRANCH   1  19
HETATM   19  C   UNL     1      41.349 -11.874   5.384  1.00  0.00     0.237 C 
HETATM   20  N   UNL     1      41.109 -13.117   5.933  1.00  0.00    -0.357 N 
HETATM   21  H   UNL     1      40.565 -13.087   6.805  1.00  0.00     0.162 HD
HETATM   22  O   UNL     1      41.703 -11.761   4.211  1.00  0.00    -0.272 OA
BRANCH  20  23
HETATM   23  C   UNL     1      41.052 -14.313   5.114  1.00  0.00     0.161 C 
BRANCH  23  24
HETATM   24  C   UNL     1      42.027 -15.469   5.530  1.00  0.00     0.143 C 
HETATM   25  C   UNL     1      41.387 -16.433   6.563  1.00  0.00     0.041 C 
HETATM   26  C   UNL     1      42.357 -17.473   7.127  1.00  0.00     0.002 C 
HETATM   27  C   UNL     1      43.580 -16.814   7.753  1.00  0.00     0.000 C 
HETATM   28  C   UNL     1      44.260 -15.839   6.798  1.00  0.00     0.002 C 
HETATM   29  C   UNL     1      43.267 -14.827   6.223  1.00  0.00     0.041 C 
BRANCH  24  30
HETATM   30  N   UNL     1      42.522 -16.289   4.279  1.00  0.00    -0.057 N 
HETATM   31  H   UNL     1      43.213 -16.954   4.641  1.00  0.00     0.281 HD
HETATM   32  C   UNL     1      41.472 -17.165   3.572  1.00  0.00     0.262 C 
HETATM   33  C   UNL     1      42.167 -18.040   2.518  1.00  0.00     0.195 C 
HETATM   34  O   UNL     1      42.854 -17.237   1.555  1.00  0.00    -0.388 OA
HETATM   35  C   UNL     1      43.859 -16.422   2.162  1.00  0.00     0.195 C 
HETATM   36  C   UNL     1      43.249 -15.472   3.201  1.00  0.00     0.262 C 
ENDBRANCH  24  30
ENDBRANCH  23  24
ENDBRANCH  20  23
ENDBRANCH   1  19
TORSDOF 9
ENDMDL
MODEL 2
REMARK VINA RESULT:      -7.7      3.256      9.395
REMARK  9 active torsions:
REMARK  status: ('A' for Active; 'I' for Inactive)
REMARK    1  A    between atoms: C_4  and  S_5 
REMARK    2  A    between atoms: S_5  and  C_6 
REMARK    3  A    between atoms: C_6  and  C_7 
REMARK       I    between atoms: C_7  and  N_8 
REMARK    4  A    between atoms: N_8  and  C_9 
REMARK    5  A    between atoms: N_11  and  C_12 
REMARK    6  A    between atoms: C_12  and  C_13 
REMARK       I    between atoms: C_13  and  N_14 
REMARK    7  A    between atoms: N_14  and  C_15 
REMARK    8  A    between atoms: C_15  and  C_16 
REMARK    9  A    between atoms: C_16  and  N_17 
ROOT
HETATM    1  C   UNL     1      45.325 -12.529   8.743  1.00  0.00     0.253 C 
ENDROOT
BRANCH   1   2
HETATM    2  N   UNL     1      44.374 -13.021   7.756  1.00  0.00    -0.270 N 
HETATM    3  C   UNL     1      44.586 -14.114   6.963  1.00  0.00     0.144 A 
HETATM    4  C   UNL     1      43.582 -14.130   6.030  1.00  0.00     0.071 A 
HETATM    5  C   UNL     1      42.778 -13.020   6.370  1.00  0.00     0.169 A 
HETATM    6  N   UNL     1      43.272 -12.313   7.396  1.00  0.00    -0.183 NA
BRANCH   4   7
HETATM    7  N   UNL     1      43.416 -14.996   4.966  1.00  0.00    -0.324 N 
HETATM    8  C   UNL     1      43.497 -14.632   3.632  1.00  0.00     0.231 C 
HETATM    9  O   UNL     1      43.919 -13.554   3.214  1.00  0.00    -0.272 OA
HETATM   10  H   UNL     1      43.045 -15.919   5.169  1.00  0.00     0.169 HD
BRANCH   8  11
HETATM   11  C   UNL     1      43.038 -15.701   2.651  1.00  0.00     0.182 C 
BRANCH  11  12
HETATM   12  S   UNL     1      42.038 -17.018   3.429  1.00  0.00    -0.121 SA
BRANCH  12  13
HETATM   13  C   UNL     1      43.090 -18.469   3.390  1.00  0.00     0.001 A 
HETATM   14  C   UNL     1      43.321 -19.283   2.278  1.00  0.00     0.018 A 
HETATM   15  C   UNL     1      44.141 -20.414   2.376  1.00  0.00     0.001 A 
HETATM   16  C   UNL     1      44.751 -20.737   3.584  1.00  0.00     0.000 A 
HETATM   17  C   UNL     1      44.542 -19.930   4.697  1.00  0.00     0.001 A 
HETATM   18  C   UNL     1      43.717 -18.807   4.600  1.00  0.00     0.018 A 
ENDBRANCH  12  13
ENDBRANCH  11  12
ENDBRANCH   8  11
ENDBRANCH   4   7
ENDBRANCH   1   2
BRANCH   1  19
HETATM   19  C   UNL     1      44.868 -12.494  10.187  1.00  0.00     0.237 C 
HETATM   20  N   UNL     1      43.565 -12.116  10.436  1.00  0.00    -0.357 N 
HETATM   21  H   UNL     1      42.927 -12.279   9.647  1.00  0.00     0.162 HD
HETATM   22  O   UNL     1      45.666 -12.654  11.110  1.00  0.00    -0.272 OA
BRANCH  20  23
HETATM   23  C   UNL     1      43.021 -12.100  11.781  1.00  0.00     0.161 C 
BRANCH  23  24
HETATM   24  C   UNL     1      42.475 -10.716  12.277  1.00  0.00     0.143 C 
HETATM   25  C   UNL     1      43.614  -9.699  12.552  1.00  0.00     0.041 C 
HETATM   26  C   UNL     1      43.142  -8.397  13.201  1.00  0.00     0.002 C 
HETATM   27  C   UNL     1      42.386  -8.661  14.498  1.00  0.00     0.000 C 
HETATM   28  C   UNL     1      41.253  -9.663  14.309  1.00  0.00     0.002 C 
HETATM   29  C   UNL     1      41.741 -10.946  13.632  1.00  0.00     0.041 C 
BRANCH  24  30
HETATM   30  N   UNL     1      41.451 -10.095  11.253  1.00  0.00    -0.057 N 
HETATM   31  H   UNL     1      41.036  -9.290  11.731  1.00  0.00     0.281 HD
HETATM   32  C   UNL     1      42.043  -9.515   9.956  1.00  0.00     0.262 C 
HETATM   33  C   UNL     1      40.940  -8.777   9.181  1.00  0.00     0.195 C 
HETATM   34  O   UNL     1      39.856  -9.655   8.866  1.00  0.00    -0.388 OA
HETATM   35  C   UNL     1      39.257 -10.201  10.043  1.00  0.00     0.195 C 
HETATM   36  C   UNL     1      40.275 -11.004  10.862  1.00  0.00     0.262 C 
ENDBRANCH  24  30
ENDBRANCH  23  24
ENDBRANCH  20  23
ENDBRANCH   1  19
TORSDOF 9
ENDMDL
MODEL 3
REMARK VINA RESULT:      -7.4      3.395      9.099
REMARK  9 active torsions:
REMARK  status: ('A' for Active; 'I' for Inactive)
REMARK    1  A    between atoms: C_4  and  S_5 
REMARK    2  A    between atoms: S_5  and  C_6 
REMARK    3  A    between atoms: C_6  and  C_7 
REMARK       I    between atoms: C_7  and  N_8 
REMARK    4  A    between atoms: N_8  and  C_9 
REMARK    5  A    between atoms: N_11  and  C_12 
REMARK    6  A    between atoms: C_12  and  C_13 
REMARK       I    between atoms: C_13  and  N_14 
REMARK    7  A    between atoms: N_14  and  C_15 
REMARK    8  A    between atoms: C_15  and  C_16 
REMARK    9  A    between atoms: C_16  and  N_17 
ROOT
HETATM    1  C   UNL     1      39.194 -12.347   7.646  1.00  0.00     0.253 C 
ENDROOT
BRANCH   1   2
HETATM    2  N   UNL     1      39.988 -12.829   6.524  1.00  0.00    -0.270 N 
HETATM    3  C   UNL     1      39.671 -13.927   5.775  1.00  0.00     0.144 A 
HETATM    4  C   UNL     1      40.751 -14.183   4.970  1.00  0.00     0.071 A 
HETATM    5  C   UNL     1      41.663 -13.149   5.275  1.00  0.00     0.169 A 
HETATM    6  N   UNL     1      41.225 -12.339   6.249  1.00  0.00    -0.183 NA
BRANCH   4   7
HETATM    7  N   UNL     1      40.936 -15.238   4.096  1.00  0.00    -0.324 N 
HETATM    8  C   UNL     1      41.542 -16.439   4.426  1.00  0.00     0.231 C 
HETATM    9  O   UNL     1      41.812 -16.808   5.568  1.00  0.00    -0.272 OA
HETATM   10  H   UNL     1      40.773 -15.061   3.110  1.00  0.00     0.169 HD
BRANCH   8  11
HETATM   11  C   UNL     1      41.848 -17.344   3.242  1.00  0.00     0.182 C 
BRANCH  11  12
HETATM   12  S   UNL     1      43.636 -17.515   2.903  1.00  0.00    -0.121 SA
BRANCH  12  13
HETATM   13  C   UNL     1      43.948 -19.277   2.992  1.00  0.00     0.001 A 
HETATM   14  C   UNL     1      44.539 -19.951   4.065  1.00  0.00     0.018 A 
HETATM   15  C   UNL     1      44.763 -21.332   4.007  1.00  0.00     0.001 A 
HETATM   16  C   UNL     1      44.386 -22.059   2.882  1.00  0.00     0.000 A 
HETATM   17  C   UNL     1      43.785 -21.407   1.812  1.00  0.00     0.001 A 
HETATM   18  C   UNL     1      43.570 -20.027   1.866  1.00  0.00     0.018 A 
ENDBRANCH  12  13
ENDBRANCH  11  12
ENDBRANCH   8  11
ENDBRANCH   4   7
ENDBRANCH   1   2
BRANCH   1  19
HETATM   19  C   UNL     1      39.643 -11.063   8.312  1.00  0.00     0.237 C 
HETATM   20  N   UNL     1      40.889 -11.051   8.903  1.00  0.00    -0.357 N 
HETATM   21  H   UNL     1      41.542 -11.740   8.509  1.00  0.00     0.162 HD
HETATM   22  O   UNL     1      38.871 -10.114   8.448  1.00  0.00    -0.272 OA
BRANCH  20  23
HETATM   23  C   UNL     1      41.427  -9.854   9.521  1.00  0.00     0.161 C 
BRANCH  23  24
HETATM   24  C   UNL     1      42.067 -10.050  10.939  1.00  0.00     0.143 C 
HETATM   25  C   UNL     1      41.153 -10.870  11.888  1.00  0.00     0.041 C 
HETATM   26  C   UNL     1      41.657 -10.939  13.331  1.00  0.00     0.002 C 
HETATM   27  C   UNL     1      41.862  -9.548  13.918  1.00  0.00     0.000 C 
HETATM   28  C   UNL     1      42.745  -8.675  13.032  1.00  0.00     0.002 C 
HETATM   29  C   UNL     1      42.240  -8.644  11.588  1.00  0.00     0.041 C 
BRANCH  24  30
HETATM   30  N   UNL     1      43.482 -10.736  10.848  1.00  0.00    -0.057 N 
HETATM   31  H   UNL     1      44.076 -10.235  11.516  1.00  0.00     0.281 HD
HETATM   32  C   UNL     1      43.561 -12.210  11.286  1.00  0.00     0.262 C 
HETATM   33  C   UNL     1      45.033 -12.649  11.327  1.00  0.00     0.195 C 
HETATM   34  O   UNL     1      45.653 -12.492  10.049  1.00  0.00    -0.388 OA
HETATM   35  C   UNL     1      45.626 -11.132   9.609  1.00  0.00     0.195 C 
HETATM   36  C   UNL     1      44.186 -10.617   9.488  1.00  0.00     0.262 C 
ENDBRANCH  24  30
ENDBRANCH  23  24
ENDBRANCH  20  23
ENDBRANCH   1  19
TORSDOF 9
ENDMDL
MODEL 4
REMARK VINA RESULT:      -7.4      5.527      9.089
REMARK  9 active torsions:
REMARK  status: ('A' for Active; 'I' for Inactive)
REMARK    1  A    between atoms: C_4  and  S_5 
REMARK    2  A    between atoms: S_5  and  C_6 
REMARK    3  A    between atoms: C_6  and  C_7 
REMARK       I    between atoms: C_7  and  N_8 
REMARK    4  A    between atoms: N_8  and  C_9 
REMARK    5  A    between atoms: N_11  and  C_12 
REMARK    6  A    between atoms: C_12  and  C_13 
REMARK       I    between atoms: C_13  and  N_14 
REMARK    7  A    between atoms: N_14  and  C_15 
REMARK    8  A    between atoms: C_15  and  C_16 
REMARK    9  A    between atoms: C_16  and  N_17 
ROOT
HETATM    1  C   UNL     1      40.597 -12.845   2.977  1.00  0.00     0.253 C 
ENDROOT
BRANCH   1   2
HETATM    2  N   UNL     1      40.742 -13.810   4.058  1.00  0.00    -0.270 N 
HETATM    3  C   UNL     1      41.552 -14.909   4.002  1.00  0.00     0.144 A 
HETATM    4  C   UNL     1      41.257 -15.676   5.099  1.00  0.00     0.071 A 
HETATM    5  C   UNL     1      40.278 -14.929   5.790  1.00  0.00     0.169 A 
HETATM    6  N   UNL     1      39.927 -13.807   5.145  1.00  0.00    -0.183 NA
BRANCH   4   7
HETATM    7  N   UNL     1      41.759 -16.920   5.434  1.00  0.00    -0.324 N 
HETATM    8  C   UNL     1      42.684 -17.154   6.437  1.00  0.00     0.231 C 
HETATM    9  O   UNL     1      43.031 -16.337   7.288  1.00  0.00    -0.272 OA
HETATM   10  H   UNL     1      41.568 -17.686   4.796  1.00  0.00     0.169 HD
BRANCH   8  11
HETATM   11  C   UNL     1      43.263 -18.561   6.453  1.00  0.00     0.182 C 
BRANCH  11  12
HETATM   12  S   UNL     1      44.852 -18.702   5.561  1.00  0.00    -0.121 SA
BRANCH  12  13
HETATM   13  C   UNL     1      44.717 -20.229   4.632  1.00  0.00     0.001 A 
HETATM   14  C   UNL     1      44.801 -21.520   5.162  1.00  0.00     0.018 A 
HETATM   15  C   UNL     1      44.712 -22.642   4.329  1.00  0.00     0.001 A 
HETATM   16  C   UNL     1      44.526 -22.488   2.959  1.00  0.00     0.000 A 
HETATM   17  C   UNL     1      44.428 -21.211   2.417  1.00  0.00     0.001 A 
HETATM   18  C   UNL     1      44.525 -20.091   3.248  1.00  0.00     0.018 A 
ENDBRANCH  12  13
ENDBRANCH  11  12
ENDBRANCH   8  11
ENDBRANCH   4   7
ENDBRANCH   1   2
BRANCH   1  19
HETATM   19  C   UNL     1      41.308 -13.151   1.675  1.00  0.00     0.237 C 
HETATM   20  N   UNL     1      40.711 -14.051   0.816  1.00  0.00    -0.357 N 
HETATM   21  H   UNL     1      39.692 -14.122   0.932  1.00  0.00     0.162 HD
HETATM   22  O   UNL     1      42.442 -12.728   1.456  1.00  0.00    -0.272 OA
BRANCH  20  23
HETATM   23  C   UNL     1      41.291 -14.371  -0.474  1.00  0.00     0.161 C 
BRANCH  23  24
HETATM   24  C   UNL     1      40.356 -14.148  -1.714  1.00  0.00     0.143 C 
HETATM   25  C   UNL     1      38.859 -14.064  -1.313  1.00  0.00     0.041 C 
HETATM   26  C   UNL     1      37.898 -14.022  -2.502  1.00  0.00     0.002 C 
HETATM   27  C   UNL     1      38.099 -15.217  -3.425  1.00  0.00     0.000 C 
HETATM   28  C   UNL     1      39.554 -15.373  -3.856  1.00  0.00     0.002 C 
HETATM   29  C   UNL     1      40.500 -15.383  -2.653  1.00  0.00     0.041 C 
BRANCH  24  30
HETATM   30  N   UNL     1      40.758 -12.856  -2.521  1.00  0.00    -0.057 N 
HETATM   31  H   UNL     1      40.132 -12.831  -3.331  1.00  0.00     0.281 HD
HETATM   32  C   UNL     1      40.534 -11.507  -1.814  1.00  0.00     0.262 C 
HETATM   33  C   UNL     1      40.783 -10.365  -2.811  1.00  0.00     0.195 C 
HETATM   34  O   UNL     1      42.112 -10.420  -3.335  1.00  0.00    -0.388 OA
HETATM   35  C   UNL     1      42.361 -11.647  -4.024  1.00  0.00     0.195 C 
HETATM   36  C   UNL     1      42.185 -12.852  -3.090  1.00  0.00     0.262 C 
ENDBRANCH  24  30
ENDBRANCH  23  24
ENDBRANCH  20  23
ENDBRANCH   1  19
TORSDOF 9
ENDMDL
MODEL 5
REMARK VINA RESULT:      -7.4      3.011      8.120
REMARK  9 active torsions:
REMARK  status: ('A' for Active; 'I' for Inactive)
REMARK    1  A    between atoms: C_4  and  S_5 
REMARK    2  A    between atoms: S_5  and  C_6 
REMARK    3  A    between atoms: C_6  and  C_7 
REMARK       I    between atoms: C_7  and  N_8 
REMARK    4  A    between atoms: N_8  and  C_9 
REMARK    5  A    between atoms: N_11  and  C_12 
REMARK    6  A    between atoms: C_12  and  C_13 
REMARK       I    between atoms: C_13  and  N_14 
REMARK    7  A    between atoms: N_14  and  C_15 
REMARK    8  A    between atoms: C_15  and  C_16 
REMARK    9  A    between atoms: C_16  and  N_17 
ROOT
HETATM    1  C   UNL     1      39.455 -10.059   6.770  1.00  0.00     0.253 C 
ENDROOT
BRANCH   1   2
HETATM    2  N   UNL     1      39.391 -11.327   6.056  1.00  0.00    -0.270 N 
HETATM    3  C   UNL     1      39.518 -12.550   6.651  1.00  0.00     0.144 A 
HETATM    4  C   UNL     1      39.621 -13.474   5.642  1.00  0.00     0.071 A 
HETATM    5  C   UNL     1      39.500 -12.710   4.461  1.00  0.00     0.169 A 
HETATM    6  N   UNL     1      39.399 -11.394   4.699  1.00  0.00    -0.183 NA
BRANCH   4   7
HETATM    7  N   UNL     1      39.845 -14.833   5.747  1.00  0.00    -0.324 N 
HETATM    8  C   UNL     1      41.096 -15.428   5.762  1.00  0.00     0.231 C 
HETATM    9  O   UNL     1      42.164 -14.832   5.887  1.00  0.00    -0.272 OA
HETATM   10  H   UNL     1      39.045 -15.448   5.634  1.00  0.00     0.169 HD
BRANCH   8  11
HETATM   11  C   UNL     1      41.081 -16.945   5.638  1.00  0.00     0.182 C 
BRANCH  11  12
HETATM   12  S   UNL     1      42.653 -17.729   6.140  1.00  0.00    -0.121 SA
BRANCH  12  13
HETATM   13  C   UNL     1      43.206 -18.613   4.682  1.00  0.00     0.001 A 
HETATM   14  C   UNL     1      44.214 -19.580   4.645  1.00  0.00     0.018 A 
HETATM   15  C   UNL     1      44.583 -20.183   3.436  1.00  0.00     0.001 A 
HETATM   16  C   UNL     1      43.941 -19.835   2.252  1.00  0.00     0.000 A 
HETATM   17  C   UNL     1      42.926 -18.884   2.274  1.00  0.00     0.001 A 
HETATM   18  C   UNL     1      42.564 -18.277   3.479  1.00  0.00     0.018 A 
ENDBRANCH  12  13
ENDBRANCH  11  12
ENDBRANCH   8  11
ENDBRANCH   4   7
ENDBRANCH   1   2
BRANCH   1  19
HETATM   19  C   UNL     1      40.782  -9.683   7.395  1.00  0.00     0.237 C 
HETATM   20  N   UNL     1      40.814  -9.487   8.760  1.00  0.00    -0.357 N 
HETATM   21  H   UNL     1      40.073  -9.986   9.269  1.00  0.00     0.162 HD
HETATM   22  O   UNL     1      41.761  -9.420   6.697  1.00  0.00    -0.272 OA
BRANCH  20  23
HETATM   23  C   UNL     1      42.048  -9.173   9.455  1.00  0.00     0.161 C 
BRANCH  23  24
HETATM   24  C   UNL     1      42.373 -10.067  10.702  1.00  0.00     0.143 C 
HETATM   25  C   UNL     1      41.102 -10.732  11.295  1.00  0.00     0.041 C 
HETATM   26  C   UNL     1      41.343 -11.471  12.612  1.00  0.00     0.002 C 
HETATM   27  C   UNL     1      41.960 -10.555  13.662  1.00  0.00     0.000 C 
HETATM   28  C   UNL     1      43.213  -9.854  13.148  1.00  0.00     0.002 C 
HETATM   29  C   UNL     1      42.958  -9.146  11.816  1.00  0.00     0.041 C 
BRANCH  24  30
HETATM   30  N   UNL     1      43.437 -11.176  10.361  1.00  0.00    -0.057 N 
HETATM   31  H   UNL     1      43.087 -12.037  10.793  1.00  0.00     0.281 HD
HETATM   32  C   UNL     1      43.607 -11.530   8.872  1.00  0.00     0.262 C 
HETATM   33  C   UNL     1      44.522 -12.757   8.744  1.00  0.00     0.195 C 
HETATM   34  O   UNL     1      45.802 -12.509   9.330  1.00  0.00    -0.388 OA
HETATM   35  C   UNL     1      45.698 -12.200  10.722  1.00  0.00     0.195 C 
HETATM   36  C   UNL     1      44.838 -10.950  10.948  1.00  0.00     0.262 C 
ENDBRANCH  24  30
ENDBRANCH  23  24
ENDBRANCH  20  23
ENDBRANCH   1  19
TORSDOF 9
ENDMDL
MODEL 6
REMARK VINA RESULT:      -7.4      2.093      3.709
REMARK  9 active torsions:
REMARK  status: ('A' for Active; 'I' for Inactive)
REMARK    1  A    between atoms: C_4  and  S_5 
REMARK    2  A    between atoms: S_5  and  C_6 
REMARK    3  A    between atoms: C_6  and  C_7 
REMARK       I    between atoms: C_7  and  N_8 
REMARK    4  A    between atoms: N_8  and  C_9 
REMARK    5  A    between atoms: N_11  and  C_12 
REMARK    6  A    between atoms: C_12  and  C_13 
REMARK       I    between atoms: C_13  and  N_14 
REMARK    7  A    between atoms: N_14  and  C_15 
REMARK    8  A    between atoms: C_15  and  C_16 
REMARK    9  A    between atoms: C_16  and  N_17 
ROOT
HETATM    1  C   UNL     1      41.009 -11.534   3.142  1.00  0.00     0.253 C 
ENDROOT
BRANCH   1   2
HETATM    2  N   UNL     1      40.318 -11.822   4.392  1.00  0.00    -0.270 N 
HETATM    3  C   UNL     1      40.597 -11.211   5.581  1.00  0.00     0.144 A 
HETATM    4  C   UNL     1      39.905 -11.891   6.550  1.00  0.00     0.071 A 
HETATM    5  C   UNL     1      39.194 -12.881   5.835  1.00  0.00     0.169 A 
HETATM    6  N   UNL     1      39.469 -12.874   4.523  1.00  0.00    -0.183 NA
BRANCH   4   7
HETATM    7  N   UNL     1      39.931 -11.696   7.918  1.00  0.00    -0.324 N 
HETATM    8  C   UNL     1      39.321 -10.642   8.576  1.00  0.00     0.231 C 
HETATM    9  O   UNL     1      38.517  -9.859   8.072  1.00  0.00    -0.272 OA
HETATM   10  H   UNL     1      40.578 -12.263   8.457  1.00  0.00     0.169 HD
BRANCH   8  11
HETATM   11  C   UNL     1      39.694 -10.507  10.045  1.00  0.00     0.182 C 
BRANCH  11  12
HETATM   12  S   UNL     1      40.907  -9.179  10.368  1.00  0.00    -0.121 SA
BRANCH  12  13
HETATM   13  C   UNL     1      42.484 -10.022  10.482  1.00  0.00     0.001 A 
HETATM   14  C   UNL     1      43.290 -10.099  11.622  1.00  0.00     0.018 A 
HETATM   15  C   UNL     1      44.523 -10.762  11.582  1.00  0.00     0.001 A 
HETATM   16  C   UNL     1      44.960 -11.366  10.408  1.00  0.00     0.000 A 
HETATM   17  C   UNL     1      44.164 -11.310   9.269  1.00  0.00     0.001 A 
HETATM   18  C   UNL     1      42.938 -10.641   9.306  1.00  0.00     0.018 A 
ENDBRANCH  12  13
ENDBRANCH  11  12
ENDBRANCH   8  11
ENDBRANCH   4   7
ENDBRANCH   1   2
BRANCH   1  19
HETATM   19  C   UNL     1      42.006 -12.562   2.648  1.00  0.00     0.237 C 
HETATM   20  N   UNL     1      42.439 -13.515   3.546  1.00  0.00    -0.357 N 
HETATM   21  H   UNL     1      41.779 -13.693   4.314  1.00  0.00     0.162 HD
HETATM   22  O   UNL     1      42.519 -12.465   1.534  1.00  0.00    -0.272 OA
BRANCH  20  23
HETATM   23  C   UNL     1      43.355 -14.569   3.154  1.00  0.00     0.161 C 
BRANCH  23  24
HETATM   24  C   UNL     1      42.720 -15.994   2.988  1.00  0.00     0.143 C 
HETATM   25  C   UNL     1      43.614 -16.940   2.143  1.00  0.00     0.041 C 
HETATM   26  C   UNL     1      42.959 -18.281   1.809  1.00  0.00     0.002 C 
HETATM   27  C   UNL     1      41.626 -18.089   1.096  1.00  0.00     0.000 C 
HETATM   28  C   UNL     1      40.693 -17.158   1.864  1.00  0.00     0.002 C 
HETATM   29  C   UNL     1      41.377 -15.835   2.213  1.00  0.00     0.041 C 
BRANCH  24  30
HETATM   30  N   UNL     1      42.417 -16.661   4.382  1.00  0.00    -0.057 N 
HETATM   31  H   UNL     1      42.139 -17.625   4.172  1.00  0.00     0.281 HD
HETATM   32  C   UNL     1      43.607 -16.802   5.350  1.00  0.00     0.262 C 
HETATM   33  C   UNL     1      43.180 -17.649   6.559  1.00  0.00     0.195 C 
HETATM   34  O   UNL     1      42.073 -17.054   7.239  1.00  0.00    -0.388 OA
HETATM   35  C   UNL     1      40.933 -16.924   6.386  1.00  0.00     0.195 C 
HETATM   36  C   UNL     1      41.249 -16.047   5.168  1.00  0.00     0.262 C 
ENDBRANCH  24  30
ENDBRANCH  23  24
ENDBRANCH  20  23
ENDBRANCH   1  19
TORSDOF 9
ENDMDL
MODEL 7
REMARK VINA RESULT:      -7.2      5.386      8.719
REMARK  9 active torsions:
REMARK  status: ('A' for Active; 'I' for Inactive)
REMARK    1  A    between atoms: C_4  and  S_5 
REMARK    2  A    between atoms: S_5  and  C_6 
REMARK    3  A    between atoms: C_6  and  C_7 
REMARK       I    between atoms: C_7  and  N_8 
REMARK    4  A    between atoms: N_8  and  C_9 
REMARK    5  A    between atoms: N_11  and  C_12 
REMARK    6  A    between atoms: C_12  and  C_13 
REMARK       I    between atoms: C_13  and  N_14 
REMARK    7  A    between atoms: N_14  and  C_15 
REMARK    8  A    between atoms: C_15  and  C_16 
REMARK    9  A    between atoms: C_16  and  N_17 
ROOT
HETATM    1  C   UNL     1      39.376 -13.775   2.451  1.00  0.00     0.253 C 
ENDROOT
BRANCH   1   2
HETATM    2  N   UNL     1      39.962 -14.090   3.747  1.00  0.00    -0.270 N 
HETATM    3  C   UNL     1      40.651 -15.239   4.018  1.00  0.00     0.144 A 
HETATM    4  C   UNL     1      40.851 -15.271   5.374  1.00  0.00     0.071 A 
HETATM    5  C   UNL     1      40.281 -14.065   5.836  1.00  0.00     0.169 A 
HETATM    6  N   UNL     1      39.701 -13.354   4.858  1.00  0.00    -0.183 NA
BRANCH   4   7
HETATM    7  N   UNL     1      41.430 -16.273   6.131  1.00  0.00    -0.324 N 
HETATM    8  C   UNL     1      42.766 -16.320   6.490  1.00  0.00     0.231 C 
HETATM    9  O   UNL     1      43.568 -15.394   6.364  1.00  0.00    -0.272 OA
HETATM   10  H   UNL     1      40.882 -17.113   6.289  1.00  0.00     0.169 HD
BRANCH   8  11
HETATM   11  C   UNL     1      43.214 -17.635   7.110  1.00  0.00     0.182 C 
BRANCH  11  12
HETATM   12  S   UNL     1      44.869 -18.173   6.554  1.00  0.00    -0.121 SA
BRANCH  12  13
HETATM   13  C   UNL     1      44.571 -19.041   5.014  1.00  0.00     0.001 A 
HETATM   14  C   UNL     1      44.928 -20.364   4.738  1.00  0.00     0.018 A 
HETATM   15  C   UNL     1      44.671 -20.927   3.482  1.00  0.00     0.001 A 
HETATM   16  C   UNL     1      44.042 -20.179   2.491  1.00  0.00     0.000 A 
HETATM   17  C   UNL     1      43.668 -18.866   2.754  1.00  0.00     0.001 A 
HETATM   18  C   UNL     1      43.933 -18.302   4.005  1.00  0.00     0.018 A 
ENDBRANCH  12  13
ENDBRANCH  11  12
ENDBRANCH   8  11
ENDBRANCH   4   7
ENDBRANCH   1   2
BRANCH   1  19
HETATM   19  C   UNL     1      40.148 -14.203   1.220  1.00  0.00     0.237 C 
HETATM   20  N   UNL     1      40.944 -13.260   0.604  1.00  0.00    -0.357 N 
HETATM   21  H   UNL     1      41.255 -12.506   1.231  1.00  0.00     0.162 HD
HETATM   22  O   UNL     1      39.960 -15.304   0.704  1.00  0.00    -0.272 OA
BRANCH  20  23
HETATM   23  C   UNL     1      41.758 -13.588  -0.551  1.00  0.00     0.161 C 
BRANCH  23  24
HETATM   24  C   UNL     1      41.399 -12.827  -1.874  1.00  0.00     0.143 C 
HETATM   25  C   UNL     1      42.640 -12.604  -2.778  1.00  0.00     0.041 C 
HETATM   26  C   UNL     1      42.371 -11.717  -3.995  1.00  0.00     0.002 C 
HETATM   27  C   UNL     1      41.804 -10.362  -3.585  1.00  0.00     0.000 C 
HETATM   28  C   UNL     1      40.583 -10.500  -2.682  1.00  0.00     0.002 C 
HETATM   29  C   UNL     1      40.865 -11.415  -1.488  1.00  0.00     0.041 C 
BRANCH  24  30
HETATM   30  N   UNL     1      40.280 -13.578  -2.691  1.00  0.00    -0.057 N 
HETATM   31  H   UNL     1      40.297 -13.163  -3.627  1.00  0.00     0.281 HD
HETATM   32  C   UNL     1      40.497 -15.084  -2.929  1.00  0.00     0.262 C 
HETATM   33  C   UNL     1      39.429 -15.602  -3.903  1.00  0.00     0.195 C 
HETATM   34  O   UNL     1      38.113 -15.379  -3.392  1.00  0.00    -0.388 OA
HETATM   35  C   UNL     1      37.855 -13.990  -3.178  1.00  0.00     0.195 C 
HETATM   36  C   UNL     1      38.847 -13.391  -2.172  1.00  0.00     0.262 C 
ENDBRANCH  24  30
ENDBRANCH  23  24
ENDBRANCH  20  23
ENDBRANCH   1  19
TORSDOF 9
ENDMDL
MODEL 8
REMARK VINA RESULT:      -7.1      4.617      7.703
REMARK  9 active torsions:
REMARK  status: ('A' for Active; 'I' for Inactive)
REMARK    1  A    between atoms: C_4  and  S_5 
REMARK    2  A    between atoms: S_5  and  C_6 
REMARK    3  A    between atoms: C_6  and  C_7 
REMARK       I    between atoms: C_7  and  N_8 
REMARK    4  A    between atoms: N_8  and  C_9 
REMARK    5  A    between atoms: N_11  and  C_12 
REMARK    6  A    between atoms: C_12  and  C_13 
REMARK       I    between atoms: C_13  and  N_14 
REMARK    7  A    between atoms: N_14  and  C_15 
REMARK    8  A    between atoms: C_15  and  C_16 
REMARK    9  A    between atoms: C_16  and  N_17 
ROOT
HETATM    1  C   UNL     1      41.734 -12.471   5.685  1.00  0.00     0.253 C 
ENDROOT
BRANCH   1   2
HETATM    2  N   UNL     1      42.826 -13.362   6.055  1.00  0.00    -0.270 N 
HETATM    3  C   UNL     1      42.866 -14.693   5.752  1.00  0.00     0.144 A 
HETATM    4  C   UNL     1      43.922 -15.227   6.445  1.00  0.00     0.071 A 
HETATM    5  C   UNL     1      44.492 -14.120   7.111  1.00  0.00     0.169 A 
HETATM    6  N   UNL     1      43.809 -12.984   6.913  1.00  0.00    -0.183 NA
BRANCH   4   7
HETATM    7  N   UNL     1      44.314 -16.550   6.522  1.00  0.00    -0.324 N 
HETATM    8  C   UNL     1      44.054 -17.389   7.592  1.00  0.00     0.231 C 
HETATM    9  O   UNL     1      43.278 -17.143   8.515  1.00  0.00    -0.272 OA
HETATM   10  H   UNL     1      44.980 -16.880   5.830  1.00  0.00     0.169 HD
BRANCH   8  11
HETATM   11  C   UNL     1      44.793 -18.719   7.554  1.00  0.00     0.182 C 
BRANCH  11  12
HETATM   12  S   UNL     1      43.738 -20.120   7.041  1.00  0.00    -0.121 SA
BRANCH  12  13
HETATM   13  C   UNL     1      44.075 -20.326   5.293  1.00  0.00     0.001 A 
HETATM   14  C   UNL     1      43.938 -19.340   4.312  1.00  0.00     0.018 A 
HETATM   15  C   UNL     1      44.201 -19.628   2.967  1.00  0.00     0.001 A 
HETATM   16  C   UNL     1      44.616 -20.901   2.588  1.00  0.00     0.000 A 
HETATM   17  C   UNL     1      44.771 -21.889   3.554  1.00  0.00     0.001 A 
HETATM   18  C   UNL     1      44.500 -21.604   4.895  1.00  0.00     0.018 A 
ENDBRANCH  12  13
ENDBRANCH  11  12
ENDBRANCH   8  11
ENDBRANCH   4   7
ENDBRANCH   1   2
BRANCH   1  19
HETATM   19  C   UNL     1      41.261 -12.518   4.247  1.00  0.00     0.237 C 
HETATM   20  N   UNL     1      42.115 -13.058   3.309  1.00  0.00    -0.357 N 
HETATM   21  H   UNL     1      42.795 -13.723   3.700  1.00  0.00     0.162 HD
HETATM   22  O   UNL     1      40.216 -11.965   3.903  1.00  0.00    -0.272 OA
BRANCH  20  23
HETATM   23  C   UNL     1      41.732 -13.191   1.916  1.00  0.00     0.161 C 
BRANCH  23  24
HETATM   24  C   UNL     1      41.104 -14.570   1.512  1.00  0.00     0.143 C 
HETATM   25  C   UNL     1      40.821 -15.470   2.745  1.00  0.00     0.041 C 
HETATM   26  C   UNL     1      40.372 -16.888   2.389  1.00  0.00     0.002 C 
HETATM   27  C   UNL     1      41.383 -17.585   1.487  1.00  0.00     0.000 C 
HETATM   28  C   UNL     1      41.722 -16.754   0.254  1.00  0.00     0.002 C 
HETATM   29  C   UNL     1      42.140 -15.331   0.630  1.00  0.00     0.041 C 
BRANCH  24  30
HETATM   30  N   UNL     1      39.780 -14.385   0.680  1.00  0.00    -0.057 N 
HETATM   31  H   UNL     1      39.451 -15.332   0.469  1.00  0.00     0.281 HD
HETATM   32  C   UNL     1      38.599 -13.717   1.408  1.00  0.00     0.262 C 
HETATM   33  C   UNL     1      37.344 -13.804   0.525  1.00  0.00     0.195 C 
HETATM   34  O   UNL     1      37.557 -13.166  -0.736  1.00  0.00    -0.388 OA
HETATM   35  C   UNL     1      38.630 -13.769  -1.462  1.00  0.00     0.195 C 
HETATM   36  C   UNL     1      39.945 -13.685  -0.677  1.00  0.00     0.262 C 
ENDBRANCH  24  30
ENDBRANCH  23  24
ENDBRANCH  20  23
ENDBRANCH   1  19
TORSDOF 9
ENDMDL
MODEL 9
REMARK VINA RESULT:      -6.9      1.713      2.761
REMARK  9 active torsions:
REMARK  status: ('A' for Active; 'I' for Inactive)
REMARK    1  A    between atoms: C_4  and  S_5 
REMARK    2  A    between atoms: S_5  and  C_6 
REMARK    3  A    between atoms: C_6  and  C_7 
REMARK       I    between atoms: C_7  and  N_8 
REMARK    4  A    between atoms: N_8  and  C_9 
REMARK    5  A    between atoms: N_11  and  C_12 
REMARK    6  A    between atoms: C_12  and  C_13 
REMARK       I    between atoms: C_13  and  N_14 
REMARK    7  A    between atoms: N_14  and  C_15 
REMARK    8  A    between atoms: C_15  and  C_16 
REMARK    9  A    between atoms: C_16  and  N_17 
ROOT
HETATM    1  C   UNL     1      39.090 -11.930   5.548  1.00  0.00     0.253 C 
ENDROOT
BRANCH   1   2
HETATM    2  N   UNL     1      39.499 -11.460   6.864  1.00  0.00    -0.270 N 
HETATM    3  C   UNL     1      40.659 -10.780   7.110  1.00  0.00     0.144 A 
HETATM    4  C   UNL     1      40.794 -10.704   8.473  1.00  0.00     0.071 A 
HETATM    5  C   UNL     1      39.632 -11.334   8.970  1.00  0.00     0.169 A 
HETATM    6  N   UNL     1      38.854 -11.834   7.999  1.00  0.00    -0.183 NA
BRANCH   4   7
HETATM    7  N   UNL     1      41.846 -10.182   9.201  1.00  0.00    -0.324 N 
HETATM    8  C   UNL     1      43.104 -10.754   9.293  1.00  0.00     0.231 C 
HETATM    9  O   UNL     1      43.516 -11.678   8.592  1.00  0.00    -0.272 OA
HETATM   10  H   UNL     1      41.637  -9.425   9.845  1.00  0.00     0.169 HD
BRANCH   8  11
HETATM   11  C   UNL     1      44.012 -10.130  10.342  1.00  0.00     0.182 C 
BRANCH  11  12
HETATM   12  S   UNL     1      43.940 -10.977  11.960  1.00  0.00    -0.121 SA
BRANCH  12  13
HETATM   13  C   UNL     1      42.696 -10.080  12.886  1.00  0.00     0.001 A 
HETATM   14  C   UNL     1      41.345  -9.964  12.544  1.00  0.00     0.018 A 
HETATM   15  C   UNL     1      40.469  -9.207  13.331  1.00  0.00     0.001 A 
HETATM   16  C   UNL     1      40.929  -8.567  14.478  1.00  0.00     0.000 A 
HETATM   17  C   UNL     1      42.267  -8.683  14.840  1.00  0.00     0.001 A 
HETATM   18  C   UNL     1      43.142  -9.431  14.049  1.00  0.00     0.018 A 
ENDBRANCH  12  13
ENDBRANCH  11  12
ENDBRANCH   8  11
ENDBRANCH   4   7
ENDBRANCH   1   2
BRANCH   1  19
HETATM   19  C   UNL     1      39.598 -13.288   5.109  1.00  0.00     0.237 C 
HETATM   20  N   UNL     1      40.069 -14.141   6.085  1.00  0.00    -0.357 N 
HETATM   21  H   UNL     1      39.679 -13.959   7.019  1.00  0.00     0.162 HD
HETATM   22  O   UNL     1      39.721 -13.565   3.917  1.00  0.00    -0.272 OA
BRANCH  20  23
HETATM   23  C   UNL     1      40.530 -15.479   5.769  1.00  0.00     0.161 C 
BRANCH  23  24
HETATM   24  C   UNL     1      42.086 -15.671   5.727  1.00  0.00     0.143 C 
HETATM   25  C   UNL     1      42.617 -16.432   6.971  1.00  0.00     0.041 C 
HETATM   26  C   UNL     1      44.143 -16.490   7.059  1.00  0.00     0.002 C 
HETATM   27  C   UNL     1      44.758 -15.096   7.028  1.00  0.00     0.000 C 
HETATM   28  C   UNL     1      44.273 -14.280   5.835  1.00  0.00     0.002 C 
HETATM   29  C   UNL     1      42.746 -14.259   5.749  1.00  0.00     0.041 C 
BRANCH  24  30
HETATM   30  N   UNL     1      42.544 -16.417   4.418  1.00  0.00    -0.057 N 
HETATM   31  H   UNL     1      43.565 -16.477   4.477  1.00  0.00     0.281 HD
HETATM   32  C   UNL     1      42.077 -17.876   4.259  1.00  0.00     0.262 C 
HETATM   33  C   UNL     1      42.778 -18.503   3.044  1.00  0.00     0.195 C 
HETATM   34  O   UNL     1      42.491 -17.771   1.849  1.00  0.00    -0.388 OA
HETATM   35  C   UNL     1      42.930 -16.414   1.940  1.00  0.00     0.195 C 
HETATM   36  C   UNL     1      42.242 -15.686   3.101  1.00  0.00     0.262 C 
ENDBRANCH  24  30
ENDBRANCH  23  24
ENDBRANCH  20  23
ENDBRANCH   1  19
TORSDOF 9
ENDMDL
MODEL 10
REMARK VINA RESULT:      -6.9      6.635     10.061
REMARK  9 active torsions:
REMARK  status: ('A' for Active; 'I' for Inactive)
REMARK    1  A    between atoms: C_4  and  S_5 
REMARK    2  A    between atoms: S_5  and  C_6 
REMARK    3  A    between atoms: C_6  and  C_7 
REMARK       I    between atoms: C_7  and  N_8 
REMARK    4  A    between atoms: N_8  and  C_9 
REMARK    5  A    between atoms: N_11  and  C_12 
REMARK    6  A    between atoms: C_12  and  C_13 
REMARK       I    between atoms: C_13  and  N_14 
REMARK    7  A    between atoms: N_14  and  C_15 
REMARK    8  A    between atoms: C_15  and  C_16 
REMARK    9  A    between atoms: C_16  and  N_17 
ROOT
HETATM    1  C   UNL     1      41.970 -12.683   1.605  1.00  0.00     0.253 C 
ENDROOT
BRANCH   1   2
HETATM    2  N   UNL     1      42.116 -14.099   1.915  1.00  0.00    -0.270 N 
HETATM    3  C   UNL     1      42.421 -14.586   3.154  1.00  0.00     0.144 A 
HETATM    4  C   UNL     1      42.683 -15.923   3.003  1.00  0.00     0.071 A 
HETATM    5  C   UNL     1      42.465 -16.164   1.629  1.00  0.00     0.169 A 
HETATM    6  N   UNL     1      42.157 -15.051   0.947  1.00  0.00    -0.183 NA
BRANCH   4   7
HETATM    7  N   UNL     1      43.114 -16.824   3.958  1.00  0.00    -0.324 N 
HETATM    8  C   UNL     1      42.279 -17.575   4.768  1.00  0.00     0.231 C 
HETATM    9  O   UNL     1      41.064 -17.696   4.616  1.00  0.00    -0.272 OA
HETATM   10  H   UNL     1      44.100 -16.811   4.201  1.00  0.00     0.169 HD
BRANCH   8  11
HETATM   11  C   UNL     1      42.981 -18.308   5.901  1.00  0.00     0.182 C 
BRANCH  11  12
HETATM   12  S   UNL     1      44.723 -18.718   5.531  1.00  0.00    -0.121 SA
BRANCH  12  13
HETATM   13  C   UNL     1      44.634 -20.128   4.429  1.00  0.00     0.001 A 
HETATM   14  C   UNL     1      44.378 -20.079   3.056  1.00  0.00     0.018 A 
HETATM   15  C   UNL     1      44.300 -21.255   2.300  1.00  0.00     0.001 A 
HETATM   16  C   UNL     1      44.489 -22.494   2.905  1.00  0.00     0.000 A 
HETATM   17  C   UNL     1      44.758 -22.560   4.267  1.00  0.00     0.001 A 
HETATM   18  C   UNL     1      44.827 -21.386   5.023  1.00  0.00     0.018 A 
ENDBRANCH  12  13
ENDBRANCH  11  12
ENDBRANCH   8  11
ENDBRANCH   4   7
ENDBRANCH   1   2
BRANCH   1  19
HETATM   19  C   UNL     1      40.866 -12.295   0.643  1.00  0.00     0.237 C 
HETATM   20  N   UNL     1      41.132 -11.292  -0.265  1.00  0.00    -0.357 N 
HETATM   21  H   UNL     1      42.131 -11.179  -0.479  1.00  0.00     0.162 HD
HETATM   22  O   UNL     1      39.730 -12.754   0.762  1.00  0.00    -0.272 OA
BRANCH  20  23
HETATM   23  C   UNL     1      40.155 -10.885  -1.257  1.00  0.00     0.161 C 
BRANCH  23  24
HETATM   24  C   UNL     1      40.511 -11.232  -2.745  1.00  0.00     0.143 C 
HETATM   25  C   UNL     1      42.043 -11.338  -2.972  1.00  0.00     0.041 C 
HETATM   26  C   UNL     1      42.443 -11.503  -4.439  1.00  0.00     0.002 C 
HETATM   27  C   UNL     1      41.890 -10.373  -5.300  1.00  0.00     0.000 C 
HETATM   28  C   UNL     1      40.386 -10.199  -5.122  1.00  0.00     0.002 C 
HETATM   29  C   UNL     1      40.004 -10.066  -3.646  1.00  0.00     0.041 C 
BRANCH  24  30
HETATM   30  N   UNL     1      39.815 -12.565  -3.213  1.00  0.00    -0.057 N 
HETATM   31  H   UNL     1      39.882 -12.567  -4.235  1.00  0.00     0.281 HD
HETATM   32  C   UNL     1      40.487 -13.880  -2.778  1.00  0.00     0.262 C 
HETATM   33  C   UNL     1      39.802 -15.059  -3.486  1.00  0.00     0.195 C 
HETATM   34  O   UNL     1      38.407 -15.104  -3.177  1.00  0.00    -0.388 OA
HETATM   35  C   UNL     1      37.733 -13.912  -3.586  1.00  0.00     0.195 C 
HETATM   36  C   UNL     1      38.319 -12.678  -2.887  1.00  0.00     0.262 C 
ENDBRANCH  24  30
ENDBRANCH  23  24
ENDBRANCH  20  23
ENDBRANCH   1  19
TORSDOF 9
ENDMDL
