MODEL 1
REMARK VINA RESULT:     -10.5      0.000      0.000
REMARK  5 active torsions:
REMARK  status: ('A' for Active; 'I' for Inactive)
REMARK    1  A    between atoms: C_5  and  C_6 
REMARK    2  A    between atoms: C_10  and  C_11 
REMARK       I    between atoms: C_11  and  N_12 
REMARK    3  A    between atoms: N_12  and  N_13 
REMARK       I    between atoms: N_13  and  C_14 
REMARK       I    between atoms: C_14  and  N_15 
REMARK    4  A    between atoms: N_15  and  C_16 
REMARK    5  A    between atoms: C_16  and  C_17 
ROOT
HETATM    1  C   UNL     1      44.885 -13.063   8.291  1.00  0.00     0.288 C 
HETATM    2  N   UNL     1      44.226 -14.234   7.988  1.00  0.00    -0.261 N 
HETATM    3  O   UNL     1      45.984 -12.781   7.820  1.00  0.00    -0.264 OA
HETATM    4  H   UNL     1      43.284 -14.438   8.314  1.00  0.00     0.190 HD
ENDROOT
BRANCH   2   5
HETATM    5  N   UNL     1      44.678 -15.043   6.934  1.00  0.00    -0.249 N 
HETATM    6  C   UNL     1      44.218 -16.342   6.939  1.00  0.00     0.334 C 
HETATM    7  N   UNL     1      44.732 -17.090   5.909  1.00  0.00    -0.341 N 
HETATM    8  O   UNL     1      43.404 -16.753   7.761  1.00  0.00    -0.246 OA
HETATM    9  H   UNL     1      44.963 -16.546   5.090  1.00  0.00     0.164 HD
HETATM   10  H   UNL     1      45.615 -14.845   6.595  1.00  0.00     0.192 HD
BRANCH   7  11
HETATM   11  C   UNL     1      44.193 -18.419   5.694  1.00  0.00     0.129 C 
BRANCH  11  12
HETATM   12  C   UNL     1      44.210 -18.894   4.235  1.00  0.00     0.004 C 
HETATM   13  C   UNL     1      42.878 -18.629   3.517  1.00  0.00     0.010 C 
HETATM   14  C   UNL     1      42.898 -19.072   2.043  1.00  0.00    -0.018 C 
HETATM   15  C   UNL     1      43.366 -20.529   1.915  1.00  0.00     0.004 C 
HETATM   16  C   UNL     1      43.741 -18.129   1.178  1.00  0.00     0.010 C 
HETATM   17  C   UNL     1      44.679 -20.805   2.645  1.00  0.00     0.001 C 
HETATM   18  C   UNL     1      44.613 -20.370   4.107  1.00  0.00     0.006 C 
ENDBRANCH  11  12
ENDBRANCH   7  11
ENDBRANCH   2   5
BRANCH   1  19
HETATM   19  C   UNL     1      44.178 -12.194   9.195  1.00  0.00     0.121 A 
HETATM   20  N   UNL     1      43.218 -11.321   8.768  1.00  0.00    -0.272 N 
HETATM   21  N   UNL     1      42.628 -10.626   9.754  1.00  0.00    -0.174 NA
HETATM   22  H   UNL     1      42.911 -11.170   7.812  1.00  0.00     0.189 HD
HETATM   23  C   UNL     1      43.237 -11.042  10.876  1.00  0.00     0.089 A 
HETATM   24  C   UNL     1      44.222 -12.020  10.563  1.00  0.00     0.071 A 
BRANCH  23  25
HETATM   25  C   UNL     1      42.865 -10.539  12.202  1.00  0.00    -0.006 A 
HETATM   26  C   UNL     1      41.710 -11.006  12.844  1.00  0.00     0.014 A 
HETATM   27  C   UNL     1      41.373 -10.562  14.127  1.00  0.00     0.007 A 
HETATM   28  C   UNL     1      42.179  -9.630  14.789  1.00  0.00    -0.062 A 
HETATM   29  C   UNL     1      41.846  -9.168  16.177  1.00  0.00     0.048 C 
HETATM   30  C   UNL     1      43.328  -9.155  14.151  1.00  0.00     0.007 A 
HETATM   31  C   UNL     1      43.667  -9.603  12.870  1.00  0.00     0.014 A 
ENDBRANCH  23  25
ENDBRANCH   1  19
TORSDOF 5
ENDMDL
MODEL 2
REMARK VINA RESULT:     -10.2      1.527     11.428
REMARK  5 active torsions:
REMARK  status: ('A' for Active; 'I' for Inactive)
REMARK    1  A    between atoms: C_5  and  C_6 
REMARK    2  A    between atoms: C_10  and  C_11 
REMARK       I    between atoms: C_11  and  N_12 
REMARK    3  A    between atoms: N_12  and  N_13 
REMARK       I    between atoms: N_13  and  C_14 
REMARK       I    between atoms: C_14  and  N_15 
REMARK    4  A    between atoms: N_15  and  C_16 
REMARK    5  A    between atoms: C_16  and  C_17 
ROOT
HETATM    1  C   UNL     1      43.448 -14.177   6.516  1.00  0.00     0.288 C 
HETATM    2  N   UNL     1      43.958 -13.830   7.747  1.00  0.00    -0.261 N 
HETATM    3  O   UNL     1      42.803 -13.394   5.823  1.00  0.00    -0.264 OA
HETATM    4  H   UNL     1      44.557 -14.447   8.291  1.00  0.00     0.190 HD
ENDROOT
BRANCH   2   5
HETATM    5  N   UNL     1      43.966 -12.486   8.153  1.00  0.00    -0.249 N 
HETATM    6  C   UNL     1      44.240 -12.266   9.485  1.00  0.00     0.334 C 
HETATM    7  N   UNL     1      44.189 -10.937   9.823  1.00  0.00    -0.341 N 
HETATM    8  O   UNL     1      44.534 -13.172  10.259  1.00  0.00    -0.246 OA
HETATM    9  H   UNL     1      44.419 -10.315   9.061  1.00  0.00     0.164 HD
HETATM   10  H   UNL     1      43.318 -11.873   7.666  1.00  0.00     0.192 HD
BRANCH   7  11
HETATM   11  C   UNL     1      44.629 -10.552  11.150  1.00  0.00     0.129 C 
BRANCH  11  12
HETATM   12  C   UNL     1      43.533  -9.963  12.048  1.00  0.00     0.004 C 
HETATM   13  C   UNL     1      42.914 -11.014  12.984  1.00  0.00     0.010 C 
HETATM   14  C   UNL     1      41.838 -10.424  13.912  1.00  0.00    -0.018 C 
HETATM   15  C   UNL     1      40.785  -9.648  13.107  1.00  0.00     0.004 C 
HETATM   16  C   UNL     1      42.452  -9.561  15.019  1.00  0.00     0.010 C 
HETATM   17  C   UNL     1      41.394  -8.616  12.159  1.00  0.00     0.001 C 
HETATM   18  C   UNL     1      42.443  -9.242  11.243  1.00  0.00     0.006 C 
ENDBRANCH  11  12
ENDBRANCH   7  11
ENDBRANCH   2   5
BRANCH   1  19
HETATM   19  C   UNL     1      43.742 -15.524   6.104  1.00  0.00     0.121 A 
HETATM   20  N   UNL     1      44.306 -16.440   6.946  1.00  0.00    -0.272 N 
HETATM   21  N   UNL     1      44.461 -17.660   6.408  1.00  0.00    -0.174 NA
HETATM   22  H   UNL     1      44.590 -16.290   7.909  1.00  0.00     0.189 HD
HETATM   23  C   UNL     1      44.000 -17.541   5.153  1.00  0.00     0.089 A 
HETATM   24  C   UNL     1      43.549 -16.211   4.922  1.00  0.00     0.071 A 
BRANCH  23  25
HETATM   25  C   UNL     1      43.969 -18.671   4.219  1.00  0.00    -0.006 A 
HETATM   26  C   UNL     1      43.231 -18.593   3.030  1.00  0.00     0.014 A 
HETATM   27  C   UNL     1      43.231 -19.650   2.115  1.00  0.00     0.007 A 
HETATM   28  C   UNL     1      43.961 -20.814   2.376  1.00  0.00    -0.062 A 
HETATM   29  C   UNL     1      43.995 -21.944   1.390  1.00  0.00     0.048 C 
HETATM   30  C   UNL     1      44.694 -20.901   3.563  1.00  0.00     0.007 A 
HETATM   31  C   UNL     1      44.696 -19.841   4.476  1.00  0.00     0.014 A 
ENDBRANCH  23  25
ENDBRANCH   1  19
TORSDOF 5
ENDMDL
MODEL 3
REMARK VINA RESULT:      -9.2      1.901     11.432
REMARK  5 active torsions:
REMARK  status: ('A' for Active; 'I' for Inactive)
REMARK    1  A    between atoms: C_5  and  C_6 
REMARK    2  A    between atoms: C_10  and  C_11 
REMARK       I    between atoms: C_11  and  N_12 
REMARK    3  A    between atoms: N_12  and  N_13 
REMARK       I    between atoms: N_13  and  C_14 
REMARK       I    between atoms: C_14  and  N_15 
REMARK    4  A    between atoms: N_15  and  C_16 
REMARK    5  A    between atoms: C_16  and  C_17 
ROOT
HETATM    1  C   UNL     1      42.333 -13.770   5.800  1.00  0.00     0.288 C 
HETATM    2  N   UNL     1      43.329 -13.330   6.643  1.00  0.00    -0.261 N 
HETATM    3  O   UNL     1      41.197 -13.301   5.817  1.00  0.00    -0.264 OA
HETATM    4  H   UNL     1      44.290 -13.660   6.582  1.00  0.00     0.190 HD
ENDROOT
BRANCH   2   5
HETATM    5  N   UNL     1      43.151 -12.157   7.392  1.00  0.00    -0.249 N 
HETATM    6  C   UNL     1      43.700 -12.166   8.656  1.00  0.00     0.334 C 
HETATM    7  N   UNL     1      43.452 -11.008   9.349  1.00  0.00    -0.341 N 
HETATM    8  O   UNL     1      44.369 -13.103   9.080  1.00  0.00    -0.246 OA
HETATM    9  H   UNL     1      43.341 -10.197   8.757  1.00  0.00     0.164 HD
HETATM   10  H   UNL     1      42.284 -11.653   7.225  1.00  0.00     0.192 HD
BRANCH   7  11
HETATM   11  C   UNL     1      44.121 -10.816  10.621  1.00  0.00     0.129 C 
BRANCH  11  12
HETATM   12  C   UNL     1      43.219 -10.314  11.756  1.00  0.00     0.004 C 
HETATM   13  C   UNL     1      44.015  -9.629  12.879  1.00  0.00     0.010 C 
HETATM   14  C   UNL     1      43.114  -9.093  14.005  1.00  0.00    -0.018 C 
HETATM   15  C   UNL     1      42.172 -10.190  14.523  1.00  0.00     0.004 C 
HETATM   16  C   UNL     1      42.340  -7.844  13.568  1.00  0.00     0.010 C 
HETATM   17  C   UNL     1      41.394 -10.889  13.411  1.00  0.00     0.001 C 
HETATM   18  C   UNL     1      42.323 -11.424  12.323  1.00  0.00     0.006 C 
ENDBRANCH  11  12
ENDBRANCH   7  11
ENDBRANCH   2   5
BRANCH   1  19
HETATM   19  C   UNL     1      42.732 -14.813   4.892  1.00  0.00     0.121 A 
HETATM   20  N   UNL     1      43.221 -14.548   3.644  1.00  0.00    -0.272 N 
HETATM   21  N   UNL     1      43.591 -15.639   2.955  1.00  0.00    -0.174 NA
HETATM   22  H   UNL     1      43.342 -13.635   3.217  1.00  0.00     0.189 HD
HETATM   23  C   UNL     1      43.316 -16.668   3.772  1.00  0.00     0.089 A 
HETATM   24  C   UNL     1      42.767 -16.189   4.994  1.00  0.00     0.071 A 
BRANCH  23  25
HETATM   25  C   UNL     1      43.597 -18.059   3.403  1.00  0.00    -0.006 A 
HETATM   26  C   UNL     1      43.264 -18.540   2.129  1.00  0.00     0.014 A 
HETATM   27  C   UNL     1      43.568 -19.853   1.756  1.00  0.00     0.007 A 
HETATM   28  C   UNL     1      44.199 -20.718   2.655  1.00  0.00    -0.062 A 
HETATM   29  C   UNL     1      44.558 -22.119   2.258  1.00  0.00     0.048 C 
HETATM   30  C   UNL     1      44.528 -20.247   3.930  1.00  0.00     0.007 A 
HETATM   31  C   UNL     1      44.227 -18.932   4.301  1.00  0.00     0.014 A 
ENDBRANCH  23  25
ENDBRANCH   1  19
TORSDOF 5
ENDMDL
MODEL 4
REMARK VINA RESULT:      -8.8      2.489     11.281
REMARK  5 active torsions:
REMARK  status: ('A' for Active; 'I' for Inactive)
REMARK    1  A    between atoms: C_5  and  C_6 
REMARK    2  A    between atoms: C_10  and  C_11 
REMARK       I    between atoms: C_11  and  N_12 
REMARK    3  A    between atoms: N_12  and  N_13 
REMARK       I    between atoms: N_13  and  C_14 
REMARK       I    between atoms: C_14  and  N_15 
REMARK    4  A    between atoms: N_15  and  C_16 
REMARK    5  A    between atoms: C_16  and  C_17 
ROOT
HETATM    1  C   UNL     1      40.870 -13.836   5.651  1.00  0.00     0.288 C 
HETATM    2  N   UNL     1      41.593 -12.918   6.380  1.00  0.00    -0.261 N 
HETATM    3  O   UNL     1      39.642 -13.878   5.672  1.00  0.00    -0.264 OA
HETATM    4  H   UNL     1      42.604 -12.828   6.309  1.00  0.00     0.190 HD
ENDROOT
BRANCH   2   5
HETATM    5  N   UNL     1      40.942 -11.834   6.990  1.00  0.00    -0.249 N 
HETATM    6  C   UNL     1      41.700 -11.108   7.884  1.00  0.00     0.334 C 
HETATM    7  N   UNL     1      40.992 -10.092   8.475  1.00  0.00    -0.341 N 
HETATM    8  O   UNL     1      42.889 -11.339   8.084  1.00  0.00    -0.246 OA
HETATM    9  H   UNL     1      40.246  -9.729   7.898  1.00  0.00     0.164 HD
HETATM   10  H   UNL     1      39.947 -11.953   7.156  1.00  0.00     0.192 HD
BRANCH   7  11
HETATM   11  C   UNL     1      41.716  -9.145   9.300  1.00  0.00     0.129 C 
BRANCH  11  12
HETATM   12  C   UNL     1      41.812  -9.524  10.784  1.00  0.00     0.004 C 
HETATM   13  C   UNL     1      43.249  -9.869  11.209  1.00  0.00     0.010 C 
HETATM   14  C   UNL     1      43.359 -10.217  12.704  1.00  0.00    -0.018 C 
HETATM   15  C   UNL     1      42.345 -11.303  13.091  1.00  0.00     0.004 C 
HETATM   16  C   UNL     1      43.221  -8.973  13.589  1.00  0.00     0.010 C 
HETATM   17  C   UNL     1      40.918 -10.977  12.653  1.00  0.00     0.001 C 
HETATM   18  C   UNL     1      40.846 -10.656  11.162  1.00  0.00     0.006 C 
ENDBRANCH  11  12
ENDBRANCH   7  11
ENDBRANCH   2   5
BRANCH   1  19
HETATM   19  C   UNL     1      41.669 -14.733   4.857  1.00  0.00     0.121 A 
HETATM   20  N   UNL     1      42.673 -14.291   4.043  1.00  0.00    -0.272 N 
HETATM   21  N   UNL     1      43.345 -15.270   3.417  1.00  0.00    -0.174 NA
HETATM   22  H   UNL     1      42.956 -13.328   3.890  1.00  0.00     0.189 HD
HETATM   23  C   UNL     1      42.747 -16.404   3.817  1.00  0.00     0.089 A 
HETATM   24  C   UNL     1      41.684 -16.105   4.715  1.00  0.00     0.071 A 
BRANCH  23  25
HETATM   25  C   UNL     1      43.199 -17.727   3.375  1.00  0.00    -0.006 A 
HETATM   26  C   UNL     1      43.994 -18.524   4.209  1.00  0.00     0.014 A 
HETATM   27  C   UNL     1      44.393 -19.804   3.811  1.00  0.00     0.007 A 
HETATM   28  C   UNL     1      44.016 -20.308   2.562  1.00  0.00    -0.062 A 
HETATM   29  C   UNL     1      44.412 -21.690   2.134  1.00  0.00     0.048 C 
HETATM   30  C   UNL     1      43.229 -19.514   1.722  1.00  0.00     0.007 A 
HETATM   31  C   UNL     1      42.828 -18.236   2.123  1.00  0.00     0.014 A 
ENDBRANCH  23  25
ENDBRANCH   1  19
TORSDOF 5
ENDMDL
MODEL 5
REMARK VINA RESULT:      -8.7      3.585      4.028
REMARK  5 active torsions:
REMARK  status: ('A' for Active; 'I' for Inactive)
REMARK    1  A    between atoms: C_5  and  C_6 
REMARK    2  A    between atoms: C_10  and  C_11 
REMARK       I    between atoms: C_11  and  N_12 
REMARK    3  A    between atoms: N_12  and  N_13 
REMARK       I    between atoms: N_13  and  C_14 
REMARK       I    between atoms: C_14  and  N_15 
REMARK    4  A    between atoms: N_15  and  C_16 
REMARK    5  A    between atoms: C_16  and  C_17 
ROOT
HETATM    1  C   UNL     1      39.407 -12.455   6.526  1.00  0.00     0.288 C 
HETATM    2  N   UNL     1      40.179 -13.580   6.707  1.00  0.00    -0.261 N 
HETATM    3  O   UNL     1      38.598 -12.349   5.607  1.00  0.00    -0.264 OA
HETATM    4  H   UNL     1      40.794 -13.705   7.509  1.00  0.00     0.190 HD
ENDROOT
BRANCH   2   5
HETATM    5  N   UNL     1      39.897 -14.752   5.987  1.00  0.00    -0.249 N 
HETATM    6  C   UNL     1      40.934 -15.652   5.882  1.00  0.00     0.334 C 
HETATM    7  N   UNL     1      40.606 -16.753   5.130  1.00  0.00    -0.341 N 
HETATM    8  O   UNL     1      42.014 -15.487   6.442  1.00  0.00    -0.246 OA
HETATM    9  H   UNL     1      39.622 -16.982   5.156  1.00  0.00     0.164 HD
HETATM   10  H   UNL     1      39.240 -14.651   5.219  1.00  0.00     0.192 HD
BRANCH   7  11
HETATM   11  C   UNL     1      41.545 -17.857   5.088  1.00  0.00     0.129 C 
BRANCH  11  12
HETATM   12  C   UNL     1      42.073 -18.201   3.689  1.00  0.00     0.004 C 
HETATM   13  C   UNL     1      43.560 -18.588   3.702  1.00  0.00     0.010 C 
HETATM   14  C   UNL     1      44.089 -18.968   2.308  1.00  0.00    -0.018 C 
HETATM   15  C   UNL     1      43.765 -17.873   1.281  1.00  0.00     0.004 C 
HETATM   16  C   UNL     1      43.568 -20.337   1.856  1.00  0.00     0.010 C 
HETATM   17  C   UNL     1      42.293 -17.468   1.277  1.00  0.00     0.001 C 
HETATM   18  C   UNL     1      41.811 -17.080   2.673  1.00  0.00     0.006 C 
ENDBRANCH  11  12
ENDBRANCH   7  11
ENDBRANCH   2   5
BRANCH   1  19
HETATM   19  C   UNL     1      39.615 -11.420   7.504  1.00  0.00     0.121 A 
HETATM   20  N   UNL     1      40.358 -10.304   7.241  1.00  0.00    -0.272 N 
HETATM   21  N   UNL     1      40.404  -9.422   8.252  1.00  0.00    -0.174 NA
HETATM   22  H   UNL     1      40.843 -10.083   6.377  1.00  0.00     0.189 HD
HETATM   23  C   UNL     1      39.679  -9.987   9.231  1.00  0.00     0.089 A 
HETATM   24  C   UNL     1      39.176 -11.247   8.801  1.00  0.00     0.071 A 
BRANCH  23  25
HETATM   25  C   UNL     1      39.456  -9.328  10.521  1.00  0.00    -0.006 A 
HETATM   26  C   UNL     1      38.167  -9.248  11.068  1.00  0.00     0.014 A 
HETATM   27  C   UNL     1      37.954  -8.658  12.318  1.00  0.00     0.007 A 
HETATM   28  C   UNL     1      39.023  -8.124  13.042  1.00  0.00    -0.062 A 
HETATM   29  C   UNL     1      38.813  -7.515  14.397  1.00  0.00     0.048 C 
HETATM   30  C   UNL     1      40.310  -8.193  12.499  1.00  0.00     0.007 A 
HETATM   31  C   UNL     1      40.523  -8.787  11.251  1.00  0.00     0.014 A 
ENDBRANCH  23  25
ENDBRANCH   1  19
TORSDOF 5
ENDMDL
MODEL 6
REMARK VINA RESULT:      -8.6      3.556     11.273
REMARK  5 active torsions:
REMARK  status: ('A' for Active; 'I' for Inactive)
REMARK    1  A    between atoms: C_5  and  C_6 
REMARK    2  A    between atoms: C_10  and  C_11 
REMARK       I    between atoms: C_11  and  N_12 
REMARK    3  A    between atoms: N_12  and  N_13 
REMARK       I    between atoms: N_13  and  C_14 
REMARK       I    between atoms: C_14  and  N_15 
REMARK    4  A    between atoms: N_15  and  C_16 
REMARK    5  A    between atoms: C_16  and  C_17 
ROOT
HETATM    1  C   UNL     1      39.215 -12.786   5.968  1.00  0.00     0.288 C 
HETATM    2  N   UNL     1      39.427 -13.019   7.308  1.00  0.00    -0.261 N 
HETATM    3  O   UNL     1      38.590 -11.811   5.556  1.00  0.00    -0.264 OA
HETATM    4  H   UNL     1      40.007 -13.781   7.652  1.00  0.00     0.190 HD
ENDROOT
BRANCH   2   5
HETATM    5  N   UNL     1      39.142 -12.018   8.250  1.00  0.00    -0.249 N 
HETATM    6  C   UNL     1      40.216 -11.255   8.653  1.00  0.00     0.334 C 
HETATM    7  N   UNL     1      39.879 -10.326   9.606  1.00  0.00    -0.341 N 
HETATM    8  O   UNL     1      41.338 -11.383   8.170  1.00  0.00    -0.246 OA
HETATM    9  H   UNL     1      38.920 -10.015   9.545  1.00  0.00     0.164 HD
HETATM   10  H   UNL     1      38.402 -12.232   8.913  1.00  0.00     0.192 HD
BRANCH   7  11
HETATM   11  C   UNL     1      40.874  -9.343   9.985  1.00  0.00     0.129 C 
BRANCH  11  12
HETATM   12  C   UNL     1      41.639  -9.665  11.277  1.00  0.00     0.004 C 
HETATM   13  C   UNL     1      41.420  -8.603  12.367  1.00  0.00     0.010 C 
HETATM   14  C   UNL     1      42.156  -8.936  13.677  1.00  0.00    -0.018 C 
HETATM   15  C   UNL     1      43.641  -9.225  13.414  1.00  0.00     0.004 C 
HETATM   16  C   UNL     1      41.482 -10.087  14.431  1.00  0.00     0.010 C 
HETATM   17  C   UNL     1      43.867 -10.262  12.316  1.00  0.00     0.001 C 
HETATM   18  C   UNL     1      43.137  -9.888  11.028  1.00  0.00     0.006 C 
ENDBRANCH  11  12
ENDBRANCH   7  11
ENDBRANCH   2   5
BRANCH   1  19
HETATM   19  C   UNL     1      39.793 -13.768   5.089  1.00  0.00     0.121 A 
HETATM   20  N   UNL     1      39.707 -13.675   3.729  1.00  0.00    -0.272 N 
HETATM   21  N   UNL     1      40.347 -14.652   3.068  1.00  0.00    -0.174 NA
HETATM   22  H   UNL     1      39.236 -12.951   3.196  1.00  0.00     0.189 HD
HETATM   23  C   UNL     1      40.860 -15.435   4.030  1.00  0.00     0.089 A 
HETATM   24  C   UNL     1      40.525 -14.917   5.313  1.00  0.00     0.071 A 
BRANCH  23  25
HETATM   25  C   UNL     1      41.667 -16.622   3.728  1.00  0.00    -0.006 A 
HETATM   26  C   UNL     1      41.813 -17.067   2.407  1.00  0.00     0.014 A 
HETATM   27  C   UNL     1      42.615 -18.173   2.107  1.00  0.00     0.007 A 
HETATM   28  C   UNL     1      43.277 -18.865   3.125  1.00  0.00    -0.062 A 
HETATM   29  C   UNL     1      44.165 -20.034   2.815  1.00  0.00     0.048 C 
HETATM   30  C   UNL     1      43.130 -18.431   4.446  1.00  0.00     0.007 A 
HETATM   31  C   UNL     1      42.330 -17.323   4.744  1.00  0.00     0.014 A 
ENDBRANCH  23  25
ENDBRANCH   1  19
TORSDOF 5
ENDMDL
MODEL 7
REMARK VINA RESULT:      -8.3      3.131      3.648
REMARK  5 active torsions:
REMARK  status: ('A' for Active; 'I' for Inactive)
REMARK    1  A    between atoms: C_5  and  C_6 
REMARK    2  A    between atoms: C_10  and  C_11 
REMARK       I    between atoms: C_11  and  N_12 
REMARK    3  A    between atoms: N_12  and  N_13 
REMARK       I    between atoms: N_13  and  C_14 
REMARK       I    between atoms: C_14  and  N_15 
REMARK    4  A    between atoms: N_15  and  C_16 
REMARK    5  A    between atoms: C_16  and  C_17 
ROOT
HETATM    1  C   UNL     1      39.530 -12.166   6.634  1.00  0.00     0.288 C 
HETATM    2  N   UNL     1      40.298 -13.308   6.603  1.00  0.00    -0.261 N 
HETATM    3  O   UNL     1      38.670 -11.923   5.789  1.00  0.00    -0.264 OA
HETATM    4  H   UNL     1      40.956 -13.552   7.340  1.00  0.00     0.190 HD
ENDROOT
BRANCH   2   5
HETATM    5  N   UNL     1      39.960 -14.361   5.738  1.00  0.00    -0.249 N 
HETATM    6  C   UNL     1      40.841 -15.420   5.714  1.00  0.00     0.334 C 
HETATM    7  N   UNL     1      40.476 -16.392   4.816  1.00  0.00    -0.341 N 
HETATM    8  O   UNL     1      41.820 -15.484   6.453  1.00  0.00    -0.246 OA
HETATM    9  H   UNL     1      39.479 -16.447   4.662  1.00  0.00     0.164 HD
HETATM   10  H   UNL     1      39.473 -14.094   4.887  1.00  0.00     0.192 HD
BRANCH   7  11
HETATM   11  C   UNL     1      41.218 -17.638   4.819  1.00  0.00     0.129 C 
BRANCH  11  12
HETATM   12  C   UNL     1      41.911 -17.978   3.493  1.00  0.00     0.004 C 
HETATM   13  C   UNL     1      43.375 -18.406   3.689  1.00  0.00     0.010 C 
HETATM   14  C   UNL     1      44.067 -18.782   2.367  1.00  0.00    -0.018 C 
HETATM   15  C   UNL     1      43.905 -17.665   1.326  1.00  0.00     0.004 C 
HETATM   16  C   UNL     1      43.573 -20.130   1.830  1.00  0.00     0.010 C 
HETATM   17  C   UNL     1      42.456 -17.220   1.141  1.00  0.00     0.001 C 
HETATM   18  C   UNL     1      41.810 -16.837   2.471  1.00  0.00     0.006 C 
ENDBRANCH  11  12
ENDBRANCH   7  11
ENDBRANCH   2   5
BRANCH   1  19
HETATM   19  C   UNL     1      39.807 -11.286   7.739  1.00  0.00     0.121 A 
HETATM   20  N   UNL     1      39.051 -10.178   7.999  1.00  0.00    -0.272 N 
HETATM   21  N   UNL     1      39.423  -9.504   9.099  1.00  0.00    -0.174 NA
HETATM   22  H   UNL     1      38.254  -9.844   7.466  1.00  0.00     0.189 HD
HETATM   23  C   UNL     1      40.480 -10.182   9.573  1.00  0.00     0.089 A 
HETATM   24  C   UNL     1      40.757 -11.302   8.740  1.00  0.00     0.071 A 
BRANCH  23  25
HETATM   25  C   UNL     1      41.182  -9.783  10.798  1.00  0.00    -0.006 A 
HETATM   26  C   UNL     1      40.485  -9.180  11.854  1.00  0.00     0.014 A 
HETATM   27  C   UNL     1      41.140  -8.836  13.041  1.00  0.00     0.007 A 
HETATM   28  C   UNL     1      42.509  -9.077  13.191  1.00  0.00    -0.062 A 
HETATM   29  C   UNL     1      43.218  -8.741  14.470  1.00  0.00     0.048 C 
HETATM   30  C   UNL     1      43.211  -9.671  12.138  1.00  0.00     0.007 A 
HETATM   31  C   UNL     1      42.555 -10.018  10.953  1.00  0.00     0.014 A 
ENDBRANCH  23  25
ENDBRANCH   1  19
TORSDOF 5
ENDMDL
MODEL 8
REMARK VINA RESULT:      -8.2      2.835     11.116
REMARK  5 active torsions:
REMARK  status: ('A' for Active; 'I' for Inactive)
REMARK    1  A    between atoms: C_5  and  C_6 
REMARK    2  A    between atoms: C_10  and  C_11 
REMARK       I    between atoms: C_11  and  N_12 
REMARK    3  A    between atoms: N_12  and  N_13 
REMARK       I    between atoms: N_13  and  C_14 
REMARK       I    between atoms: C_14  and  N_15 
REMARK    4  A    between atoms: N_15  and  C_16 
REMARK    5  A    between atoms: C_16  and  C_17 
ROOT
HETATM    1  C   UNL     1      43.881 -14.623   6.760  1.00  0.00     0.288 C 
HETATM    2  N   UNL     1      43.777 -13.339   7.248  1.00  0.00    -0.261 N 
HETATM    3  O   UNL     1      44.628 -15.462   7.259  1.00  0.00    -0.264 OA
HETATM    4  H   UNL     1      43.106 -12.664   6.890  1.00  0.00     0.190 HD
ENDROOT
BRANCH   2   5
HETATM    5  N   UNL     1      44.345 -13.011   8.490  1.00  0.00    -0.249 N 
HETATM    6  C   UNL     1      44.021 -11.765   8.983  1.00  0.00     0.334 C 
HETATM    7  N   UNL     1      44.642 -11.490  10.175  1.00  0.00    -0.341 N 
HETATM    8  O   UNL     1      43.228 -11.016   8.419  1.00  0.00    -0.246 OA
HETATM    9  H   UNL     1      44.842 -12.312  10.727  1.00  0.00     0.164 HD
HETATM   10  H   UNL     1      45.266 -13.398   8.671  1.00  0.00     0.192 HD
BRANCH   7  11
HETATM   11  C   UNL     1      44.251 -10.290  10.889  1.00  0.00     0.129 C 
BRANCH  11  12
HETATM   12  C   UNL     1      43.157 -10.494  11.945  1.00  0.00     0.004 C 
HETATM   13  C   UNL     1      41.777 -10.022  11.459  1.00  0.00     0.010 C 
HETATM   14  C   UNL     1      40.668 -10.255  12.500  1.00  0.00    -0.018 C 
HETATM   15  C   UNL     1      41.058  -9.659  13.860  1.00  0.00     0.004 C 
HETATM   16  C   UNL     1      40.301 -11.738  12.617  1.00  0.00     0.010 C 
HETATM   17  C   UNL     1      42.437 -10.107  14.339  1.00  0.00     0.001 C 
HETATM   18  C   UNL     1      43.513  -9.842  13.288  1.00  0.00     0.006 C 
ENDBRANCH  11  12
ENDBRANCH   7  11
ENDBRANCH   2   5
BRANCH   1  19
HETATM   19  C   UNL     1      43.037 -14.904   5.629  1.00  0.00     0.121 A 
HETATM   20  N   UNL     1      41.757 -15.361   5.767  1.00  0.00    -0.272 N 
HETATM   21  N   UNL     1      41.100 -15.520   4.607  1.00  0.00    -0.174 NA
HETATM   22  H   UNL     1      41.272 -15.565   6.635  1.00  0.00     0.189 HD
HETATM   23  C   UNL     1      41.990 -15.174   3.662  1.00  0.00     0.089 A 
HETATM   24  C   UNL     1      43.220 -14.790   4.266  1.00  0.00     0.071 A 
BRANCH  23  25
HETATM   25  C   UNL     1      41.659 -15.185   2.233  1.00  0.00    -0.006 A 
HETATM   26  C   UNL     1      41.016 -14.088   1.642  1.00  0.00     0.014 A 
HETATM   27  C   UNL     1      40.737 -14.075   0.271  1.00  0.00     0.007 A 
HETATM   28  C   UNL     1      41.083 -15.164  -0.534  1.00  0.00    -0.062 A 
HETATM   29  C   UNL     1      40.816 -15.150  -2.010  1.00  0.00     0.048 C 
HETATM   30  C   UNL     1      41.718 -16.263   0.051  1.00  0.00     0.007 A 
HETATM   31  C   UNL     1      42.001 -16.275   1.421  1.00  0.00     0.014 A 
ENDBRANCH  23  25
ENDBRANCH   1  19
TORSDOF 5
ENDMDL
MODEL 9
REMARK VINA RESULT:      -8.2      8.870     12.636
REMARK  5 active torsions:
REMARK  status: ('A' for Active; 'I' for Inactive)
REMARK    1  A    between atoms: C_5  and  C_6 
REMARK    2  A    between atoms: C_10  and  C_11 
REMARK       I    between atoms: C_11  and  N_12 
REMARK    3  A    between atoms: N_12  and  N_13 
REMARK       I    between atoms: N_13  and  C_14 
REMARK       I    between atoms: C_14  and  N_15 
REMARK    4  A    between atoms: N_15  and  C_16 
REMARK    5  A    between atoms: C_16  and  C_17 
ROOT
HETATM    1  C   UNL     1      40.368 -15.606   0.981  1.00  0.00     0.288 C 
HETATM    2  N   UNL     1      40.323 -15.130  -0.310  1.00  0.00    -0.261 N 
HETATM    3  O   UNL     1      39.569 -15.253   1.846  1.00  0.00    -0.264 OA
HETATM    4  H   UNL     1      40.932 -15.475  -1.048  1.00  0.00     0.190 HD
ENDROOT
BRANCH   2   5
HETATM    5  N   UNL     1      39.207 -14.402  -0.753  1.00  0.00    -0.249 N 
HETATM    6  C   UNL     1      39.062 -14.304  -2.119  1.00  0.00     0.334 C 
HETATM    7  N   UNL     1      37.979 -13.544  -2.484  1.00  0.00    -0.341 N 
HETATM    8  O   UNL     1      39.810 -14.876  -2.907  1.00  0.00    -0.246 OA
HETATM    9  H   UNL     1      37.229 -13.558  -1.808  1.00  0.00     0.164 HD
HETATM   10  H   UNL     1      38.922 -13.626  -0.161  1.00  0.00     0.192 HD
BRANCH   7  11
HETATM   11  C   UNL     1      37.611 -13.507  -3.886  1.00  0.00     0.129 C 
BRANCH  11  12
HETATM   12  C   UNL     1      36.401 -12.621  -4.212  1.00  0.00     0.004 C 
HETATM   13  C   UNL     1      36.046 -11.667  -3.061  1.00  0.00     0.010 C 
HETATM   14  C   UNL     1      34.855 -10.751  -3.394  1.00  0.00    -0.018 C 
HETATM   15  C   UNL     1      33.652 -11.570  -3.883  1.00  0.00     0.004 C 
HETATM   16  C   UNL     1      35.240  -9.659  -4.398  1.00  0.00     0.010 C 
HETATM   17  C   UNL     1      34.002 -12.537  -5.012  1.00  0.00     0.001 C 
HETATM   18  C   UNL     1      35.175 -13.441  -4.638  1.00  0.00     0.006 C 
ENDBRANCH  11  12
ENDBRANCH   7  11
ENDBRANCH   2   5
BRANCH   1  19
HETATM   19  C   UNL     1      41.418 -16.558   1.233  1.00  0.00     0.121 A 
HETATM   20  N   UNL     1      42.567 -16.590   0.494  1.00  0.00    -0.272 N 
HETATM   21  N   UNL     1      43.457 -17.509   0.901  1.00  0.00    -0.174 NA
HETATM   22  H   UNL     1      42.805 -15.993  -0.292  1.00  0.00     0.189 HD
HETATM   23  C   UNL     1      42.864 -18.123   1.937  1.00  0.00     0.089 A 
HETATM   24  C   UNL     1      41.579 -17.559   2.169  1.00  0.00     0.071 A 
BRANCH  23  25
HETATM   25  C   UNL     1      43.521 -19.194   2.694  1.00  0.00    -0.006 A 
HETATM   26  C   UNL     1      43.906 -18.992   4.027  1.00  0.00     0.014 A 
HETATM   27  C   UNL     1      44.494 -20.022   4.768  1.00  0.00     0.007 A 
HETATM   28  C   UNL     1      44.721 -21.273   4.186  1.00  0.00    -0.062 A 
HETATM   29  C   UNL     1      45.323 -22.397   4.977  1.00  0.00     0.048 C 
HETATM   30  C   UNL     1      44.346 -21.479   2.855  1.00  0.00     0.007 A 
HETATM   31  C   UNL     1      43.754 -20.449   2.116  1.00  0.00     0.014 A 
ENDBRANCH  23  25
ENDBRANCH   1  19
TORSDOF 5
ENDMDL
MODEL 10
REMARK VINA RESULT:      -8.0      7.851     12.764
REMARK  5 active torsions:
REMARK  status: ('A' for Active; 'I' for Inactive)
REMARK    1  A    between atoms: C_5  and  C_6 
REMARK    2  A    between atoms: C_10  and  C_11 
REMARK       I    between atoms: C_11  and  N_12 
REMARK    3  A    between atoms: N_12  and  N_13 
REMARK       I    between atoms: N_13  and  C_14 
REMARK       I    between atoms: C_14  and  N_15 
REMARK    4  A    between atoms: N_15  and  C_16 
REMARK    5  A    between atoms: C_16  and  C_17 
ROOT
HETATM    1  C   UNL     1      40.998 -14.776  -1.314  1.00  0.00     0.288 C 
HETATM    2  N   UNL     1      40.981 -15.909  -0.531  1.00  0.00    -0.261 N 
HETATM    3  O   UNL     1      41.896 -13.940  -1.250  1.00  0.00    -0.264 OA
HETATM    4  H   UNL     1      40.282 -16.641  -0.633  1.00  0.00     0.190 HD
ENDROOT
BRANCH   2   5
HETATM    5  N   UNL     1      42.121 -16.274   0.202  1.00  0.00    -0.249 N 
HETATM    6  C   UNL     1      41.950 -17.310   1.094  1.00  0.00     0.334 C 
HETATM    7  N   UNL     1      43.089 -17.588   1.808  1.00  0.00    -0.341 N 
HETATM    8  O   UNL     1      40.896 -17.931   1.194  1.00  0.00    -0.246 OA
HETATM    9  H   UNL     1      43.941 -17.366   1.313  1.00  0.00     0.164 HD
HETATM   10  H   UNL     1      42.763 -15.519   0.427  1.00  0.00     0.192 HD
BRANCH   7  11
HETATM   11  C   UNL     1      43.097 -18.767   2.651  1.00  0.00     0.129 C 
BRANCH  11  12
HETATM   12  C   UNL     1      43.298 -18.490   4.147  1.00  0.00     0.004 C 
HETATM   13  C   UNL     1      43.375 -16.986   4.460  1.00  0.00     0.010 C 
HETATM   14  C   UNL     1      43.542 -16.699   5.962  1.00  0.00    -0.018 C 
HETATM   15  C   UNL     1      44.721 -17.492   6.544  1.00  0.00     0.004 C 
HETATM   16  C   UNL     1      42.247 -16.962   6.739  1.00  0.00     0.010 C 
HETATM   17  C   UNL     1      44.663 -18.983   6.219  1.00  0.00     0.001 C 
HETATM   18  C   UNL     1      44.517 -19.227   4.719  1.00  0.00     0.006 C 
ENDBRANCH  11  12
ENDBRANCH   7  11
ENDBRANCH   2   5
BRANCH   1  19
HETATM   19  C   UNL     1      39.885 -14.657  -2.219  1.00  0.00     0.121 A 
HETATM   20  N   UNL     1      39.568 -15.633  -3.122  1.00  0.00    -0.272 N 
HETATM   21  N   UNL     1      38.470 -15.375  -3.849  1.00  0.00    -0.174 NA
HETATM   22  H   UNL     1      40.060 -16.509  -3.271  1.00  0.00     0.189 HD
HETATM   23  C   UNL     1      38.056 -14.171  -3.425  1.00  0.00     0.089 A 
HETATM   24  C   UNL     1      38.924 -13.684  -2.409  1.00  0.00     0.071 A 
BRANCH  23  25
HETATM   25  C   UNL     1      36.852 -13.524  -3.958  1.00  0.00    -0.006 A 
HETATM   26  C   UNL     1      35.952 -14.241  -4.759  1.00  0.00     0.014 A 
HETATM   27  C   UNL     1      34.781 -13.642  -5.235  1.00  0.00     0.007 A 
HETATM   28  C   UNL     1      34.492 -12.309  -4.931  1.00  0.00    -0.062 A 
HETATM   29  C   UNL     1      33.226 -11.662  -5.409  1.00  0.00     0.048 C 
HETATM   30  C   UNL     1      35.390 -11.585  -4.139  1.00  0.00     0.007 A 
HETATM   31  C   UNL     1      36.559 -12.186  -3.660  1.00  0.00     0.014 A 
ENDBRANCH  23  25
ENDBRANCH   1  19
TORSDOF 5
ENDMDL
