MODEL 1
REMARK VINA RESULT:      -8.1      0.000      0.000
REMARK  7 active torsions:
REMARK  status: ('A' for Active; 'I' for Inactive)
REMARK    1  A    between atoms: C_2  and  N_3 
REMARK    2  A    between atoms: N_3  and  C_4 
REMARK    3  A    between atoms: C_6  and  N_7 
REMARK    4  A    between atoms: N_7  and  C_8 
REMARK    5  A    between atoms: C_8  and  C_9 
REMARK    6  A    between atoms: C_10  and  O_11 
REMARK    7  A    between atoms: C_14  and  O_15 
ROOT
HETATM    1  C   UNL     1      43.843 -18.467   3.260  1.00  0.00     0.135 A 
HETATM    2  N   UNL     1      44.094 -17.802   4.402  1.00  0.00    -0.052 NA
HETATM    3  C   UNL     1      44.542 -18.483   5.468  1.00  0.00     0.702 A 
HETATM    4  N   UNL     1      44.753 -19.797   5.427  1.00  0.00    -0.189 N 
HETATM    5  H   UNL     1      45.114 -20.237   6.260  1.00  0.00     0.184 HD
HETATM    6  C   UNL     1      44.546 -20.505   4.311  1.00  0.00     0.062 A 
HETATM    7  C   UNL     1      44.079 -19.852   3.154  1.00  0.00     0.032 A 
HETATM    8  C   UNL     1      44.810 -21.884   4.297  1.00  0.00     0.031 A 
HETATM    9  C   UNL     1      44.623 -22.623   3.129  1.00  0.00     0.002 A 
HETATM   10  C   UNL     1      44.175 -21.992   1.973  1.00  0.00     0.001 A 
HETATM   11  C   UNL     1      43.906 -20.621   1.981  1.00  0.00     0.017 A 
ENDROOT
BRANCH   3  12
HETATM   12  N   UNL     1      44.844 -17.838   6.638  1.00  0.00    -0.220 N 
HETATM   13  H   UNL     1      45.748 -17.891   7.083  1.00  0.00     0.178 HD
BRANCH  12  14
HETATM   14  C   UNL     1      43.768 -17.369   7.508  1.00  0.00     0.179 C 
BRANCH  14  15
HETATM   15  C   UNL     1      42.876 -16.361   6.808  1.00  0.00    -0.006 A 
HETATM   16  C   UNL     1      43.396 -15.091   6.481  1.00  0.00     0.078 A 
HETATM   17  C   UNL     1      42.578 -14.126   5.874  1.00  0.00     0.074 A 
HETATM   18  C   UNL     1      41.237 -14.404   5.607  1.00  0.00     0.070 A 
HETATM   19  C   UNL     1      40.716 -15.652   5.943  1.00  0.00     0.037 A 
HETATM   20  C   UNL     1      41.520 -16.618   6.546  1.00  0.00     0.014 A 
BRANCH  16  21
HETATM   21  O   UNL     1      44.717 -14.897   6.803  1.00  0.00    -0.355 OA
HETATM   22  C   UNL     1      45.075 -13.650   7.390  1.00  0.00     0.210 C 
ENDBRANCH  16  21
BRANCH  18  23
HETATM   23  O   UNL     1      40.334 -13.555   5.029  1.00  0.00    -0.356 OA
HETATM   24  C   UNL     1      39.369 -12.952   5.882  1.00  0.00     0.210 C 
ENDBRANCH  18  23
ENDBRANCH  14  15
ENDBRANCH  12  14
ENDBRANCH   3  12
BRANCH   1  25
HETATM   25  N   UNL     1      43.409 -17.746   2.145  1.00  0.00    -0.272 NA
HETATM   26  H   UNL     1      43.471 -18.292   1.288  1.00  0.00     0.129 HD
BRANCH  25  27
HETATM   27  C   UNL     1      42.143 -17.005   2.233  1.00  0.00     0.053 C 
HETATM   28  C   UNL     1      41.187 -17.429   1.118  1.00  0.00     0.026 C 
HETATM   29  C   UNL     1      42.461 -15.514   2.111  1.00  0.00     0.026 C 
ENDBRANCH  25  27
ENDBRANCH   1  25
TORSDOF 7
ENDMDL
MODEL 2
REMARK VINA RESULT:      -7.7      2.475      4.964
REMARK  7 active torsions:
REMARK  status: ('A' for Active; 'I' for Inactive)
REMARK    1  A    between atoms: C_2  and  N_3 
REMARK    2  A    between atoms: N_3  and  C_4 
REMARK    3  A    between atoms: C_6  and  N_7 
REMARK    4  A    between atoms: N_7  and  C_8 
REMARK    5  A    between atoms: C_8  and  C_9 
REMARK    6  A    between atoms: C_10  and  O_11 
REMARK    7  A    between atoms: C_14  and  O_15 
ROOT
HETATM    1  C   UNL     1      44.260 -18.518   4.477  1.00  0.00     0.135 A 
HETATM    2  N   UNL     1      43.907 -17.683   3.484  1.00  0.00    -0.052 NA
HETATM    3  C   UNL     1      43.736 -18.176   2.248  1.00  0.00     0.702 A 
HETATM    4  N   UNL     1      43.900 -19.469   1.976  1.00  0.00    -0.189 N 
HETATM    5  H   UNL     1      43.731 -19.772   1.029  1.00  0.00     0.184 HD
HETATM    6  C   UNL     1      44.226 -20.349   2.929  1.00  0.00     0.062 A 
HETATM    7  C   UNL     1      44.416 -19.899   4.250  1.00  0.00     0.032 A 
HETATM    8  C   UNL     1      44.359 -21.710   2.610  1.00  0.00     0.031 A 
HETATM    9  C   UNL     1      44.671 -22.637   3.605  1.00  0.00     0.002 A 
HETATM   10  C   UNL     1      44.849 -22.212   4.918  1.00  0.00     0.001 A 
HETATM   11  C   UNL     1      44.723 -20.860   5.241  1.00  0.00     0.017 A 
ENDROOT
BRANCH   3  12
HETATM   12  N   UNL     1      43.341 -17.366   1.216  1.00  0.00    -0.220 N 
HETATM   13  H   UNL     1      43.966 -16.740   0.732  1.00  0.00     0.178 HD
BRANCH  12  14
HETATM   14  C   UNL     1      41.922 -17.074   1.025  1.00  0.00     0.179 C 
BRANCH  14  15
HETATM   15  C   UNL     1      41.704 -15.680   0.467  1.00  0.00    -0.006 A 
HETATM   16  C   UNL     1      41.876 -14.564   1.313  1.00  0.00     0.078 A 
HETATM   17  C   UNL     1      41.637 -13.268   0.833  1.00  0.00     0.074 A 
HETATM   18  C   UNL     1      41.204 -13.070  -0.480  1.00  0.00     0.070 A 
HETATM   19  C   UNL     1      41.018 -14.171  -1.313  1.00  0.00     0.037 A 
HETATM   20  C   UNL     1      41.254 -15.463  -0.846  1.00  0.00     0.014 A 
BRANCH  16  21
HETATM   21  O   UNL     1      42.278 -14.856   2.593  1.00  0.00    -0.355 OA
HETATM   22  C   UNL     1      43.366 -14.108   3.128  1.00  0.00     0.210 C 
ENDBRANCH  16  21
BRANCH  18  23
HETATM   23  O   UNL     1      40.930 -11.866  -1.067  1.00  0.00    -0.356 OA
HETATM   24  C   UNL     1      40.281 -11.893  -2.333  1.00  0.00     0.210 C 
ENDBRANCH  18  23
ENDBRANCH  14  15
ENDBRANCH  12  14
ENDBRANCH   3  12
BRANCH   1  25
HETATM   25  N   UNL     1      44.403 -18.003   5.768  1.00  0.00    -0.272 NA
HETATM   26  H   UNL     1      45.377 -17.821   6.003  1.00  0.00     0.129 HD
BRANCH  25  27
HETATM   27  C   UNL     1      43.522 -16.906   6.192  1.00  0.00     0.053 C 
HETATM   28  C   UNL     1      44.337 -15.740   6.751  1.00  0.00     0.026 C 
HETATM   29  C   UNL     1      42.580 -17.448   7.268  1.00  0.00     0.026 C 
ENDBRANCH  25  27
ENDBRANCH   1  25
TORSDOF 7
ENDMDL
MODEL 3
REMARK VINA RESULT:      -7.6      2.116      4.593
REMARK  7 active torsions:
REMARK  status: ('A' for Active; 'I' for Inactive)
REMARK    1  A    between atoms: C_2  and  N_3 
REMARK    2  A    between atoms: N_3  and  C_4 
REMARK    3  A    between atoms: C_6  and  N_7 
REMARK    4  A    between atoms: N_7  and  C_8 
REMARK    5  A    between atoms: C_8  and  C_9 
REMARK    6  A    between atoms: C_10  and  O_11 
REMARK    7  A    between atoms: C_14  and  O_15 
ROOT
HETATM    1  C   UNL     1      44.071 -18.244   4.117  1.00  0.00     0.135 A 
HETATM    2  N   UNL     1      43.698 -17.381   3.155  1.00  0.00    -0.052 NA
HETATM    3  C   UNL     1      43.529 -17.834   1.904  1.00  0.00     0.702 A 
HETATM    4  N   UNL     1      43.714 -19.113   1.586  1.00  0.00    -0.189 N 
HETATM    5  H   UNL     1      43.544 -19.386   0.629  1.00  0.00     0.184 HD
HETATM    6  C   UNL     1      44.060 -20.020   2.506  1.00  0.00     0.062 A 
HETATM    7  C   UNL     1      44.250 -19.614   3.841  1.00  0.00     0.032 A 
HETATM    8  C   UNL     1      44.214 -21.367   2.139  1.00  0.00     0.031 A 
HETATM    9  C   UNL     1      44.548 -22.322   3.099  1.00  0.00     0.002 A 
HETATM   10  C   UNL     1      44.725 -21.941   4.425  1.00  0.00     0.001 A 
HETATM   11  C   UNL     1      44.578 -20.602   4.797  1.00  0.00     0.017 A 
ENDROOT
BRANCH   3  12
HETATM   12  N   UNL     1      43.114 -16.995   0.902  1.00  0.00    -0.220 N 
HETATM   13  H   UNL     1      43.671 -16.230   0.554  1.00  0.00     0.178 HD
BRANCH  12  14
HETATM   14  C   UNL     1      41.695 -16.916   0.563  1.00  0.00     0.179 C 
BRANCH  14  15
HETATM   15  C   UNL     1      41.019 -15.736   1.236  1.00  0.00    -0.006 A 
HETATM   16  C   UNL     1      41.137 -14.454   0.658  1.00  0.00     0.078 A 
HETATM   17  C   UNL     1      40.558 -13.340   1.284  1.00  0.00     0.074 A 
HETATM   18  C   UNL     1      39.881 -13.484   2.496  1.00  0.00     0.070 A 
HETATM   19  C   UNL     1      39.778 -14.747   3.077  1.00  0.00     0.037 A 
HETATM   20  C   UNL     1      40.348 -15.860   2.463  1.00  0.00     0.014 A 
BRANCH  16  21
HETATM   21  O   UNL     1      41.841 -14.403  -0.520  1.00  0.00    -0.355 OA
HETATM   22  C   UNL     1      41.144 -13.978  -1.686  1.00  0.00     0.210 C 
ENDBRANCH  16  21
BRANCH  18  23
HETATM   23  O   UNL     1      39.281 -12.484   3.211  1.00  0.00    -0.356 OA
HETATM   24  C   UNL     1      39.481 -12.481   4.619  1.00  0.00     0.210 C 
ENDBRANCH  18  23
ENDBRANCH  14  15
ENDBRANCH  12  14
ENDBRANCH   3  12
BRANCH   1  25
HETATM   25  N   UNL     1      44.213 -17.772   5.425  1.00  0.00    -0.272 NA
HETATM   26  H   UNL     1      45.190 -17.676   5.694  1.00  0.00     0.129 HD
BRANCH  25  27
HETATM   27  C   UNL     1      43.411 -16.616   5.848  1.00  0.00     0.053 C 
HETATM   28  C   UNL     1      44.221 -15.700   6.766  1.00  0.00     0.026 C 
HETATM   29  C   UNL     1      42.180 -17.142   6.588  1.00  0.00     0.026 C 
ENDBRANCH  25  27
ENDBRANCH   1  25
TORSDOF 7
ENDMDL
MODEL 4
REMARK VINA RESULT:      -7.4      3.314      6.143
REMARK  7 active torsions:
REMARK  status: ('A' for Active; 'I' for Inactive)
REMARK    1  A    between atoms: C_2  and  N_3 
REMARK    2  A    between atoms: N_3  and  C_4 
REMARK    3  A    between atoms: C_6  and  N_7 
REMARK    4  A    between atoms: N_7  and  C_8 
REMARK    5  A    between atoms: C_8  and  C_9 
REMARK    6  A    between atoms: C_10  and  O_11 
REMARK    7  A    between atoms: C_14  and  O_15 
ROOT
HETATM    1  C   UNL     1      43.205 -17.790   4.013  1.00  0.00     0.135 A 
HETATM    2  N   UNL     1      42.463 -17.093   3.134  1.00  0.00    -0.052 NA
HETATM    3  C   UNL     1      42.209 -17.626   1.929  1.00  0.00     0.702 A 
HETATM    4  N   UNL     1      42.664 -18.827   1.580  1.00  0.00    -0.189 N 
HETATM    5  H   UNL     1      42.412 -19.174   0.666  1.00  0.00     0.184 HD
HETATM    6  C   UNL     1      43.383 -19.576   2.422  1.00  0.00     0.062 A 
HETATM    7  C   UNL     1      43.684 -19.079   3.705  1.00  0.00     0.032 A 
HETATM    8  C   UNL     1      43.818 -20.852   2.030  1.00  0.00     0.031 A 
HETATM    9  C   UNL     1      44.546 -21.649   2.913  1.00  0.00     0.002 A 
HETATM   10  C   UNL     1      44.840 -21.179   4.190  1.00  0.00     0.001 A 
HETATM   11  C   UNL     1      44.415 -19.909   4.586  1.00  0.00     0.017 A 
ENDROOT
BRANCH   3  12
HETATM   12  N   UNL     1      41.428 -16.964   1.019  1.00  0.00    -0.220 N 
HETATM   13  H   UNL     1      40.624 -17.380   0.572  1.00  0.00     0.178 HD
BRANCH  12  14
HETATM   14  C   UNL     1      41.942 -15.771   0.350  1.00  0.00     0.179 C 
BRANCH  14  15
HETATM   15  C   UNL     1      40.962 -15.231  -0.674  1.00  0.00    -0.006 A 
HETATM   16  C   UNL     1      39.930 -14.368  -0.251  1.00  0.00     0.078 A 
HETATM   17  C   UNL     1      38.985 -13.891  -1.171  1.00  0.00     0.074 A 
HETATM   18  C   UNL     1      39.042 -14.282  -2.510  1.00  0.00     0.070 A 
HETATM   19  C   UNL     1      40.052 -15.148  -2.927  1.00  0.00     0.037 A 
HETATM   20  C   UNL     1      40.996 -15.627  -2.021  1.00  0.00     0.014 A 
BRANCH  16  21
HETATM   21  O   UNL     1      39.936 -14.057   1.087  1.00  0.00    -0.355 OA
HETATM   22  C   UNL     1      38.839 -14.512   1.873  1.00  0.00     0.210 C 
ENDBRANCH  16  21
BRANCH  18  23
HETATM   23  O   UNL     1      38.184 -13.898  -3.503  1.00  0.00    -0.356 OA
HETATM   24  C   UNL     1      37.236 -14.859  -3.952  1.00  0.00     0.210 C 
ENDBRANCH  18  23
ENDBRANCH  14  15
ENDBRANCH  12  14
ENDBRANCH   3  12
BRANCH   1  25
HETATM   25  N   UNL     1      43.437 -17.244   5.278  1.00  0.00    -0.272 NA
HETATM   26  H   UNL     1      43.742 -16.274   5.227  1.00  0.00     0.129 HD
BRANCH  25  27
HETATM   27  C   UNL     1      42.433 -17.449   6.331  1.00  0.00     0.053 C 
HETATM   28  C   UNL     1      41.435 -16.291   6.362  1.00  0.00     0.026 C 
HETATM   29  C   UNL     1      43.166 -17.544   7.669  1.00  0.00     0.026 C 
ENDBRANCH  25  27
ENDBRANCH   1  25
TORSDOF 7
ENDMDL
MODEL 5
REMARK VINA RESULT:      -7.4      2.671      5.282
REMARK  7 active torsions:
REMARK  status: ('A' for Active; 'I' for Inactive)
REMARK    1  A    between atoms: C_2  and  N_3 
REMARK    2  A    between atoms: N_3  and  C_4 
REMARK    3  A    between atoms: C_6  and  N_7 
REMARK    4  A    between atoms: N_7  and  C_8 
REMARK    5  A    between atoms: C_8  and  C_9 
REMARK    6  A    between atoms: C_10  and  O_11 
REMARK    7  A    between atoms: C_14  and  O_15 
ROOT
HETATM    1  C   UNL     1      44.095 -18.409   4.238  1.00  0.00     0.135 A 
HETATM    2  N   UNL     1      43.631 -17.647   3.233  1.00  0.00    -0.052 NA
HETATM    3  C   UNL     1      43.402 -18.213   2.038  1.00  0.00     0.702 A 
HETATM    4  N   UNL     1      43.615 -19.508   1.820  1.00  0.00    -0.189 N 
HETATM    5  H   UNL     1      43.397 -19.869   0.902  1.00  0.00     0.184 HD
HETATM    6  C   UNL     1      44.051 -20.320   2.789  1.00  0.00     0.062 A 
HETATM    7  C   UNL     1      44.308 -19.792   4.069  1.00  0.00     0.032 A 
HETATM    8  C   UNL     1      44.233 -21.687   2.529  1.00  0.00     0.031 A 
HETATM    9  C   UNL     1      44.662 -22.544   3.544  1.00  0.00     0.002 A 
HETATM   10  C   UNL     1      44.907 -22.042   4.818  1.00  0.00     0.001 A 
HETATM   11  C   UNL     1      44.732 -20.682   5.082  1.00  0.00     0.017 A 
ENDROOT
BRANCH   3  12
HETATM   12  N   UNL     1      42.895 -17.479   0.998  1.00  0.00    -0.220 N 
HETATM   13  H   UNL     1      43.459 -17.129   0.238  1.00  0.00     0.178 HD
BRANCH  12  14
HETATM   14  C   UNL     1      41.594 -16.828   1.135  1.00  0.00     0.179 C 
BRANCH  14  15
HETATM   15  C   UNL     1      41.679 -15.336   0.873  1.00  0.00    -0.006 A 
HETATM   16  C   UNL     1      41.499 -14.856  -0.442  1.00  0.00     0.078 A 
HETATM   17  C   UNL     1      41.617 -13.486  -0.717  1.00  0.00     0.074 A 
HETATM   18  C   UNL     1      41.936 -12.586   0.302  1.00  0.00     0.070 A 
HETATM   19  C   UNL     1      42.130 -13.059   1.598  1.00  0.00     0.037 A 
HETATM   20  C   UNL     1      42.014 -14.419   1.882  1.00  0.00     0.014 A 
BRANCH  16  21
HETATM   21  O   UNL     1      41.214 -15.815  -1.382  1.00  0.00    -0.355 OA
HETATM   22  C   UNL     1      40.837 -15.371  -2.682  1.00  0.00     0.210 C 
ENDBRANCH  16  21
BRANCH  18  23
HETATM   23  O   UNL     1      42.087 -11.233   0.167  1.00  0.00    -0.356 OA
HETATM   24  C   UNL     1      41.189 -10.403   0.895  1.00  0.00     0.210 C 
ENDBRANCH  18  23
ENDBRANCH  14  15
ENDBRANCH  12  14
ENDBRANCH   3  12
BRANCH   1  25
HETATM   25  N   UNL     1      44.300 -17.821   5.489  1.00  0.00    -0.272 NA
HETATM   26  H   UNL     1      45.097 -17.188   5.490  1.00  0.00     0.129 HD
BRANCH  25  27
HETATM   27  C   UNL     1      43.146 -17.249   6.196  1.00  0.00     0.053 C 
HETATM   28  C   UNL     1      43.229 -15.723   6.228  1.00  0.00     0.026 C 
HETATM   29  C   UNL     1      43.146 -17.802   7.622  1.00  0.00     0.026 C 
ENDBRANCH  25  27
ENDBRANCH   1  25
TORSDOF 7
ENDMDL
MODEL 6
REMARK VINA RESULT:      -7.3      2.210      4.422
REMARK  7 active torsions:
REMARK  status: ('A' for Active; 'I' for Inactive)
REMARK    1  A    between atoms: C_2  and  N_3 
REMARK    2  A    between atoms: N_3  and  C_4 
REMARK    3  A    between atoms: C_6  and  N_7 
REMARK    4  A    between atoms: N_7  and  C_8 
REMARK    5  A    between atoms: C_8  and  C_9 
REMARK    6  A    between atoms: C_10  and  O_11 
REMARK    7  A    between atoms: C_14  and  O_15 
ROOT
HETATM    1  C   UNL     1      43.762 -18.147   4.234  1.00  0.00     0.135 A 
HETATM    2  N   UNL     1      42.990 -17.227   3.630  1.00  0.00    -0.052 NA
HETATM    3  C   UNL     1      42.427 -17.522   2.448  1.00  0.00     0.702 A 
HETATM    4  N   UNL     1      42.605 -18.703   1.859  1.00  0.00    -0.189 N 
HETATM    5  H   UNL     1      42.130 -18.863   0.983  1.00  0.00     0.184 HD
HETATM    6  C   UNL     1      43.340 -19.665   2.426  1.00  0.00     0.062 A 
HETATM    7  C   UNL     1      43.957 -19.423   3.668  1.00  0.00     0.032 A 
HETATM    8  C   UNL     1      43.478 -20.909   1.789  1.00  0.00     0.031 A 
HETATM    9  C   UNL     1      44.222 -21.926   2.388  1.00  0.00     0.002 A 
HETATM   10  C   UNL     1      44.826 -21.709   3.622  1.00  0.00     0.001 A 
HETATM   11  C   UNL     1      44.697 -20.473   4.259  1.00  0.00     0.017 A 
ENDROOT
BRANCH   3  12
HETATM   12  N   UNL     1      41.605 -16.626   1.817  1.00  0.00    -0.220 N 
HETATM   13  H   UNL     1      41.944 -15.817   1.320  1.00  0.00     0.178 HD
BRANCH  12  14
HETATM   14  C   UNL     1      40.187 -16.573   2.164  1.00  0.00     0.179 C 
BRANCH  14  15
HETATM   15  C   UNL     1      39.672 -15.147   2.218  1.00  0.00    -0.006 A 
HETATM   16  C   UNL     1      40.029 -14.327   3.309  1.00  0.00     0.078 A 
HETATM   17  C   UNL     1      39.530 -13.019   3.404  1.00  0.00     0.074 A 
HETATM   18  C   UNL     1      38.658 -12.523   2.433  1.00  0.00     0.070 A 
HETATM   19  C   UNL     1      38.291 -13.337   1.363  1.00  0.00     0.037 A 
HETATM   20  C   UNL     1      38.782 -14.638   1.259  1.00  0.00     0.014 A 
BRANCH  16  21
HETATM   21  O   UNL     1      40.870 -14.905   4.228  1.00  0.00    -0.355 OA
HETATM   22  C   UNL     1      40.382 -15.068   5.556  1.00  0.00     0.210 C 
ENDBRANCH  16  21
BRANCH  18  23
HETATM   23  O   UNL     1      38.097 -11.276   2.411  1.00  0.00    -0.356 OA
HETATM   24  C   UNL     1      38.906 -10.191   2.847  1.00  0.00     0.210 C 
ENDBRANCH  18  23
ENDBRANCH  14  15
ENDBRANCH  12  14
ENDBRANCH   3  12
BRANCH   1  25
HETATM   25  N   UNL     1      44.317 -17.845   5.480  1.00  0.00    -0.272 NA
HETATM   26  H   UNL     1      44.959 -17.057   5.433  1.00  0.00     0.129 HD
BRANCH  25  27
HETATM   27  C   UNL     1      43.428 -17.760   6.647  1.00  0.00     0.053 C 
HETATM   28  C   UNL     1      43.650 -16.451   7.404  1.00  0.00     0.026 C 
HETATM   29  C   UNL     1      43.732 -18.950   7.558  1.00  0.00     0.026 C 
ENDBRANCH  25  27
ENDBRANCH   1  25
TORSDOF 7
ENDMDL
MODEL 7
REMARK VINA RESULT:      -7.3      1.763      3.765
REMARK  7 active torsions:
REMARK  status: ('A' for Active; 'I' for Inactive)
REMARK    1  A    between atoms: C_2  and  N_3 
REMARK    2  A    between atoms: N_3  and  C_4 
REMARK    3  A    between atoms: C_6  and  N_7 
REMARK    4  A    between atoms: N_7  and  C_8 
REMARK    5  A    between atoms: C_8  and  C_9 
REMARK    6  A    between atoms: C_10  and  O_11 
REMARK    7  A    between atoms: C_14  and  O_15 
ROOT
HETATM    1  C   UNL     1      44.197 -18.958   4.874  1.00  0.00     0.135 A 
HETATM    2  N   UNL     1      43.672 -17.743   4.638  1.00  0.00    -0.052 NA
HETATM    3  C   UNL     1      43.161 -17.478   3.426  1.00  0.00     0.702 A 
HETATM    4  N   UNL     1      43.151 -18.385   2.452  1.00  0.00    -0.189 N 
HETATM    5  H   UNL     1      42.727 -18.124   1.574  1.00  0.00     0.184 HD
HETATM    6  C   UNL     1      43.636 -19.618   2.638  1.00  0.00     0.062 A 
HETATM    7  C   UNL     1      44.184 -19.964   3.888  1.00  0.00     0.032 A 
HETATM    8  C   UNL     1      43.579 -20.558   1.597  1.00  0.00     0.031 A 
HETATM    9  C   UNL     1      44.058 -21.854   1.793  1.00  0.00     0.002 A 
HETATM   10  C   UNL     1      44.590 -22.217   3.026  1.00  0.00     0.001 A 
HETATM   11  C   UNL     1      44.654 -21.286   4.065  1.00  0.00     0.017 A 
ENDROOT
BRANCH   3  12
HETATM   12  N   UNL     1      42.583 -16.265   3.155  1.00  0.00    -0.220 N 
HETATM   13  H   UNL     1      41.668 -16.166   2.744  1.00  0.00     0.178 HD
BRANCH  12  14
HETATM   14  C   UNL     1      43.415 -15.067   3.078  1.00  0.00     0.179 C 
BRANCH  14  15
HETATM   15  C   UNL     1      42.728 -13.862   3.693  1.00  0.00    -0.006 A 
HETATM   16  C   UNL     1      42.708 -13.723   5.097  1.00  0.00     0.078 A 
HETATM   17  C   UNL     1      42.041 -12.641   5.691  1.00  0.00     0.074 A 
HETATM   18  C   UNL     1      41.370 -11.705   4.902  1.00  0.00     0.070 A 
HETATM   19  C   UNL     1      41.374 -11.850   3.516  1.00  0.00     0.037 A 
HETATM   20  C   UNL     1      42.035 -12.920   2.915  1.00  0.00     0.014 A 
BRANCH  16  21
HETATM   21  O   UNL     1      43.371 -14.703   5.793  1.00  0.00    -0.355 OA
HETATM   22  C   UNL     1      44.333 -14.289   6.757  1.00  0.00     0.210 C 
ENDBRANCH  16  21
BRANCH  18  23
HETATM   23  O   UNL     1      40.678 -10.615   5.352  1.00  0.00    -0.356 OA
HETATM   24  C   UNL     1      39.834 -10.801   6.482  1.00  0.00     0.210 C 
ENDBRANCH  18  23
ENDBRANCH  14  15
ENDBRANCH  12  14
ENDBRANCH   3  12
BRANCH   1  25
HETATM   25  N   UNL     1      44.697 -19.237   6.149  1.00  0.00    -0.272 NA
HETATM   26  H   UNL     1      45.491 -18.647   6.387  1.00  0.00     0.129 HD
BRANCH  25  27
HETATM   27  C   UNL     1      43.751 -19.362   7.266  1.00  0.00     0.053 C 
HETATM   28  C   UNL     1      44.241 -18.577   8.483  1.00  0.00     0.026 C 
HETATM   29  C   UNL     1      43.629 -20.846   7.616  1.00  0.00     0.026 C 
ENDBRANCH  25  27
ENDBRANCH   1  25
TORSDOF 7
ENDMDL
MODEL 8
REMARK VINA RESULT:      -7.3      2.301      4.176
REMARK  7 active torsions:
REMARK  status: ('A' for Active; 'I' for Inactive)
REMARK    1  A    between atoms: C_2  and  N_3 
REMARK    2  A    between atoms: N_3  and  C_4 
REMARK    3  A    between atoms: C_6  and  N_7 
REMARK    4  A    between atoms: N_7  and  C_8 
REMARK    5  A    between atoms: C_8  and  C_9 
REMARK    6  A    between atoms: C_10  and  O_11 
REMARK    7  A    between atoms: C_14  and  O_15 
ROOT
HETATM    1  C   UNL     1      44.184 -18.742   4.969  1.00  0.00     0.135 A 
HETATM    2  N   UNL     1      43.613 -17.547   4.739  1.00  0.00    -0.052 NA
HETATM    3  C   UNL     1      43.069 -17.305   3.536  1.00  0.00     0.702 A 
HETATM    4  N   UNL     1      43.071 -18.217   2.566  1.00  0.00    -0.189 N 
HETATM    5  H   UNL     1      42.622 -17.973   1.696  1.00  0.00     0.184 HD
HETATM    6  C   UNL     1      43.601 -19.431   2.747  1.00  0.00     0.062 A 
HETATM    7  C   UNL     1      44.185 -19.753   3.987  1.00  0.00     0.032 A 
HETATM    8  C   UNL     1      43.555 -20.377   1.711  1.00  0.00     0.031 A 
HETATM    9  C   UNL     1      44.081 -21.655   1.903  1.00  0.00     0.002 A 
HETATM   10  C   UNL     1      44.650 -21.995   3.126  1.00  0.00     0.001 A 
HETATM   11  C   UNL     1      44.703 -21.057   4.160  1.00  0.00     0.017 A 
ENDROOT
BRANCH   3  12
HETATM   12  N   UNL     1      42.447 -16.113   3.273  1.00  0.00    -0.220 N 
HETATM   13  H   UNL     1      42.893 -15.217   3.390  1.00  0.00     0.178 HD
BRANCH  12  14
HETATM   14  C   UNL     1      40.989 -16.059   3.191  1.00  0.00     0.179 C 
BRANCH  14  15
HETATM   15  C   UNL     1      40.430 -14.838   3.898  1.00  0.00    -0.006 A 
HETATM   16  C   UNL     1      40.271 -13.636   3.176  1.00  0.00     0.078 A 
HETATM   17  C   UNL     1      39.798 -12.482   3.817  1.00  0.00     0.074 A 
HETATM   18  C   UNL     1      39.502 -12.503   5.181  1.00  0.00     0.070 A 
HETATM   19  C   UNL     1      39.674 -13.684   5.901  1.00  0.00     0.037 A 
HETATM   20  C   UNL     1      40.142 -14.837   5.272  1.00  0.00     0.014 A 
BRANCH  16  21
HETATM   21  O   UNL     1      40.611 -13.701   1.847  1.00  0.00    -0.355 OA
HETATM   22  C   UNL     1      41.725 -12.927   1.414  1.00  0.00     0.210 C 
ENDBRANCH  16  21
BRANCH  18  23
HETATM   23  O   UNL     1      39.043 -11.452   5.926  1.00  0.00    -0.356 OA
HETATM   24  C   UNL     1      39.958 -10.848   6.832  1.00  0.00     0.210 C 
ENDBRANCH  18  23
ENDBRANCH  14  15
ENDBRANCH  12  14
ENDBRANCH   3  12
BRANCH   1  25
HETATM   25  N   UNL     1      44.718 -18.999   6.235  1.00  0.00    -0.272 NA
HETATM   26  H   UNL     1      45.473 -18.358   6.469  1.00  0.00     0.129 HD
BRANCH  25  27
HETATM   27  C   UNL     1      43.798 -19.200   7.362  1.00  0.00     0.053 C 
HETATM   28  C   UNL     1      44.350 -18.558   8.635  1.00  0.00     0.026 C 
HETATM   29  C   UNL     1      43.626 -20.705   7.567  1.00  0.00     0.026 C 
ENDBRANCH  25  27
ENDBRANCH   1  25
TORSDOF 7
ENDMDL
MODEL 9
REMARK VINA RESULT:      -7.2      3.757      7.366
REMARK  7 active torsions:
REMARK  status: ('A' for Active; 'I' for Inactive)
REMARK    1  A    between atoms: C_2  and  N_3 
REMARK    2  A    between atoms: N_3  and  C_4 
REMARK    3  A    between atoms: C_6  and  N_7 
REMARK    4  A    between atoms: N_7  and  C_8 
REMARK    5  A    between atoms: C_8  and  C_9 
REMARK    6  A    between atoms: C_10  and  O_11 
REMARK    7  A    between atoms: C_14  and  O_15 
ROOT
HETATM    1  C   UNL     1      40.285 -14.134   0.537  1.00  0.00     0.135 A 
HETATM    2  N   UNL     1      40.717 -15.248   1.153  1.00  0.00    -0.052 NA
HETATM    3  C   UNL     1      41.230 -16.244   0.415  1.00  0.00     0.702 A 
HETATM    4  N   UNL     1      41.330 -16.160  -0.910  1.00  0.00    -0.189 N 
HETATM    5  H   UNL     1      41.750 -16.938  -1.397  1.00  0.00     0.184 HD
HETATM    6  C   UNL     1      40.941 -15.066  -1.574  1.00  0.00     0.062 A 
HETATM    7  C   UNL     1      40.396 -13.981  -0.860  1.00  0.00     0.032 A 
HETATM    8  C   UNL     1      41.092 -15.001  -2.968  1.00  0.00     0.031 A 
HETATM    9  C   UNL     1      40.713 -13.852  -3.663  1.00  0.00     0.002 A 
HETATM   10  C   UNL     1      40.186 -12.765  -2.972  1.00  0.00     0.001 A 
HETATM   11  C   UNL     1      40.029 -12.825  -1.585  1.00  0.00     0.017 A 
ENDROOT
BRANCH   3  12
HETATM   12  N   UNL     1      41.715 -17.381   1.006  1.00  0.00    -0.220 N 
HETATM   13  H   UNL     1      41.187 -17.931   1.666  1.00  0.00     0.178 HD
BRANCH  12  14
HETATM   14  C   UNL     1      43.154 -17.634   1.021  1.00  0.00     0.179 C 
BRANCH  14  15
HETATM   15  C   UNL     1      43.565 -18.487   2.207  1.00  0.00    -0.006 A 
HETATM   16  C   UNL     1      43.635 -17.897   3.487  1.00  0.00     0.078 A 
HETATM   17  C   UNL     1      44.054 -18.653   4.592  1.00  0.00     0.074 A 
HETATM   18  C   UNL     1      44.429 -19.988   4.433  1.00  0.00     0.070 A 
HETATM   19  C   UNL     1      44.377 -20.568   3.167  1.00  0.00     0.037 A 
HETATM   20  C   UNL     1      43.960 -19.826   2.063  1.00  0.00     0.014 A 
BRANCH  16  21
HETATM   21  O   UNL     1      43.272 -16.574   3.545  1.00  0.00    -0.355 OA
HETATM   22  C   UNL     1      42.632 -16.118   4.732  1.00  0.00     0.210 C 
ENDBRANCH  16  21
BRANCH  18  23
HETATM   23  O   UNL     1      44.862 -20.830   5.421  1.00  0.00    -0.356 OA
HETATM   24  C   UNL     1      45.089 -22.188   5.065  1.00  0.00     0.210 C 
ENDBRANCH  18  23
ENDBRANCH  14  15
ENDBRANCH  12  14
ENDBRANCH   3  12
BRANCH   1  25
HETATM   25  N   UNL     1      39.782 -13.088   1.315  1.00  0.00    -0.272 NA
HETATM   26  H   UNL     1      40.114 -12.180   0.996  1.00  0.00     0.129 HD
BRANCH  25  27
HETATM   27  C   UNL     1      38.347 -13.069   1.629  1.00  0.00     0.053 C 
HETATM   28  C   UNL     1      37.611 -14.176   0.874  1.00  0.00     0.026 C 
HETATM   29  C   UNL     1      37.794 -11.702   1.223  1.00  0.00     0.026 C 
ENDBRANCH  25  27
ENDBRANCH   1  25
TORSDOF 7
ENDMDL
MODEL 10
REMARK VINA RESULT:      -7.1      3.689      7.030
REMARK  7 active torsions:
REMARK  status: ('A' for Active; 'I' for Inactive)
REMARK    1  A    between atoms: C_2  and  N_3 
REMARK    2  A    between atoms: N_3  and  C_4 
REMARK    3  A    between atoms: C_6  and  N_7 
REMARK    4  A    between atoms: N_7  and  C_8 
REMARK    5  A    between atoms: C_8  and  C_9 
REMARK    6  A    between atoms: C_10  and  O_11 
REMARK    7  A    between atoms: C_14  and  O_15 
ROOT
HETATM    1  C   UNL     1      43.139 -18.541   2.967  1.00  0.00     0.135 A 
HETATM    2  N   UNL     1      42.629 -18.196   1.772  1.00  0.00    -0.052 NA
HETATM    3  C   UNL     1      41.597 -17.340   1.725  1.00  0.00     0.702 A 
HETATM    4  N   UNL     1      41.067 -16.815   2.827  1.00  0.00    -0.189 N 
HETATM    5  H   UNL     1      40.308 -16.159   2.713  1.00  0.00     0.184 HD
HETATM    6  C   UNL     1      41.549 -17.101   4.041  1.00  0.00     0.062 A 
HETATM    7  C   UNL     1      42.634 -17.990   4.162  1.00  0.00     0.032 A 
HETATM    8  C   UNL     1      40.984 -16.503   5.179  1.00  0.00     0.031 A 
HETATM    9  C   UNL     1      41.500 -16.775   6.446  1.00  0.00     0.002 A 
HETATM   10  C   UNL     1      42.581 -17.640   6.583  1.00  0.00     0.001 A 
HETATM   11  C   UNL     1      43.145 -18.243   5.456  1.00  0.00     0.017 A 
ENDROOT
BRANCH   3  12
HETATM   12  N   UNL     1      41.073 -16.936   0.525  1.00  0.00    -0.220 N 
HETATM   13  H   UNL     1      40.437 -17.498  -0.020  1.00  0.00     0.178 HD
BRANCH  12  14
HETATM   14  C   UNL     1      41.709 -15.850  -0.216  1.00  0.00     0.179 C 
BRANCH  14  15
HETATM   15  C   UNL     1      40.768 -15.236  -1.236  1.00  0.00    -0.006 A 
HETATM   16  C   UNL     1      39.700 -14.429  -0.789  1.00  0.00     0.078 A 
HETATM   17  C   UNL     1      38.791 -13.886  -1.709  1.00  0.00     0.074 A 
HETATM   18  C   UNL     1      38.919 -14.157  -3.073  1.00  0.00     0.070 A 
HETATM   19  C   UNL     1      39.963 -14.967  -3.514  1.00  0.00     0.037 A 
HETATM   20  C   UNL     1      40.873 -15.510  -2.609  1.00  0.00     0.014 A 
BRANCH  16  21
HETATM   21  O   UNL     1      39.638 -14.237   0.569  1.00  0.00    -0.355 OA
HETATM   22  C   UNL     1      38.366 -14.374   1.195  1.00  0.00     0.210 C 
ENDBRANCH  16  21
BRANCH  18  23
HETATM   23  O   UNL     1      38.100 -13.699  -4.068  1.00  0.00    -0.356 OA
HETATM   24  C   UNL     1      36.812 -14.293  -4.176  1.00  0.00     0.210 C 
ENDBRANCH  18  23
ENDBRANCH  14  15
ENDBRANCH  12  14
ENDBRANCH   3  12
BRANCH   1  25
HETATM   25  N   UNL     1      44.234 -19.407   3.007  1.00  0.00    -0.272 NA
HETATM   26  H   UNL     1      44.990 -19.043   3.583  1.00  0.00     0.129 HD
BRANCH  25  27
HETATM   27  C   UNL     1      43.996 -20.835   3.253  1.00  0.00     0.053 C 
HETATM   28  C   UNL     1      44.898 -21.352   4.373  1.00  0.00     0.026 C 
HETATM   29  C   UNL     1      44.287 -21.592   1.956  1.00  0.00     0.026 C 
ENDBRANCH  25  27
ENDBRANCH   1  25
TORSDOF 7
ENDMDL
