MODEL 1
REMARK VINA RESULT:      -8.1      0.000      0.000
REMARK  5 active torsions:
REMARK  status: ('A' for Active; 'I' for Inactive)
REMARK    1  A    between atoms: C_8  and  N_9 
REMARK       I    between atoms: N_9  and  C_10 
REMARK       I    between atoms: C_10  and  N_11 
REMARK    2  A    between atoms: N_11  and  C_12 
REMARK    3  A    between atoms: C_13  and  O_14 
REMARK    4  A    between atoms: O_14  and  C_15 
REMARK    5  A    between atoms: C_15  and  C_16 
ROOT
HETATM    1  N   UNL     1      43.216 -16.125   4.209  1.00  0.00    -0.305 N 
HETATM    2  C   UNL     1      42.955 -17.482   4.156  1.00  0.00     0.325 C 
HETATM    3  N   UNL     1      43.977 -18.139   3.491  1.00  0.00    -0.306 N 
HETATM    4  O   UNL     1      41.970 -18.033   4.628  1.00  0.00    -0.247 OA
HETATM    5  H   UNL     1      44.183 -15.856   4.123  1.00  0.00     0.171 HD
HETATM    6  H   UNL     1      44.585 -17.568   2.917  1.00  0.00     0.171 HD
ENDROOT
BRANCH   3   7
HETATM    7  C   UNL     1      44.149 -19.532   3.334  1.00  0.00     0.072 A 
HETATM    8  C   UNL     1      44.687 -20.242   4.425  1.00  0.00     0.096 A 
HETATM    9  C   UNL     1      44.849 -21.628   4.376  1.00  0.00     0.042 A 
HETATM   10  C   UNL     1      44.501 -22.315   3.216  1.00  0.00     0.045 A 
HETATM   11  C   UNL     1      43.987 -21.612   2.131  1.00  0.00     0.118 A 
HETATM   12  F   UNL     1      43.648 -22.283   1.022  1.00  0.00    -0.206 F 
HETATM   13  C   UNL     1      43.803 -20.232   2.180  1.00  0.00     0.074 A 
BRANCH   8  14
HETATM   14  O   UNL     1      45.005 -19.532   5.559  1.00  0.00    -0.340 OA
BRANCH  14  15
HETATM   15  C   UNL     1      44.076 -19.791   6.629  1.00  0.00     0.293 C 
BRANCH  15  16
HETATM   16  C   UNL     1      44.003 -18.586   7.552  1.00  0.00     0.408 C 
HETATM   17  F   UNL     1      42.734 -18.134   7.669  1.00  0.00    -0.169 F 
HETATM   18  F   UNL     1      44.452 -18.881   8.792  1.00  0.00    -0.169 F 
HETATM   19  F   UNL     1      44.757 -17.570   7.075  1.00  0.00    -0.169 F 
ENDBRANCH  15  16
ENDBRANCH  14  15
ENDBRANCH   8  14
ENDBRANCH   3   7
BRANCH   1  20
HETATM   20  C   UNL     1      42.351 -15.138   4.650  1.00  0.00     0.086 A 
HETATM   21  C   UNL     1      42.661 -14.318   5.720  1.00  0.00     0.052 A 
HETATM   22  C   UNL     1      43.832 -14.250   6.626  1.00  0.00     0.072 C 
HETATM   23  N   UNL     1      41.596 -13.475   5.864  1.00  0.00    -0.280 N 
HETATM   24  H   UNL     1      41.463 -12.744   6.553  1.00  0.00     0.189 HD
HETATM   25  N   UNL     1      40.634 -13.660   4.956  1.00  0.00    -0.177 NA
HETATM   26  C   UNL     1      41.081 -14.674   4.198  1.00  0.00     0.079 A 
HETATM   27  C   UNL     1      40.256 -15.101   3.041  1.00  0.00     0.075 C 
ENDBRANCH   1  20
TORSDOF 5
ENDMDL
MODEL 2
REMARK VINA RESULT:      -7.9      2.277      3.066
REMARK  5 active torsions:
REMARK  status: ('A' for Active; 'I' for Inactive)
REMARK    1  A    between atoms: C_8  and  N_9 
REMARK       I    between atoms: N_9  and  C_10 
REMARK       I    between atoms: C_10  and  N_11 
REMARK    2  A    between atoms: N_11  and  C_12 
REMARK    3  A    between atoms: C_13  and  O_14 
REMARK    4  A    between atoms: O_14  and  C_15 
REMARK    5  A    between atoms: C_15  and  C_16 
ROOT
HETATM    1  N   UNL     1      41.974 -16.052   2.045  1.00  0.00    -0.305 N 
HETATM    2  C   UNL     1      42.997 -16.982   2.030  1.00  0.00     0.325 C 
HETATM    3  N   UNL     1      42.615 -18.123   2.717  1.00  0.00    -0.306 N 
HETATM    4  O   UNL     1      44.084 -16.831   1.489  1.00  0.00    -0.247 OA
HETATM    5  H   UNL     1      41.045 -16.416   2.188  1.00  0.00     0.171 HD
HETATM    6  H   UNL     1      41.825 -18.032   3.342  1.00  0.00     0.171 HD
ENDROOT
BRANCH   3   7
HETATM    7  C   UNL     1      43.321 -19.341   2.826  1.00  0.00     0.072 A 
HETATM    8  C   UNL     1      44.025 -19.573   4.023  1.00  0.00     0.096 A 
HETATM    9  C   UNL     1      44.712 -20.770   4.238  1.00  0.00     0.042 A 
HETATM   10  C   UNL     1      44.728 -21.736   3.236  1.00  0.00     0.045 A 
HETATM   11  C   UNL     1      44.048 -21.501   2.044  1.00  0.00     0.118 A 
HETATM   12  F   UNL     1      44.062 -22.440   1.090  1.00  0.00    -0.206 F 
HETATM   13  C   UNL     1      43.342 -20.318   1.832  1.00  0.00     0.074 A 
BRANCH   8  14
HETATM   14  O   UNL     1      43.975 -18.602   4.996  1.00  0.00    -0.340 OA
BRANCH  14  15
HETATM   15  C   UNL     1      44.760 -18.960   6.149  1.00  0.00     0.293 C 
BRANCH  15  16
HETATM   16  C   UNL     1      43.875 -18.997   7.384  1.00  0.00     0.408 C 
HETATM   17  F   UNL     1      44.516 -18.490   8.461  1.00  0.00    -0.169 F 
HETATM   18  F   UNL     1      42.741 -18.285   7.205  1.00  0.00    -0.169 F 
HETATM   19  F   UNL     1      43.518 -20.267   7.680  1.00  0.00    -0.169 F 
ENDBRANCH  15  16
ENDBRANCH  14  15
ENDBRANCH   8  14
ENDBRANCH   3   7
BRANCH   1  20
HETATM   20  C   UNL     1      42.047 -14.742   1.602  1.00  0.00     0.086 A 
HETATM   21  C   UNL     1      41.657 -14.378   0.326  1.00  0.00     0.052 A 
HETATM   22  C   UNL     1      41.134 -15.154  -0.823  1.00  0.00     0.072 C 
HETATM   23  N   UNL     1      41.859 -13.030   0.246  1.00  0.00    -0.280 N 
HETATM   24  H   UNL     1      41.695 -12.416  -0.545  1.00  0.00     0.189 HD
HETATM   25  N   UNL     1      42.318 -12.484   1.375  1.00  0.00    -0.177 NA
HETATM   26  C   UNL     1      42.435 -13.519   2.222  1.00  0.00     0.079 A 
HETATM   27  C   UNL     1      42.879 -13.241   3.610  1.00  0.00     0.075 C 
ENDBRANCH   1  20
TORSDOF 5
ENDMDL
MODEL 3
REMARK VINA RESULT:      -7.8      2.176      2.506
REMARK  5 active torsions:
REMARK  status: ('A' for Active; 'I' for Inactive)
REMARK    1  A    between atoms: C_8  and  N_9 
REMARK       I    between atoms: N_9  and  C_10 
REMARK       I    between atoms: C_10  and  N_11 
REMARK    2  A    between atoms: N_11  and  C_12 
REMARK    3  A    between atoms: C_13  and  O_14 
REMARK    4  A    between atoms: O_14  and  C_15 
REMARK    5  A    between atoms: C_15  and  C_16 
ROOT
HETATM    1  N   UNL     1      41.925 -15.760   2.336  1.00  0.00    -0.305 N 
HETATM    2  C   UNL     1      42.934 -16.700   2.242  1.00  0.00     0.325 C 
HETATM    3  N   UNL     1      42.606 -17.827   2.977  1.00  0.00    -0.306 N 
HETATM    4  O   UNL     1      43.969 -16.567   1.603  1.00  0.00    -0.247 OA
HETATM    5  H   UNL     1      41.010 -16.113   2.567  1.00  0.00     0.171 HD
HETATM    6  H   UNL     1      41.876 -17.720   3.670  1.00  0.00     0.171 HD
ENDROOT
BRANCH   3   7
HETATM    7  C   UNL     1      43.308 -19.051   3.039  1.00  0.00     0.072 A 
HETATM    8  C   UNL     1      44.045 -19.312   4.211  1.00  0.00     0.096 A 
HETATM    9  C   UNL     1      44.732 -20.517   4.379  1.00  0.00     0.042 A 
HETATM   10  C   UNL     1      44.713 -21.461   3.356  1.00  0.00     0.045 A 
HETATM   11  C   UNL     1      44.001 -21.196   2.190  1.00  0.00     0.118 A 
HETATM   12  F   UNL     1      43.983 -22.115   1.215  1.00  0.00    -0.206 F 
HETATM   13  C   UNL     1      43.296 -20.006   2.024  1.00  0.00     0.074 A 
BRANCH   8  14
HETATM   14  O   UNL     1      44.027 -18.362   5.205  1.00  0.00    -0.340 OA
BRANCH  14  15
HETATM   15  C   UNL     1      44.800 -18.773   6.349  1.00  0.00     0.293 C 
BRANCH  15  16
HETATM   16  C   UNL     1      43.884 -18.969   7.546  1.00  0.00     0.408 C 
HETATM   17  F   UNL     1      44.506 -18.633   8.699  1.00  0.00    -0.169 F 
HETATM   18  F   UNL     1      42.765 -18.218   7.446  1.00  0.00    -0.169 F 
HETATM   19  F   UNL     1      43.500 -20.262   7.649  1.00  0.00    -0.169 F 
ENDBRANCH  15  16
ENDBRANCH  14  15
ENDBRANCH   8  14
ENDBRANCH   3   7
BRANCH   1  20
HETATM   20  C   UNL     1      41.968 -14.456   1.870  1.00  0.00     0.086 A 
HETATM   21  C   UNL     1      42.363 -13.403   2.675  1.00  0.00     0.052 A 
HETATM   22  C   UNL     1      42.784 -13.329   4.094  1.00  0.00     0.072 C 
HETATM   23  N   UNL     1      42.290 -12.288   1.892  1.00  0.00    -0.280 N 
HETATM   24  H   UNL     1      42.495 -11.327   2.146  1.00  0.00     0.189 HD
HETATM   25  N   UNL     1      41.910 -12.533   0.635  1.00  0.00    -0.177 NA
HETATM   26  C   UNL     1      41.712 -13.860   0.600  1.00  0.00     0.079 A 
HETATM   27  C   UNL     1      41.328 -14.478  -0.693  1.00  0.00     0.075 C 
ENDBRANCH   1  20
TORSDOF 5
ENDMDL
MODEL 4
REMARK VINA RESULT:      -7.8      1.060      1.545
REMARK  5 active torsions:
REMARK  status: ('A' for Active; 'I' for Inactive)
REMARK    1  A    between atoms: C_8  and  N_9 
REMARK       I    between atoms: N_9  and  C_10 
REMARK       I    between atoms: C_10  and  N_11 
REMARK    2  A    between atoms: N_11  and  C_12 
REMARK    3  A    between atoms: C_13  and  O_14 
REMARK    4  A    between atoms: O_14  and  C_15 
REMARK    5  A    between atoms: C_15  and  C_16 
ROOT
HETATM    1  N   UNL     1      42.831 -16.046   3.772  1.00  0.00    -0.305 N 
HETATM    2  C   UNL     1      42.648 -17.413   3.677  1.00  0.00     0.325 C 
HETATM    3  N   UNL     1      43.841 -18.033   3.345  1.00  0.00    -0.306 N 
HETATM    4  O   UNL     1      41.591 -18.000   3.861  1.00  0.00    -0.247 OA
HETATM    5  H   UNL     1      43.772 -15.736   3.959  1.00  0.00     0.171 HD
HETATM    6  H   UNL     1      44.565 -17.443   2.955  1.00  0.00     0.171 HD
ENDROOT
BRANCH   3   7
HETATM    7  C   UNL     1      44.103 -19.419   3.274  1.00  0.00     0.072 A 
HETATM    8  C   UNL     1      44.652 -20.030   4.418  1.00  0.00     0.096 A 
HETATM    9  C   UNL     1      44.899 -21.404   4.454  1.00  0.00     0.042 A 
HETATM   10  C   UNL     1      44.630 -22.176   3.327  1.00  0.00     0.045 A 
HETATM   11  C   UNL     1      44.106 -21.570   2.189  1.00  0.00     0.118 A 
HETATM   12  F   UNL     1      43.841 -22.322   1.113  1.00  0.00    -0.206 F 
HETATM   13  C   UNL     1      43.835 -20.203   2.154  1.00  0.00     0.074 A 
BRANCH   8  14
HETATM   14  O   UNL     1      44.891 -19.239   5.516  1.00  0.00    -0.340 OA
BRANCH  14  15
HETATM   15  C   UNL     1      43.944 -19.491   6.572  1.00  0.00     0.293 C 
BRANCH  15  16
HETATM   16  C   UNL     1      43.863 -18.283   7.492  1.00  0.00     0.408 C 
HETATM   17  F   UNL     1      42.584 -17.873   7.649  1.00  0.00    -0.169 F 
HETATM   18  F   UNL     1      44.364 -18.555   8.717  1.00  0.00    -0.169 F 
HETATM   19  F   UNL     1      44.566 -17.246   6.984  1.00  0.00    -0.169 F 
ENDBRANCH  15  16
ENDBRANCH  14  15
ENDBRANCH   8  14
ENDBRANCH   3   7
BRANCH   1  20
HETATM   20  C   UNL     1      41.839 -15.091   3.927  1.00  0.00     0.086 A 
HETATM   21  C   UNL     1      41.599 -14.123   2.970  1.00  0.00     0.052 A 
HETATM   22  C   UNL     1      42.241 -13.817   1.669  1.00  0.00     0.072 C 
HETATM   23  N   UNL     1      40.564 -13.373   3.451  1.00  0.00    -0.280 N 
HETATM   24  H   UNL     1      40.123 -12.566   3.024  1.00  0.00     0.189 HD
HETATM   25  N   UNL     1      40.093 -13.794   4.627  1.00  0.00    -0.177 NA
HETATM   26  C   UNL     1      40.860 -14.852   4.934  1.00  0.00     0.079 A 
HETATM   27  C   UNL     1      40.556 -15.599   6.180  1.00  0.00     0.075 C 
ENDBRANCH   1  20
TORSDOF 5
ENDMDL
MODEL 5
REMARK VINA RESULT:      -7.8      3.424      4.399
REMARK  5 active torsions:
REMARK  status: ('A' for Active; 'I' for Inactive)
REMARK    1  A    between atoms: C_8  and  N_9 
REMARK       I    between atoms: N_9  and  C_10 
REMARK       I    between atoms: C_10  and  N_11 
REMARK    2  A    between atoms: N_11  and  C_12 
REMARK    3  A    between atoms: C_13  and  O_14 
REMARK    4  A    between atoms: O_14  and  C_15 
REMARK    5  A    between atoms: C_15  and  C_16 
ROOT
HETATM    1  N   UNL     1      41.983 -15.708   0.255  1.00  0.00    -0.305 N 
HETATM    2  C   UNL     1      42.002 -16.922   0.917  1.00  0.00     0.325 C 
HETATM    3  N   UNL     1      43.287 -17.213   1.343  1.00  0.00    -0.306 N 
HETATM    4  O   UNL     1      41.031 -17.640   1.107  1.00  0.00    -0.247 OA
HETATM    5  H   UNL     1      42.729 -15.068   0.479  1.00  0.00     0.171 HD
HETATM    6  H   UNL     1      44.039 -16.698   0.901  1.00  0.00     0.171 HD
ENDROOT
BRANCH   3   7
HETATM    7  C   UNL     1      43.704 -18.290   2.156  1.00  0.00     0.072 A 
HETATM    8  C   UNL     1      43.831 -18.043   3.537  1.00  0.00     0.096 A 
HETATM    9  C   UNL     1      44.192 -19.061   4.423  1.00  0.00     0.042 A 
HETATM   10  C   UNL     1      44.463 -20.333   3.926  1.00  0.00     0.045 A 
HETATM   11  C   UNL     1      44.357 -20.573   2.559  1.00  0.00     0.118 A 
HETATM   12  F   UNL     1      44.612 -21.802   2.091  1.00  0.00    -0.206 F 
HETATM   13  C   UNL     1      43.976 -19.568   1.672  1.00  0.00     0.074 A 
BRANCH   8  14
HETATM   14  O   UNL     1      43.540 -16.779   3.993  1.00  0.00    -0.340 OA
BRANCH  14  15
HETATM   15  C   UNL     1      42.890 -16.811   5.277  1.00  0.00     0.293 C 
BRANCH  15  16
HETATM   16  C   UNL     1      41.381 -16.832   5.092  1.00  0.00     0.408 C 
HETATM   17  F   UNL     1      40.915 -18.100   5.019  1.00  0.00    -0.169 F 
HETATM   18  F   UNL     1      40.745 -16.216   6.112  1.00  0.00    -0.169 F 
HETATM   19  F   UNL     1      41.030 -16.200   3.949  1.00  0.00    -0.169 F 
ENDBRANCH  15  16
ENDBRANCH  14  15
ENDBRANCH   8  14
ENDBRANCH   3   7
BRANCH   1  20
HETATM   20  C   UNL     1      40.915 -15.169  -0.444  1.00  0.00     0.086 A 
HETATM   21  C   UNL     1      39.874 -14.522   0.195  1.00  0.00     0.052 A 
HETATM   22  C   UNL     1      39.586 -14.251   1.623  1.00  0.00     0.072 C 
HETATM   23  N   UNL     1      39.021 -14.124  -0.795  1.00  0.00    -0.280 N 
HETATM   24  H   UNL     1      38.140 -13.629  -0.703  1.00  0.00     0.189 HD
HETATM   25  N   UNL     1      39.438 -14.433  -2.025  1.00  0.00    -0.177 NA
HETATM   26  C   UNL     1      40.603 -15.071  -1.831  1.00  0.00     0.079 A 
HETATM   27  C   UNL     1      41.369 -15.509  -3.025  1.00  0.00     0.075 C 
ENDBRANCH   1  20
TORSDOF 5
ENDMDL
MODEL 6
REMARK VINA RESULT:      -7.6      3.234      4.400
REMARK  5 active torsions:
REMARK  status: ('A' for Active; 'I' for Inactive)
REMARK    1  A    between atoms: C_8  and  N_9 
REMARK       I    between atoms: N_9  and  C_10 
REMARK       I    between atoms: C_10  and  N_11 
REMARK    2  A    between atoms: N_11  and  C_12 
REMARK    3  A    between atoms: C_13  and  O_14 
REMARK    4  A    between atoms: O_14  and  C_15 
REMARK    5  A    between atoms: C_15  and  C_16 
ROOT
HETATM    1  N   UNL     1      41.738 -15.592   0.525  1.00  0.00    -0.305 N 
HETATM    2  C   UNL     1      41.785 -16.791   1.212  1.00  0.00     0.325 C 
HETATM    3  N   UNL     1      43.101 -17.160   1.440  1.00  0.00    -0.306 N 
HETATM    4  O   UNL     1      40.813 -17.439   1.574  1.00  0.00    -0.247 OA
HETATM    5  H   UNL     1      42.549 -15.000   0.610  1.00  0.00     0.171 HD
HETATM    6  H   UNL     1      43.804 -16.706   0.870  1.00  0.00     0.171 HD
ENDROOT
BRANCH   3   7
HETATM    7  C   UNL     1      43.572 -18.247   2.209  1.00  0.00     0.072 A 
HETATM    8  C   UNL     1      43.798 -18.015   3.580  1.00  0.00     0.096 A 
HETATM    9  C   UNL     1      44.219 -19.044   4.426  1.00  0.00     0.042 A 
HETATM   10  C   UNL     1      44.450 -20.311   3.898  1.00  0.00     0.045 A 
HETATM   11  C   UNL     1      44.246 -20.536   2.540  1.00  0.00     0.118 A 
HETATM   12  F   UNL     1      44.463 -21.760   2.042  1.00  0.00    -0.206 F 
HETATM   13  C   UNL     1      43.805 -19.520   1.693  1.00  0.00     0.074 A 
BRANCH   8  14
HETATM   14  O   UNL     1      43.544 -16.756   4.069  1.00  0.00    -0.340 OA
BRANCH  14  15
HETATM   15  C   UNL     1      42.892 -16.802   5.352  1.00  0.00     0.293 C 
BRANCH  15  16
HETATM   16  C   UNL     1      41.387 -16.691   5.170  1.00  0.00     0.408 C 
HETATM   17  F   UNL     1      41.074 -15.764   4.237  1.00  0.00    -0.169 F 
HETATM   18  F   UNL     1      40.844 -17.866   4.785  1.00  0.00    -0.169 F 
HETATM   19  F   UNL     1      40.790 -16.325   6.327  1.00  0.00    -0.169 F 
ENDBRANCH  15  16
ENDBRANCH  14  15
ENDBRANCH   8  14
ENDBRANCH   3   7
BRANCH   1  20
HETATM   20  C   UNL     1      40.610 -14.996  -0.014  1.00  0.00     0.086 A 
HETATM   21  C   UNL     1      40.347 -15.022  -1.371  1.00  0.00     0.052 A 
HETATM   22  C   UNL     1      41.084 -15.589  -2.526  1.00  0.00     0.072 C 
HETATM   23  N   UNL     1      39.168 -14.353  -1.534  1.00  0.00    -0.280 N 
HETATM   24  H   UNL     1      38.668 -14.162  -2.396  1.00  0.00     0.189 HD
HETATM   25  N   UNL     1      38.629 -13.922  -0.391  1.00  0.00    -0.177 NA
HETATM   26  C   UNL     1      39.497 -14.312   0.555  1.00  0.00     0.079 A 
HETATM   27  C   UNL     1      39.162 -14.030   1.973  1.00  0.00     0.075 C 
ENDBRANCH   1  20
TORSDOF 5
ENDMDL
MODEL 7
REMARK VINA RESULT:      -7.4      2.630      3.687
REMARK  5 active torsions:
REMARK  status: ('A' for Active; 'I' for Inactive)
REMARK    1  A    between atoms: C_8  and  N_9 
REMARK       I    between atoms: N_9  and  C_10 
REMARK       I    between atoms: C_10  and  N_11 
REMARK    2  A    between atoms: N_11  and  C_12 
REMARK    3  A    between atoms: C_13  and  O_14 
REMARK    4  A    between atoms: O_14  and  C_15 
REMARK    5  A    between atoms: C_15  and  C_16 
ROOT
HETATM    1  N   UNL     1      43.569 -15.787   4.766  1.00  0.00    -0.305 N 
HETATM    2  C   UNL     1      43.208 -17.115   4.632  1.00  0.00     0.325 C 
HETATM    3  N   UNL     1      44.156 -17.794   3.885  1.00  0.00    -0.306 N 
HETATM    4  O   UNL     1      42.202 -17.627   5.104  1.00  0.00    -0.247 OA
HETATM    5  H   UNL     1      44.550 -15.581   4.660  1.00  0.00     0.171 HD
HETATM    6  H   UNL     1      44.784 -17.229   3.327  1.00  0.00     0.171 HD
ENDROOT
BRANCH   3   7
HETATM    7  C   UNL     1      44.220 -19.182   3.628  1.00  0.00     0.072 A 
HETATM    8  C   UNL     1      43.776 -19.624   2.367  1.00  0.00     0.096 A 
HETATM    9  C   UNL     1      43.846 -20.973   2.009  1.00  0.00     0.042 A 
HETATM   10  C   UNL     1      44.334 -21.898   2.927  1.00  0.00     0.045 A 
HETATM   11  C   UNL     1      44.755 -21.465   4.181  1.00  0.00     0.118 A 
HETATM   12  F   UNL     1      45.230 -22.361   5.055  1.00  0.00    -0.206 F 
HETATM   13  C   UNL     1      44.708 -20.118   4.538  1.00  0.00     0.074 A 
BRANCH   8  14
HETATM   14  O   UNL     1      43.315 -18.680   1.481  1.00  0.00    -0.340 OA
BRANCH  14  15
HETATM   15  C   UNL     1      41.880 -18.713   1.363  1.00  0.00     0.293 C 
BRANCH  15  16
HETATM   16  C   UNL     1      41.344 -17.302   1.186  1.00  0.00     0.408 C 
HETATM   17  F   UNL     1      41.171 -17.005  -0.122  1.00  0.00    -0.169 F 
HETATM   18  F   UNL     1      40.155 -17.139   1.807  1.00  0.00    -0.169 F 
HETATM   19  F   UNL     1      42.203 -16.394   1.702  1.00  0.00    -0.169 F 
ENDBRANCH  15  16
ENDBRANCH  14  15
ENDBRANCH   8  14
ENDBRANCH   3   7
BRANCH   1  20
HETATM   20  C   UNL     1      42.794 -14.774   5.306  1.00  0.00     0.086 A 
HETATM   21  C   UNL     1      43.262 -13.953   6.316  1.00  0.00     0.052 A 
HETATM   22  C   UNL     1      44.544 -13.907   7.058  1.00  0.00     0.072 C 
HETATM   23  N   UNL     1      42.246 -13.083   6.589  1.00  0.00    -0.280 N 
HETATM   24  H   UNL     1      42.223 -12.342   7.281  1.00  0.00     0.189 HD
HETATM   25  N   UNL     1      41.168 -13.251   5.818  1.00  0.00    -0.177 NA
HETATM   26  C   UNL     1      41.487 -14.282   5.020  1.00  0.00     0.079 A 
HETATM   27  C   UNL     1      40.506 -14.698   3.987  1.00  0.00     0.075 C 
ENDBRANCH   1  20
TORSDOF 5
ENDMDL
MODEL 8
REMARK VINA RESULT:      -7.4      2.724      6.421
REMARK  5 active torsions:
REMARK  status: ('A' for Active; 'I' for Inactive)
REMARK    1  A    between atoms: C_8  and  N_9 
REMARK       I    between atoms: N_9  and  C_10 
REMARK       I    between atoms: C_10  and  N_11 
REMARK    2  A    between atoms: N_11  and  C_12 
REMARK    3  A    between atoms: C_13  and  O_14 
REMARK    4  A    between atoms: O_14  and  C_15 
REMARK    5  A    between atoms: C_15  and  C_16 
ROOT
HETATM    1  N   UNL     1      43.600 -18.667   2.956  1.00  0.00    -0.305 N 
HETATM    2  C   UNL     1      42.543 -17.869   3.355  1.00  0.00     0.325 C 
HETATM    3  N   UNL     1      42.433 -16.770   2.520  1.00  0.00    -0.306 N 
HETATM    4  O   UNL     1      41.805 -18.093   4.304  1.00  0.00    -0.247 OA
HETATM    5  H   UNL     1      43.880 -18.582   1.992  1.00  0.00     0.171 HD
HETATM    6  H   UNL     1      43.243 -16.547   1.955  1.00  0.00     0.171 HD
ENDROOT
BRANCH   3   7
HETATM    7  C   UNL     1      41.417 -15.789   2.514  1.00  0.00     0.072 A 
HETATM    8  C   UNL     1      41.746 -14.519   3.025  1.00  0.00     0.096 A 
HETATM    9  C   UNL     1      40.818 -13.474   3.015  1.00  0.00     0.042 A 
HETATM   10  C   UNL     1      39.537 -13.704   2.522  1.00  0.00     0.045 A 
HETATM   11  C   UNL     1      39.205 -14.964   2.034  1.00  0.00     0.118 A 
HETATM   12  F   UNL     1      37.972 -15.173   1.554  1.00  0.00    -0.206 F 
HETATM   13  C   UNL     1      40.132 -16.005   2.020  1.00  0.00     0.074 A 
BRANCH   8  14
HETATM   14  O   UNL     1      43.025 -14.325   3.490  1.00  0.00    -0.340 OA
BRANCH  14  15
HETATM   15  C   UNL     1      43.032 -13.758   4.814  1.00  0.00     0.293 C 
BRANCH  15  16
HETATM   16  C   UNL     1      43.173 -14.863   5.848  1.00  0.00     0.408 C 
HETATM   17  F   UNL     1      43.899 -15.896   5.364  1.00  0.00    -0.169 F 
HETATM   18  F   UNL     1      43.781 -14.420   6.970  1.00  0.00    -0.169 F 
HETATM   19  F   UNL     1      41.961 -15.345   6.203  1.00  0.00    -0.169 F 
ENDBRANCH  15  16
ENDBRANCH  14  15
ENDBRANCH   8  14
ENDBRANCH   3   7
BRANCH   1  20
HETATM   20  C   UNL     1      44.111 -19.758   3.639  1.00  0.00     0.086 A 
HETATM   21  C   UNL     1      44.242 -20.999   3.043  1.00  0.00     0.052 A 
HETATM   22  C   UNL     1      43.910 -21.502   1.689  1.00  0.00     0.072 C 
HETATM   23  N   UNL     1      44.777 -21.816   3.998  1.00  0.00    -0.280 N 
HETATM   24  H   UNL     1      45.003 -22.802   3.926  1.00  0.00     0.189 HD
HETATM   25  N   UNL     1      45.031 -21.200   5.155  1.00  0.00    -0.177 NA
HETATM   26  C   UNL     1      44.633 -19.934   4.954  1.00  0.00     0.079 A 
HETATM   27  C   UNL     1      44.833 -18.953   6.050  1.00  0.00     0.075 C 
ENDBRANCH   1  20
TORSDOF 5
ENDMDL
MODEL 9
REMARK VINA RESULT:      -7.3      3.508      7.344
REMARK  5 active torsions:
REMARK  status: ('A' for Active; 'I' for Inactive)
REMARK    1  A    between atoms: C_8  and  N_9 
REMARK       I    between atoms: N_9  and  C_10 
REMARK       I    between atoms: C_10  and  N_11 
REMARK    2  A    between atoms: N_11  and  C_12 
REMARK    3  A    between atoms: C_13  and  O_14 
REMARK    4  A    between atoms: O_14  and  C_15 
REMARK    5  A    between atoms: C_15  and  C_16 
ROOT
HETATM    1  N   UNL     1      42.149 -18.175   4.582  1.00  0.00    -0.305 N 
HETATM    2  C   UNL     1      42.102 -16.821   4.308  1.00  0.00     0.325 C 
HETATM    3  N   UNL     1      40.801 -16.357   4.416  1.00  0.00    -0.306 N 
HETATM    4  O   UNL     1      43.063 -16.123   4.016  1.00  0.00    -0.247 OA
HETATM    5  H   UNL     1      41.398 -18.540   5.147  1.00  0.00     0.171 HD
HETATM    6  H   UNL     1      40.068 -17.054   4.391  1.00  0.00     0.171 HD
ENDROOT
BRANCH   3   7
HETATM    7  C   UNL     1      40.352 -15.021   4.336  1.00  0.00     0.072 A 
HETATM    8  C   UNL     1      39.885 -14.572   3.085  1.00  0.00     0.096 A 
HETATM    9  C   UNL     1      39.378 -13.280   2.924  1.00  0.00     0.042 A 
HETATM   10  C   UNL     1      39.366 -12.412   4.012  1.00  0.00     0.045 A 
HETATM   11  C   UNL     1      39.844 -12.848   5.244  1.00  0.00     0.118 A 
HETATM   12  F   UNL     1      39.820 -12.008   6.287  1.00  0.00    -0.206 F 
HETATM   13  C   UNL     1      40.331 -14.142   5.418  1.00  0.00     0.074 A 
BRANCH   8  14
HETATM   14  O   UNL     1      39.899 -15.462   2.038  1.00  0.00    -0.340 OA
BRANCH  14  15
HETATM   15  C   UNL     1      40.890 -15.113   1.053  1.00  0.00     0.293 C 
BRANCH  15  16
HETATM   16  C   UNL     1      41.528 -16.374   0.493  1.00  0.00     0.408 C 
HETATM   17  F   UNL     1      40.974 -17.483   1.032  1.00  0.00    -0.169 F 
HETATM   18  F   UNL     1      41.386 -16.450  -0.849  1.00  0.00    -0.169 F 
HETATM   19  F   UNL     1      42.852 -16.403   0.765  1.00  0.00    -0.169 F 
ENDBRANCH  15  16
ENDBRANCH  14  15
ENDBRANCH   8  14
ENDBRANCH   3   7
BRANCH   1  20
HETATM   20  C   UNL     1      43.242 -19.010   4.419  1.00  0.00     0.086 A 
HETATM   21  C   UNL     1      43.950 -19.509   5.497  1.00  0.00     0.052 A 
HETATM   22  C   UNL     1      43.808 -19.327   6.961  1.00  0.00     0.072 C 
HETATM   23  N   UNL     1      44.939 -20.286   4.966  1.00  0.00    -0.280 N 
HETATM   24  H   UNL     1      45.661 -20.804   5.454  1.00  0.00     0.189 HD
HETATM   25  N   UNL     1      44.914 -20.355   3.632  1.00  0.00    -0.177 NA
HETATM   26  C   UNL     1      43.876 -19.583   3.278  1.00  0.00     0.079 A 
HETATM   27  C   UNL     1      43.533 -19.487   1.837  1.00  0.00     0.075 C 
ENDBRANCH   1  20
TORSDOF 5
ENDMDL
MODEL 10
REMARK VINA RESULT:      -7.2      2.980      6.193
REMARK  5 active torsions:
REMARK  status: ('A' for Active; 'I' for Inactive)
REMARK    1  A    between atoms: C_8  and  N_9 
REMARK       I    between atoms: N_9  and  C_10 
REMARK       I    between atoms: C_10  and  N_11 
REMARK    2  A    between atoms: N_11  and  C_12 
REMARK    3  A    between atoms: C_13  and  O_14 
REMARK    4  A    between atoms: O_14  and  C_15 
REMARK    5  A    between atoms: C_15  and  C_16 
ROOT
HETATM    1  N   UNL     1      44.248 -18.768   2.617  1.00  0.00    -0.305 N 
HETATM    2  C   UNL     1      43.034 -18.244   2.214  1.00  0.00     0.325 C 
HETATM    3  N   UNL     1      43.193 -16.932   1.802  1.00  0.00    -0.306 N 
HETATM    4  O   UNL     1      41.969 -18.845   2.214  1.00  0.00    -0.247 OA
HETATM    5  H   UNL     1      45.070 -18.325   2.238  1.00  0.00     0.171 HD
HETATM    6  H   UNL     1      44.039 -16.463   2.099  1.00  0.00     0.171 HD
ENDROOT
BRANCH   3   7
HETATM    7  C   UNL     1      42.226 -16.091   1.207  1.00  0.00     0.072 A 
HETATM    8  C   UNL     1      41.607 -15.135   2.036  1.00  0.00     0.096 A 
HETATM    9  C   UNL     1      40.674 -14.230   1.523  1.00  0.00     0.042 A 
HETATM   10  C   UNL     1      40.327 -14.298   0.176  1.00  0.00     0.045 A 
HETATM   11  C   UNL     1      40.924 -15.255  -0.639  1.00  0.00     0.118 A 
HETATM   12  F   UNL     1      40.590 -15.307  -1.935  1.00  0.00    -0.206 F 
HETATM   13  C   UNL     1      41.872 -16.146  -0.139  1.00  0.00     0.074 A 
BRANCH   8  14
HETATM   14  O   UNL     1      41.986 -15.088   3.356  1.00  0.00    -0.340 OA
BRANCH  14  15
HETATM   15  C   UNL     1      40.958 -15.601   4.225  1.00  0.00     0.293 C 
BRANCH  15  16
HETATM   16  C   UNL     1      41.567 -16.561   5.234  1.00  0.00     0.408 C 
HETATM   17  F   UNL     1      42.915 -16.591   5.129  1.00  0.00    -0.169 F 
HETATM   18  F   UNL     1      41.259 -16.213   6.502  1.00  0.00    -0.169 F 
HETATM   19  F   UNL     1      41.113 -17.819   5.034  1.00  0.00    -0.169 F 
ENDBRANCH  15  16
ENDBRANCH  14  15
ENDBRANCH   8  14
ENDBRANCH   3   7
BRANCH   1  20
HETATM   20  C   UNL     1      44.453 -19.989   3.237  1.00  0.00     0.086 A 
HETATM   21  C   UNL     1      44.731 -20.087   4.588  1.00  0.00     0.052 A 
HETATM   22  C   UNL     1      44.899 -19.070   5.654  1.00  0.00     0.072 C 
HETATM   23  N   UNL     1      44.863 -21.421   4.846  1.00  0.00    -0.280 N 
HETATM   24  H   UNL     1      45.080 -21.872   5.728  1.00  0.00     0.189 HD
HETATM   25  N   UNL     1      44.665 -22.199   3.779  1.00  0.00    -0.177 NA
HETATM   26  C   UNL     1      44.406 -21.339   2.782  1.00  0.00     0.079 A 
HETATM   27  C   UNL     1      44.080 -21.893   1.444  1.00  0.00     0.075 C 
ENDBRANCH   1  20
TORSDOF 5
ENDMDL
