MODEL 1
REMARK VINA RESULT:      -8.3      0.000      0.000
REMARK  8 active torsions:
REMARK  status: ('A' for Active; 'I' for Inactive)
REMARK    1  A    between atoms: C_4  and  N_5 
REMARK       I    between atoms: N_5  and  C_6 
REMARK    2  A    between atoms: C_6  and  C_7 
REMARK    3  A    between atoms: C_7  and  N_8 
REMARK    4  A    between atoms: N_8  and  C_10 
REMARK    5  A    between atoms: N_8  and  C_13 
REMARK    6  A    between atoms: C_13  and  C_14 
REMARK    7  A    between atoms: C_16  and  C_17 
REMARK    8  A    between atoms: C_27  and  O_28 
ROOT
HETATM    1  N   UNL     1      40.238 -15.539   3.049  1.00  0.00    -0.055 N 
HETATM    2  H   UNL     1      39.380 -15.492   3.620  1.00  0.00     0.281 HD
ENDROOT
BRANCH   1   3
HETATM    3  C   UNL     1      41.366 -15.410   4.099  1.00  0.00     0.338 C 
BRANCH   3   4
HETATM    4  C   UNL     1      40.818 -15.214   5.515  1.00  0.00     0.248 C 
HETATM    5  N   UNL     1      41.577 -15.584   6.583  1.00  0.00    -0.323 N 
HETATM    6  H   UNL     1      41.347 -15.116   7.459  1.00  0.00     0.169 HD
HETATM    7  O   UNL     1      39.749 -14.619   5.678  1.00  0.00    -0.271 OA
BRANCH   5   8
HETATM    8  C   UNL     1      42.664 -16.478   6.666  1.00  0.00     0.069 A 
HETATM    9  C   UNL     1      42.498 -17.839   6.945  1.00  0.00     0.039 A 
HETATM   10  C   UNL     1      43.612 -18.677   7.077  1.00  0.00    -0.060 A 
HETATM   11  C   UNL     1      43.446 -20.119   7.466  1.00  0.00     0.048 C 
HETATM   12  C   UNL     1      44.893 -18.134   6.944  1.00  0.00     0.009 A 
HETATM   13  C   UNL     1      45.068 -16.771   6.685  1.00  0.00     0.039 A 
HETATM   14  C   UNL     1      43.960 -15.935   6.554  1.00  0.00     0.095 A 
BRANCH  14  15
HETATM   15  O   UNL     1      44.013 -14.585   6.298  1.00  0.00    -0.354 OA
HETATM   16  C   UNL     1      44.959 -13.825   7.045  1.00  0.00     0.210 C 
ENDBRANCH  14  15
ENDBRANCH   5   8
ENDBRANCH   3   4
ENDBRANCH   1   3
BRANCH   1  17
HETATM   17  C   UNL     1      40.145 -14.327   2.157  1.00  0.00     0.189 A 
HETATM   18  C   UNL     1      38.962 -13.416   2.326  1.00  0.00     0.035 A 
HETATM   19  C   UNL     1      40.336 -12.933   2.683  1.00  0.00     0.035 A 
ENDBRANCH   1  17
BRANCH   1  20
HETATM   20  C   UNL     1      40.220 -16.872   2.353  1.00  0.00     0.274 C 
BRANCH  20  21
HETATM   21  C   UNL     1      41.576 -17.376   1.932  1.00  0.00    -0.032 A 
HETATM   22  C   UNL     1      42.117 -18.539   2.508  1.00  0.00     0.021 A 
HETATM   23  C   UNL     1      43.380 -19.029   2.128  1.00  0.00    -0.024 A 
HETATM   24  C   UNL     1      44.097 -18.315   1.156  1.00  0.00     0.012 A 
HETATM   25  C   UNL     1      43.573 -17.157   0.577  1.00  0.00     0.001 A 
HETATM   26  C   UNL     1      42.318 -16.690   0.961  1.00  0.00     0.009 A 
BRANCH  23  27
HETATM   27  C   UNL     1      43.926 -20.258   2.725  1.00  0.00    -0.008 A 
HETATM   28  C   UNL     1      43.919 -21.476   2.043  1.00  0.00     0.128 A 
HETATM   29  N   UNL     1      44.381 -22.647   2.542  1.00  0.00    -0.272 NA
HETATM   30  C   UNL     1      44.906 -22.612   3.783  1.00  0.00     0.116 A 
HETATM   31  C   UNL     1      44.981 -21.461   4.548  1.00  0.00     0.020 A 
HETATM   32  C   UNL     1      44.482 -20.275   4.011  1.00  0.00     0.015 A 
ENDBRANCH  23  27
ENDBRANCH  20  21
ENDBRANCH   1  20
TORSDOF 8
ENDMDL
MODEL 2
REMARK VINA RESULT:      -8.1      1.975      5.286
REMARK  8 active torsions:
REMARK  status: ('A' for Active; 'I' for Inactive)
REMARK    1  A    between atoms: C_4  and  N_5 
REMARK       I    between atoms: N_5  and  C_6 
REMARK    2  A    between atoms: C_6  and  C_7 
REMARK    3  A    between atoms: C_7  and  N_8 
REMARK    4  A    between atoms: N_8  and  C_10 
REMARK    5  A    between atoms: N_8  and  C_13 
REMARK    6  A    between atoms: C_13  and  C_14 
REMARK    7  A    between atoms: C_16  and  C_17 
REMARK    8  A    between atoms: C_27  and  O_28 
ROOT
HETATM    1  N   UNL     1      43.286 -14.567   4.924  1.00  0.00    -0.055 N 
HETATM    2  H   UNL     1      44.225 -14.753   4.542  1.00  0.00     0.281 HD
ENDROOT
BRANCH   1   3
HETATM    3  C   UNL     1      42.906 -13.215   4.279  1.00  0.00     0.338 C 
BRANCH   3   4
HETATM    4  C   UNL     1      41.404 -12.931   4.372  1.00  0.00     0.248 C 
HETATM    5  N   UNL     1      40.604 -13.210   3.306  1.00  0.00    -0.323 N 
HETATM    6  H   UNL     1      39.620 -13.352   3.531  1.00  0.00     0.169 HD
HETATM    7  O   UNL     1      40.918 -12.562   5.445  1.00  0.00    -0.271 OA
BRANCH   5   8
HETATM    8  C   UNL     1      40.922 -13.382   1.944  1.00  0.00     0.069 A 
HETATM    9  C   UNL     1      41.688 -12.455   1.229  1.00  0.00     0.039 A 
HETATM   10  C   UNL     1      41.929 -12.638  -0.139  1.00  0.00    -0.060 A 
HETATM   11  C   UNL     1      42.673 -11.602  -0.933  1.00  0.00     0.048 C 
HETATM   12  C   UNL     1      41.379 -13.749  -0.785  1.00  0.00     0.009 A 
HETATM   13  C   UNL     1      40.596 -14.670  -0.081  1.00  0.00     0.039 A 
HETATM   14  C   UNL     1      40.355 -14.488   1.280  1.00  0.00     0.095 A 
BRANCH  14  15
HETATM   15  O   UNL     1      39.604 -15.327   2.068  1.00  0.00    -0.354 OA
HETATM   16  C   UNL     1      39.902 -16.718   1.996  1.00  0.00     0.210 C 
ENDBRANCH  14  15
ENDBRANCH   5   8
ENDBRANCH   3   4
ENDBRANCH   1   3
BRANCH   1  17
HETATM   17  C   UNL     1      43.516 -14.448   6.409  1.00  0.00     0.189 A 
HETATM   18  C   UNL     1      44.595 -15.295   7.026  1.00  0.00     0.035 A 
HETATM   19  C   UNL     1      44.750 -13.804   6.976  1.00  0.00     0.035 A 
ENDBRANCH   1  17
BRANCH   1  20
HETATM   20  C   UNL     1      42.408 -15.706   4.483  1.00  0.00     0.274 C 
BRANCH  20  21
HETATM   21  C   UNL     1      43.063 -16.664   3.523  1.00  0.00    -0.032 A 
HETATM   22  C   UNL     1      43.374 -17.976   3.924  1.00  0.00     0.021 A 
HETATM   23  C   UNL     1      43.984 -18.888   3.043  1.00  0.00    -0.024 A 
HETATM   24  C   UNL     1      44.285 -18.448   1.745  1.00  0.00     0.012 A 
HETATM   25  C   UNL     1      43.982 -17.149   1.334  1.00  0.00     0.001 A 
HETATM   26  C   UNL     1      43.373 -16.260   2.218  1.00  0.00     0.009 A 
BRANCH  23  27
HETATM   27  C   UNL     1      44.288 -20.263   3.469  1.00  0.00    -0.008 A 
HETATM   28  C   UNL     1      44.261 -21.336   2.575  1.00  0.00     0.128 A 
HETATM   29  N   UNL     1      44.505 -22.626   2.905  1.00  0.00    -0.272 NA
HETATM   30  C   UNL     1      44.819 -22.874   4.192  1.00  0.00     0.116 A 
HETATM   31  C   UNL     1      44.890 -21.891   5.164  1.00  0.00     0.020 A 
HETATM   32  C   UNL     1      44.619 -20.574   4.795  1.00  0.00     0.015 A 
ENDBRANCH  23  27
ENDBRANCH  20  21
ENDBRANCH   1  20
TORSDOF 8
ENDMDL
MODEL 3
REMARK VINA RESULT:      -7.9      1.800      5.086
REMARK  8 active torsions:
REMARK  status: ('A' for Active; 'I' for Inactive)
REMARK    1  A    between atoms: C_4  and  N_5 
REMARK       I    between atoms: N_5  and  C_6 
REMARK    2  A    between atoms: C_6  and  C_7 
REMARK    3  A    between atoms: C_7  and  N_8 
REMARK    4  A    between atoms: N_8  and  C_10 
REMARK    5  A    between atoms: N_8  and  C_13 
REMARK    6  A    between atoms: C_13  and  C_14 
REMARK    7  A    between atoms: C_16  and  C_17 
REMARK    8  A    between atoms: C_27  and  O_28 
ROOT
HETATM    1  N   UNL     1      42.439 -15.481   5.182  1.00  0.00    -0.055 N 
HETATM    2  H   UNL     1      43.424 -15.724   4.997  1.00  0.00     0.281 HD
ENDROOT
BRANCH   1   3
HETATM    3  C   UNL     1      42.434 -13.938   5.090  1.00  0.00     0.338 C 
BRANCH   3   4
HETATM    4  C   UNL     1      43.113 -13.433   3.814  1.00  0.00     0.248 C 
HETATM    5  N   UNL     1      42.404 -12.672   2.935  1.00  0.00    -0.323 N 
HETATM    6  H   UNL     1      42.967 -12.078   2.326  1.00  0.00     0.169 HD
HETATM    7  O   UNL     1      44.322 -13.622   3.650  1.00  0.00    -0.271 OA
BRANCH   5   8
HETATM    8  C   UNL     1      41.012 -12.534   2.761  1.00  0.00     0.069 A 
HETATM    9  C   UNL     1      40.258 -13.432   1.996  1.00  0.00     0.039 A 
HETATM   10  C   UNL     1      38.887 -13.221   1.802  1.00  0.00    -0.060 A 
HETATM   11  C   UNL     1      38.090 -14.128   0.908  1.00  0.00     0.048 C 
HETATM   12  C   UNL     1      38.284 -12.093   2.367  1.00  0.00     0.009 A 
HETATM   13  C   UNL     1      39.035 -11.182   3.116  1.00  0.00     0.039 A 
HETATM   14  C   UNL     1      40.400 -11.390   3.310  1.00  0.00     0.095 A 
BRANCH  14  15
HETATM   15  O   UNL     1      41.232 -10.563   4.027  1.00  0.00    -0.354 OA
HETATM   16  C   UNL     1      40.711  -9.290   4.399  1.00  0.00     0.210 C 
ENDBRANCH  14  15
ENDBRANCH   5   8
ENDBRANCH   3   4
ENDBRANCH   1   3
BRANCH   1  17
HETATM   17  C   UNL     1      42.204 -15.971   6.589  1.00  0.00     0.189 A 
HETATM   18  C   UNL     1      42.506 -17.412   6.894  1.00  0.00     0.035 A 
HETATM   19  C   UNL     1      43.337 -16.325   7.509  1.00  0.00     0.035 A 
ENDBRANCH   1  17
BRANCH   1  20
HETATM   20  C   UNL     1      41.622 -16.146   4.109  1.00  0.00     0.274 C 
BRANCH  20  21
HETATM   21  C   UNL     1      42.417 -17.006   3.162  1.00  0.00    -0.032 A 
HETATM   22  C   UNL     1      42.894 -18.265   3.569  1.00  0.00     0.021 A 
HETATM   23  C   UNL     1      43.636 -19.086   2.701  1.00  0.00    -0.024 A 
HETATM   24  C   UNL     1      43.898 -18.609   1.408  1.00  0.00     0.012 A 
HETATM   25  C   UNL     1      43.431 -17.361   0.990  1.00  0.00     0.001 A 
HETATM   26  C   UNL     1      42.693 -16.563   1.862  1.00  0.00     0.009 A 
BRANCH  23  27
HETATM   27  C   UNL     1      44.113 -20.409   3.134  1.00  0.00    -0.008 A 
HETATM   28  C   UNL     1      44.176 -21.494   2.258  1.00  0.00     0.128 A 
HETATM   29  N   UNL     1      44.581 -22.741   2.596  1.00  0.00    -0.272 NA
HETATM   30  C   UNL     1      44.971 -22.927   3.872  1.00  0.00     0.116 A 
HETATM   31  C   UNL     1      44.966 -21.924   4.826  1.00  0.00     0.020 A 
HETATM   32  C   UNL     1      44.529 -20.654   4.450  1.00  0.00     0.015 A 
ENDBRANCH  23  27
ENDBRANCH  20  21
ENDBRANCH   1  20
TORSDOF 8
ENDMDL
MODEL 4
REMARK VINA RESULT:      -7.9      1.981      5.522
REMARK  8 active torsions:
REMARK  status: ('A' for Active; 'I' for Inactive)
REMARK    1  A    between atoms: C_4  and  N_5 
REMARK       I    between atoms: N_5  and  C_6 
REMARK    2  A    between atoms: C_6  and  C_7 
REMARK    3  A    between atoms: C_7  and  N_8 
REMARK    4  A    between atoms: N_8  and  C_10 
REMARK    5  A    between atoms: N_8  and  C_13 
REMARK    6  A    between atoms: C_13  and  C_14 
REMARK    7  A    between atoms: C_16  and  C_17 
REMARK    8  A    between atoms: C_27  and  O_28 
ROOT
HETATM    1  N   UNL     1      41.544 -15.540   3.595  1.00  0.00    -0.055 N 
HETATM    2  H   UNL     1      40.982 -14.675   3.597  1.00  0.00     0.281 HD
ENDROOT
BRANCH   1   3
HETATM    3  C   UNL     1      42.928 -15.061   3.102  1.00  0.00     0.338 C 
BRANCH   3   4
HETATM    4  C   UNL     1      43.272 -13.661   3.619  1.00  0.00     0.248 C 
HETATM    5  N   UNL     1      42.498 -12.603   3.251  1.00  0.00    -0.323 N 
HETATM    6  H   UNL     1      42.534 -11.802   3.881  1.00  0.00     0.169 HD
HETATM    7  O   UNL     1      44.174 -13.522   4.451  1.00  0.00    -0.271 OA
BRANCH   5   8
HETATM    8  C   UNL     1      41.615 -12.450   2.164  1.00  0.00     0.069 A 
HETATM    9  C   UNL     1      42.063 -12.198   0.862  1.00  0.00     0.039 A 
HETATM   10  C   UNL     1      41.146 -11.994  -0.177  1.00  0.00    -0.060 A 
HETATM   11  C   UNL     1      41.617 -11.632  -1.557  1.00  0.00     0.048 C 
HETATM   12  C   UNL     1      39.777 -12.029   0.106  1.00  0.00     0.009 A 
HETATM   13  C   UNL     1      39.322 -12.262   1.407  1.00  0.00     0.039 A 
HETATM   14  C   UNL     1      40.234 -12.465   2.443  1.00  0.00     0.095 A 
BRANCH  14  15
HETATM   15  O   UNL     1      39.900 -12.702   3.755  1.00  0.00    -0.354 OA
HETATM   16  C   UNL     1      39.014 -11.774   4.372  1.00  0.00     0.210 C 
ENDBRANCH  14  15
ENDBRANCH   5   8
ENDBRANCH   3   4
ENDBRANCH   1   3
BRANCH   1  17
HETATM   17  C   UNL     1      40.849 -16.419   2.586  1.00  0.00     0.189 A 
HETATM   18  C   UNL     1      39.563 -15.922   1.985  1.00  0.00     0.035 A 
HETATM   19  C   UNL     1      40.787 -16.063   1.128  1.00  0.00     0.035 A 
ENDBRANCH   1  17
BRANCH   1  20
HETATM   20  C   UNL     1      41.557 -16.048   5.011  1.00  0.00     0.274 C 
BRANCH  20  21
HETATM   21  C   UNL     1      42.763 -16.877   5.366  1.00  0.00    -0.032 A 
HETATM   22  C   UNL     1      42.975 -18.127   4.755  1.00  0.00     0.021 A 
HETATM   23  C   UNL     1      44.096 -18.917   5.070  1.00  0.00    -0.024 A 
HETATM   24  C   UNL     1      45.000 -18.427   6.024  1.00  0.00     0.012 A 
HETATM   25  C   UNL     1      44.801 -17.189   6.638  1.00  0.00     0.001 A 
HETATM   26  C   UNL     1      43.689 -16.416   6.310  1.00  0.00     0.009 A 
BRANCH  23  27
HETATM   27  C   UNL     1      44.316 -20.214   4.411  1.00  0.00    -0.008 A 
HETATM   28  C   UNL     1      44.673 -21.357   5.130  1.00  0.00     0.128 A 
HETATM   29  N   UNL     1      44.914 -22.572   4.585  1.00  0.00    -0.272 NA
HETATM   30  C   UNL     1      44.772 -22.677   3.248  1.00  0.00     0.116 A 
HETATM   31  C   UNL     1      44.408 -21.618   2.434  1.00  0.00     0.020 A 
HETATM   32  C   UNL     1      44.181 -20.376   3.025  1.00  0.00     0.015 A 
ENDBRANCH  23  27
ENDBRANCH  20  21
ENDBRANCH   1  20
TORSDOF 8
ENDMDL
MODEL 5
REMARK VINA RESULT:      -7.8      2.461      6.177
REMARK  8 active torsions:
REMARK  status: ('A' for Active; 'I' for Inactive)
REMARK    1  A    between atoms: C_4  and  N_5 
REMARK       I    between atoms: N_5  and  C_6 
REMARK    2  A    between atoms: C_6  and  C_7 
REMARK    3  A    between atoms: C_7  and  N_8 
REMARK    4  A    between atoms: N_8  and  C_10 
REMARK    5  A    between atoms: N_8  and  C_13 
REMARK    6  A    between atoms: C_13  and  C_14 
REMARK    7  A    between atoms: C_16  and  C_17 
REMARK    8  A    between atoms: C_27  and  O_28 
ROOT
HETATM    1  N   UNL     1      41.444 -15.227   3.887  1.00  0.00    -0.055 N 
HETATM    2  H   UNL     1      41.950 -15.789   3.185  1.00  0.00     0.281 HD
ENDROOT
BRANCH   1   3
HETATM    3  C   UNL     1      40.065 -14.998   3.227  1.00  0.00     0.338 C 
BRANCH   3   4
HETATM    4  C   UNL     1      39.875 -15.855   1.973  1.00  0.00     0.248 C 
HETATM    5  N   UNL     1      39.689 -15.246   0.769  1.00  0.00    -0.323 N 
HETATM    6  H   UNL     1      39.931 -15.814  -0.043  1.00  0.00     0.169 HD
HETATM    7  O   UNL     1      40.006 -17.080   2.045  1.00  0.00    -0.271 OA
BRANCH   5   8
HETATM    8  C   UNL     1      39.260 -13.940   0.461  1.00  0.00     0.069 A 
HETATM    9  C   UNL     1      37.956 -13.498   0.715  1.00  0.00     0.039 A 
HETATM   10  C   UNL     1      37.558 -12.209   0.338  1.00  0.00    -0.060 A 
HETATM   11  C   UNL     1      36.137 -11.760   0.523  1.00  0.00     0.048 C 
HETATM   12  C   UNL     1      38.474 -11.376  -0.311  1.00  0.00     0.009 A 
HETATM   13  C   UNL     1      39.772 -11.817  -0.585  1.00  0.00     0.039 A 
HETATM   14  C   UNL     1      40.170 -13.100  -0.211  1.00  0.00     0.095 A 
BRANCH  14  15
HETATM   15  O   UNL     1      41.417 -13.635  -0.429  1.00  0.00    -0.354 OA
HETATM   16  C   UNL     1      42.041 -13.331  -1.672  1.00  0.00     0.210 C 
ENDBRANCH  14  15
ENDBRANCH   5   8
ENDBRANCH   3   4
ENDBRANCH   1   3
BRANCH   1  17
HETATM   17  C   UNL     1      42.251 -13.957   3.983  1.00  0.00     0.189 A 
HETATM   18  C   UNL     1      43.626 -13.947   3.372  1.00  0.00     0.035 A 
HETATM   19  C   UNL     1      42.537 -13.101   2.781  1.00  0.00     0.035 A 
ENDBRANCH   1  17
BRANCH   1  20
HETATM   20  C   UNL     1      41.376 -16.060   5.138  1.00  0.00     0.274 C 
BRANCH  20  21
HETATM   21  C   UNL     1      42.616 -16.868   5.418  1.00  0.00    -0.032 A 
HETATM   22  C   UNL     1      42.841 -18.086   4.751  1.00  0.00     0.021 A 
HETATM   23  C   UNL     1      43.992 -18.856   4.995  1.00  0.00    -0.024 A 
HETATM   24  C   UNL     1      44.916 -18.377   5.937  1.00  0.00     0.012 A 
HETATM   25  C   UNL     1      44.705 -17.171   6.607  1.00  0.00     0.001 A 
HETATM   26  C   UNL     1      43.562 -16.418   6.348  1.00  0.00     0.009 A 
BRANCH  23  27
HETATM   27  C   UNL     1      44.224 -20.119   4.278  1.00  0.00    -0.008 A 
HETATM   28  C   UNL     1      44.600 -21.288   4.943  1.00  0.00     0.128 A 
HETATM   29  N   UNL     1      44.853 -22.475   4.344  1.00  0.00    -0.272 NA
HETATM   30  C   UNL     1      44.704 -22.521   3.005  1.00  0.00     0.116 A 
HETATM   31  C   UNL     1      44.322 -21.433   2.241  1.00  0.00     0.020 A 
HETATM   32  C   UNL     1      44.083 -20.221   2.887  1.00  0.00     0.015 A 
ENDBRANCH  23  27
ENDBRANCH  20  21
ENDBRANCH   1  20
TORSDOF 8
ENDMDL
MODEL 6
REMARK VINA RESULT:      -7.8      2.316      4.610
REMARK  8 active torsions:
REMARK  status: ('A' for Active; 'I' for Inactive)
REMARK    1  A    between atoms: C_4  and  N_5 
REMARK       I    between atoms: N_5  and  C_6 
REMARK    2  A    between atoms: C_6  and  C_7 
REMARK    3  A    between atoms: C_7  and  N_8 
REMARK    4  A    between atoms: N_8  and  C_10 
REMARK    5  A    between atoms: N_8  and  C_13 
REMARK    6  A    between atoms: C_13  and  C_14 
REMARK    7  A    between atoms: C_16  and  C_17 
REMARK    8  A    between atoms: C_27  and  O_28 
ROOT
HETATM    1  N   UNL     1      41.981 -14.971   2.090  1.00  0.00    -0.055 N 
HETATM    2  H   UNL     1      41.813 -15.428   3.000  1.00  0.00     0.281 HD
ENDROOT
BRANCH   1   3
HETATM    3  C   UNL     1      42.504 -13.573   2.490  1.00  0.00     0.338 C 
BRANCH   3   4
HETATM    4  C   UNL     1      43.430 -13.628   3.708  1.00  0.00     0.248 C 
HETATM    5  N   UNL     1      42.891 -13.610   4.959  1.00  0.00    -0.323 N 
HETATM    6  H   UNL     1      43.482 -14.006   5.689  1.00  0.00     0.169 HD
HETATM    7  O   UNL     1      44.641 -13.805   3.547  1.00  0.00    -0.271 OA
BRANCH   5   8
HETATM    8  C   UNL     1      41.628 -13.173   5.404  1.00  0.00     0.069 A 
HETATM    9  C   UNL     1      41.377 -11.846   5.771  1.00  0.00     0.039 A 
HETATM   10  C   UNL     1      40.121 -11.471   6.264  1.00  0.00    -0.060 A 
HETATM   11  C   UNL     1      39.872 -10.070   6.746  1.00  0.00     0.048 C 
HETATM   12  C   UNL     1      39.125 -12.443   6.401  1.00  0.00     0.009 A 
HETATM   13  C   UNL     1      39.373 -13.774   6.054  1.00  0.00     0.039 A 
HETATM   14  C   UNL     1      40.624 -14.149   5.564  1.00  0.00     0.095 A 
BRANCH  14  15
HETATM   15  O   UNL     1      40.977 -15.424   5.192  1.00  0.00    -0.354 OA
HETATM   16  C   UNL     1      40.837 -16.445   6.176  1.00  0.00     0.210 C 
ENDBRANCH  14  15
ENDBRANCH   5   8
ENDBRANCH   3   4
ENDBRANCH   1   3
BRANCH   1  17
HETATM   17  C   UNL     1      40.613 -14.912   1.458  1.00  0.00     0.189 A 
HETATM   18  C   UNL     1      39.494 -15.661   2.127  1.00  0.00     0.035 A 
HETATM   19  C   UNL     1      39.475 -14.162   2.090  1.00  0.00     0.035 A 
ENDBRANCH   1  17
BRANCH   1  20
HETATM   20  C   UNL     1      43.003 -15.807   1.370  1.00  0.00     0.274 C 
BRANCH  20  21
HETATM   21  C   UNL     1      43.297 -17.132   2.022  1.00  0.00    -0.032 A 
HETATM   22  C   UNL     1      43.467 -17.221   3.416  1.00  0.00     0.021 A 
HETATM   23  C   UNL     1      43.740 -18.449   4.046  1.00  0.00    -0.024 A 
HETATM   24  C   UNL     1      43.849 -19.592   3.240  1.00  0.00     0.012 A 
HETATM   25  C   UNL     1      43.683 -19.519   1.856  1.00  0.00     0.001 A 
HETATM   26  C   UNL     1      43.407 -18.296   1.249  1.00  0.00     0.009 A 
BRANCH  23  27
HETATM   27  C   UNL     1      43.898 -18.531   5.507  1.00  0.00    -0.008 A 
HETATM   28  C   UNL     1      43.657 -19.713   6.210  1.00  0.00     0.128 A 
HETATM   29  N   UNL     1      43.759 -19.851   7.553  1.00  0.00    -0.272 NA
HETATM   30  C   UNL     1      44.145 -18.762   8.247  1.00  0.00     0.116 A 
HETATM   31  C   UNL     1      44.425 -17.541   7.658  1.00  0.00     0.020 A 
HETATM   32  C   UNL     1      44.296 -17.428   6.274  1.00  0.00     0.015 A 
ENDBRANCH  23  27
ENDBRANCH  20  21
ENDBRANCH   1  20
TORSDOF 8
ENDMDL
MODEL 7
REMARK VINA RESULT:      -7.8      1.652      2.931
REMARK  8 active torsions:
REMARK  status: ('A' for Active; 'I' for Inactive)
REMARK    1  A    between atoms: C_4  and  N_5 
REMARK       I    between atoms: N_5  and  C_6 
REMARK    2  A    between atoms: C_6  and  C_7 
REMARK    3  A    between atoms: C_7  and  N_8 
REMARK    4  A    between atoms: N_8  and  C_10 
REMARK    5  A    between atoms: N_8  and  C_13 
REMARK    6  A    between atoms: C_13  and  C_14 
REMARK    7  A    between atoms: C_16  and  C_17 
REMARK    8  A    between atoms: C_27  and  O_28 
ROOT
HETATM    1  N   UNL     1      41.679 -14.716   3.023  1.00  0.00    -0.055 N 
HETATM    2  H   UNL     1      41.337 -15.281   3.816  1.00  0.00     0.281 HD
ENDROOT
BRANCH   1   3
HETATM    3  C   UNL     1      41.399 -13.266   3.477  1.00  0.00     0.338 C 
BRANCH   3   4
HETATM    4  C   UNL     1      40.493 -13.211   4.709  1.00  0.00     0.248 C 
HETATM    5  N   UNL     1      41.022 -13.457   5.940  1.00  0.00    -0.323 N 
HETATM    6  H   UNL     1      40.499 -13.062   6.721  1.00  0.00     0.169 HD
HETATM    7  O   UNL     1      39.324 -12.832   4.591  1.00  0.00    -0.271 OA
BRANCH   5   8
HETATM    8  C   UNL     1      42.203 -14.131   6.309  1.00  0.00     0.069 A 
HETATM    9  C   UNL     1      43.443 -13.488   6.384  1.00  0.00     0.039 A 
HETATM   10  C   UNL     1      44.600 -14.212   6.698  1.00  0.00    -0.060 A 
HETATM   11  C   UNL     1      45.948 -13.548   6.690  1.00  0.00     0.048 C 
HETATM   12  C   UNL     1      44.503 -15.589   6.919  1.00  0.00     0.009 A 
HETATM   13  C   UNL     1      43.270 -16.242   6.827  1.00  0.00     0.039 A 
HETATM   14  C   UNL     1      42.117 -15.523   6.514  1.00  0.00     0.095 A 
BRANCH  14  15
HETATM   15  O   UNL     1      40.857 -16.060   6.400  1.00  0.00    -0.354 OA
HETATM   16  C   UNL     1      40.720 -17.210   5.570  1.00  0.00     0.210 C 
ENDBRANCH  14  15
ENDBRANCH   5   8
ENDBRANCH   3   4
ENDBRANCH   1   3
BRANCH   1  17
HETATM   17  C   UNL     1      40.798 -15.137   1.874  1.00  0.00     0.189 A 
HETATM   18  C   UNL     1      39.981 -16.389   2.033  1.00  0.00     0.035 A 
HETATM   19  C   UNL     1      39.300 -15.055   1.946  1.00  0.00     0.035 A 
ENDBRANCH   1  17
BRANCH   1  20
HETATM   20  C   UNL     1      43.144 -15.023   2.876  1.00  0.00     0.274 C 
BRANCH  20  21
HETATM   21  C   UNL     1      43.452 -16.462   2.556  1.00  0.00    -0.032 A 
HETATM   22  C   UNL     1      43.633 -17.401   3.588  1.00  0.00     0.021 A 
HETATM   23  C   UNL     1      43.919 -18.751   3.312  1.00  0.00    -0.024 A 
HETATM   24  C   UNL     1      44.029 -19.138   1.969  1.00  0.00     0.012 A 
HETATM   25  C   UNL     1      43.853 -18.217   0.934  1.00  0.00     0.001 A 
HETATM   26  C   UNL     1      43.564 -16.886   1.225  1.00  0.00     0.009 A 
BRANCH  23  27
HETATM   27  C   UNL     1      44.088 -19.726   4.401  1.00  0.00    -0.008 A 
HETATM   28  C   UNL     1      44.738 -20.946   4.204  1.00  0.00     0.128 A 
HETATM   29  N   UNL     1      44.905 -21.897   5.153  1.00  0.00    -0.272 NA
HETATM   30  C   UNL     1      44.423 -21.620   6.381  1.00  0.00     0.116 A 
HETATM   31  C   UNL     1      43.774 -20.440   6.698  1.00  0.00     0.020 A 
HETATM   32  C   UNL     1      43.604 -19.487   5.694  1.00  0.00     0.015 A 
ENDBRANCH  23  27
ENDBRANCH  20  21
ENDBRANCH   1  20
TORSDOF 8
ENDMDL
MODEL 8
REMARK VINA RESULT:      -7.8      3.086      8.359
REMARK  8 active torsions:
REMARK  status: ('A' for Active; 'I' for Inactive)
REMARK    1  A    between atoms: C_4  and  N_5 
REMARK       I    between atoms: N_5  and  C_6 
REMARK    2  A    between atoms: C_6  and  C_7 
REMARK    3  A    between atoms: C_7  and  N_8 
REMARK    4  A    between atoms: N_8  and  C_10 
REMARK    5  A    between atoms: N_8  and  C_13 
REMARK    6  A    between atoms: C_13  and  C_14 
REMARK    7  A    between atoms: C_16  and  C_17 
REMARK    8  A    between atoms: C_27  and  O_28 
ROOT
HETATM    1  N   UNL     1      43.268 -15.077   6.659  1.00  0.00    -0.055 N 
HETATM    2  H   UNL     1      42.823 -14.451   7.347  1.00  0.00     0.281 HD
ENDROOT
BRANCH   1   3
HETATM    3  C   UNL     1      42.531 -14.733   5.344  1.00  0.00     0.338 C 
BRANCH   3   4
HETATM    4  C   UNL     1      41.050 -15.117   5.393  1.00  0.00     0.248 C 
HETATM    5  N   UNL     1      40.627 -16.236   4.743  1.00  0.00    -0.323 N 
HETATM    6  H   UNL     1      39.758 -16.637   5.094  1.00  0.00     0.169 HD
HETATM    7  O   UNL     1      40.277 -14.477   6.113  1.00  0.00    -0.271 OA
BRANCH   5   8
HETATM    8  C   UNL     1      41.220 -16.960   3.689  1.00  0.00     0.069 A 
HETATM    9  C   UNL     1      42.272 -17.861   3.895  1.00  0.00     0.039 A 
HETATM   10  C   UNL     1      42.869 -18.513   2.809  1.00  0.00    -0.060 A 
HETATM   11  C   UNL     1      44.057 -19.411   3.011  1.00  0.00     0.048 C 
HETATM   12  C   UNL     1      42.414 -18.241   1.515  1.00  0.00     0.009 A 
HETATM   13  C   UNL     1      41.377 -17.328   1.300  1.00  0.00     0.039 A 
HETATM   14  C   UNL     1      40.781 -16.677   2.380  1.00  0.00     0.095 A 
BRANCH  14  15
HETATM   15  O   UNL     1      39.757 -15.764   2.286  1.00  0.00    -0.354 OA
HETATM   16  C   UNL     1      39.941 -14.681   1.380  1.00  0.00     0.210 C 
ENDBRANCH  14  15
ENDBRANCH   5   8
ENDBRANCH   3   4
ENDBRANCH   1   3
BRANCH   1  17
HETATM   17  C   UNL     1      42.932 -16.460   7.158  1.00  0.00     0.189 A 
HETATM   18  C   UNL     1      44.022 -17.495   7.155  1.00  0.00     0.035 A 
HETATM   19  C   UNL     1      43.470 -16.991   8.456  1.00  0.00     0.035 A 
ENDBRANCH   1  17
BRANCH   1  20
HETATM   20  C   UNL     1      44.729 -14.723   6.634  1.00  0.00     0.274 C 
BRANCH  20  21
HETATM   21  C   UNL     1      45.103 -13.556   7.510  1.00  0.00    -0.032 A 
HETATM   22  C   UNL     1      44.203 -13.068   8.474  1.00  0.00     0.021 A 
HETATM   23  C   UNL     1      44.532 -11.981   9.304  1.00  0.00    -0.024 A 
HETATM   24  C   UNL     1      45.792 -11.386   9.139  1.00  0.00     0.012 A 
HETATM   25  C   UNL     1      46.696 -11.859   8.186  1.00  0.00     0.001 A 
HETATM   26  C   UNL     1      46.355 -12.940   7.376  1.00  0.00     0.009 A 
BRANCH  23  27
HETATM   27  C   UNL     1      43.588 -11.491  10.321  1.00  0.00    -0.008 A 
HETATM   28  C   UNL     1      43.732 -11.803  11.674  1.00  0.00     0.128 A 
HETATM   29  N   UNL     1      42.888 -11.408  12.655  1.00  0.00    -0.272 NA
HETATM   30  C   UNL     1      41.847 -10.636  12.285  1.00  0.00     0.116 A 
HETATM   31  C   UNL     1      41.609 -10.251  10.978  1.00  0.00     0.020 A 
HETATM   32  C   UNL     1      42.489 -10.687   9.988  1.00  0.00     0.015 A 
ENDBRANCH  23  27
ENDBRANCH  20  21
ENDBRANCH   1  20
TORSDOF 8
ENDMDL
MODEL 9
REMARK VINA RESULT:      -7.7      2.575      4.560
REMARK  8 active torsions:
REMARK  status: ('A' for Active; 'I' for Inactive)
REMARK    1  A    between atoms: C_4  and  N_5 
REMARK       I    between atoms: N_5  and  C_6 
REMARK    2  A    between atoms: C_6  and  C_7 
REMARK    3  A    between atoms: C_7  and  N_8 
REMARK    4  A    between atoms: N_8  and  C_10 
REMARK    5  A    between atoms: N_8  and  C_13 
REMARK    6  A    between atoms: C_13  and  C_14 
REMARK    7  A    between atoms: C_16  and  C_17 
REMARK    8  A    between atoms: C_27  and  O_28 
ROOT
HETATM    1  N   UNL     1      40.873 -14.772   0.423  1.00  0.00    -0.055 N 
HETATM    2  H   UNL     1      40.135 -14.060   0.533  1.00  0.00     0.281 HD
ENDROOT
BRANCH   1   3
HETATM    3  C   UNL     1      42.164 -13.998   0.775  1.00  0.00     0.338 C 
BRANCH   3   4
HETATM    4  C   UNL     1      41.887 -12.527   1.095  1.00  0.00     0.248 C 
HETATM    5  N   UNL     1      41.946 -12.101   2.387  1.00  0.00    -0.323 N 
HETATM    6  H   UNL     1      42.118 -11.103   2.505  1.00  0.00     0.169 HD
HETATM    7  O   UNL     1      41.729 -11.722   0.173  1.00  0.00    -0.271 OA
BRANCH   5   8
HETATM    8  C   UNL     1      41.853 -12.823   3.593  1.00  0.00     0.069 A 
HETATM    9  C   UNL     1      42.981 -13.228   4.316  1.00  0.00     0.039 A 
HETATM   10  C   UNL     1      42.841 -13.995   5.479  1.00  0.00    -0.060 A 
HETATM   11  C   UNL     1      44.049 -14.510   6.209  1.00  0.00     0.048 C 
HETATM   12  C   UNL     1      41.561 -14.369   5.900  1.00  0.00     0.009 A 
HETATM   13  C   UNL     1      40.430 -13.985   5.172  1.00  0.00     0.039 A 
HETATM   14  C   UNL     1      40.568 -13.221   4.014  1.00  0.00     0.095 A 
BRANCH  14  15
HETATM   15  O   UNL     1      39.529 -12.788   3.225  1.00  0.00    -0.354 OA
HETATM   16  C   UNL     1      38.746 -11.709   3.725  1.00  0.00     0.210 C 
ENDBRANCH  14  15
ENDBRANCH   5   8
ENDBRANCH   3   4
ENDBRANCH   1   3
BRANCH   1  17
HETATM   17  C   UNL     1      40.806 -15.140  -1.037  1.00  0.00     0.189 A 
HETATM   18  C   UNL     1      39.861 -14.369  -1.916  1.00  0.00     0.035 A 
HETATM   19  C   UNL     1      41.342 -14.238  -2.112  1.00  0.00     0.035 A 
ENDBRANCH   1  17
BRANCH   1  20
HETATM   20  C   UNL     1      40.555 -15.875   1.395  1.00  0.00     0.274 C 
BRANCH  20  21
HETATM   21  C   UNL     1      41.743 -16.696   1.821  1.00  0.00    -0.032 A 
HETATM   22  C   UNL     1      42.036 -16.877   3.184  1.00  0.00     0.021 A 
HETATM   23  C   UNL     1      43.139 -17.642   3.605  1.00  0.00    -0.024 A 
HETATM   24  C   UNL     1      43.954 -18.217   2.618  1.00  0.00     0.012 A 
HETATM   25  C   UNL     1      43.677 -18.045   1.261  1.00  0.00     0.001 A 
HETATM   26  C   UNL     1      42.576 -17.290   0.863  1.00  0.00     0.009 A 
BRANCH  23  27
HETATM   27  C   UNL     1      43.423 -17.838   5.035  1.00  0.00    -0.008 A 
HETATM   28  C   UNL     1      42.425 -17.738   6.006  1.00  0.00     0.128 A 
HETATM   29  N   UNL     1      42.621 -17.883   7.338  1.00  0.00    -0.272 NA
HETATM   30  C   UNL     1      43.877 -18.166   7.738  1.00  0.00     0.116 A 
HETATM   31  C   UNL     1      44.943 -18.303   6.867  1.00  0.00     0.020 A 
HETATM   32  C   UNL     1      44.711 -18.134   5.503  1.00  0.00     0.015 A 
ENDBRANCH  23  27
ENDBRANCH  20  21
ENDBRANCH   1  20
TORSDOF 8
ENDMDL
MODEL 10
REMARK VINA RESULT:      -7.7      3.993      7.184
REMARK  8 active torsions:
REMARK  status: ('A' for Active; 'I' for Inactive)
REMARK    1  A    between atoms: C_4  and  N_5 
REMARK       I    between atoms: N_5  and  C_6 
REMARK    2  A    between atoms: C_6  and  C_7 
REMARK    3  A    between atoms: C_7  and  N_8 
REMARK    4  A    between atoms: N_8  and  C_10 
REMARK    5  A    between atoms: N_8  and  C_13 
REMARK    6  A    between atoms: C_13  and  C_14 
REMARK    7  A    between atoms: C_16  and  C_17 
REMARK    8  A    between atoms: C_27  and  O_28 
ROOT
HETATM    1  N   UNL     1      40.489 -14.080   1.597  1.00  0.00    -0.055 N 
HETATM    2  H   UNL     1      41.500 -14.274   1.650  1.00  0.00     0.281 HD
ENDROOT
BRANCH   1   3
HETATM    3  C   UNL     1      40.193 -14.169   0.083  1.00  0.00     0.338 C 
BRANCH   3   4
HETATM    4  C   UNL     1      41.175 -15.090  -0.645  1.00  0.00     0.248 C 
HETATM    5  N   UNL     1      42.078 -14.553  -1.512  1.00  0.00    -0.323 N 
HETATM    6  H   UNL     1      42.909 -15.120  -1.676  1.00  0.00     0.169 HD
HETATM    7  O   UNL     1      41.218 -16.289  -0.355  1.00  0.00    -0.271 OA
BRANCH   5   8
HETATM    8  C   UNL     1      42.073 -13.316  -2.188  1.00  0.00     0.069 A 
HETATM    9  C   UNL     1      42.709 -12.179  -1.677  1.00  0.00     0.039 A 
HETATM   10  C   UNL     1      42.627 -10.956  -2.355  1.00  0.00    -0.060 A 
HETATM   11  C   UNL     1      43.228  -9.711  -1.768  1.00  0.00     0.048 C 
HETATM   12  C   UNL     1      41.887 -10.881  -3.539  1.00  0.00     0.009 A 
HETATM   13  C   UNL     1      41.233 -12.009  -4.046  1.00  0.00     0.039 A 
HETATM   14  C   UNL     1      41.313 -13.227  -3.371  1.00  0.00     0.095 A 
BRANCH  14  15
HETATM   15  O   UNL     1      40.714 -14.396  -3.777  1.00  0.00    -0.354 OA
HETATM   16  C   UNL     1      39.296 -14.468  -3.657  1.00  0.00     0.210 C 
ENDBRANCH  14  15
ENDBRANCH   5   8
ENDBRANCH   3   4
ENDBRANCH   1   3
BRANCH   1  17
HETATM   17  C   UNL     1      40.362 -12.673   2.124  1.00  0.00     0.189 A 
HETATM   18  C   UNL     1      41.497 -12.121   2.941  1.00  0.00     0.035 A 
HETATM   19  C   UNL     1      41.197 -11.544   1.590  1.00  0.00     0.035 A 
ENDBRANCH   1  17
BRANCH   1  20
HETATM   20  C   UNL     1      39.803 -15.148   2.403  1.00  0.00     0.274 C 
BRANCH  20  21
HETATM   21  C   UNL     1      40.691 -15.846   3.400  1.00  0.00    -0.032 A 
HETATM   22  C   UNL     1      41.458 -16.961   3.016  1.00  0.00     0.021 A 
HETATM   23  C   UNL     1      42.296 -17.627   3.929  1.00  0.00    -0.024 A 
HETATM   24  C   UNL     1      42.341 -17.150   5.248  1.00  0.00     0.012 A 
HETATM   25  C   UNL     1      41.585 -16.045   5.643  1.00  0.00     0.001 A 
HETATM   26  C   UNL     1      40.765 -15.394   4.724  1.00  0.00     0.009 A 
BRANCH  23  27
HETATM   27  C   UNL     1      43.106 -18.781   3.510  1.00  0.00    -0.008 A 
HETATM   28  C   UNL     1      44.084 -19.336   4.338  1.00  0.00     0.128 A 
HETATM   29  N   UNL     1      44.880 -20.379   4.006  1.00  0.00    -0.272 NA
HETATM   30  C   UNL     1      44.686 -20.927   2.790  1.00  0.00     0.116 A 
HETATM   31  C   UNL     1      43.739 -20.472   1.890  1.00  0.00     0.020 A 
HETATM   32  C   UNL     1      42.945 -19.386   2.256  1.00  0.00     0.015 A 
ENDBRANCH  23  27
ENDBRANCH  20  21
ENDBRANCH   1  20
TORSDOF 8
ENDMDL
