MODEL 1
REMARK VINA RESULT:      -8.6      0.000      0.000
REMARK  8 active torsions:
REMARK  status: ('A' for Active; 'I' for Inactive)
REMARK    1  A    between atoms: O_2  and  C_3 
REMARK    2  A    between atoms: C_7  and  C_9 
REMARK    3  A    between atoms: C_9  and  C_10 
REMARK    4  A    between atoms: C_9  and  N_18 
REMARK    5  A    between atoms: C_10  and  C_11 
REMARK    6  A    between atoms: C_11  and  N_12 
REMARK       I    between atoms: N_18  and  C_19 
REMARK    7  A    between atoms: C_19  and  C_21 
REMARK    8  A    between atoms: C_24  and  C_27 
ROOT
HETATM    1  C   UNL     1      44.361 -14.526   6.305  1.00  0.00     0.119 C 
ENDROOT
BRANCH   1   2
HETATM    2  C   UNL     1      44.166 -15.941   6.828  1.00  0.00    -0.033 A 
HETATM    3  C   UNL     1      43.585 -16.233   8.071  1.00  0.00     0.009 A 
HETATM    4  C   UNL     1      43.451 -17.556   8.495  1.00  0.00     0.003 A 
HETATM    5  C   UNL     1      43.915 -18.599   7.696  1.00  0.00     0.037 A 
HETATM    6  C   UNL     1      44.527 -18.334   6.472  1.00  0.00     0.068 A 
HETATM    7  C   UNL     1      44.642 -17.012   6.040  1.00  0.00     0.046 A 
BRANCH   6   8
HETATM    8  O   UNL     1      44.959 -19.441   5.797  1.00  0.00    -0.356 OA
HETATM    9  C   UNL     1      44.337 -19.719   4.547  1.00  0.00     0.210 C 
ENDBRANCH   6   8
ENDBRANCH   1   2
BRANCH   1  10
HETATM   10  C   UNL     1      43.549 -14.185   5.033  1.00  0.00     0.057 C 
BRANCH  10  11
HETATM   11  C   UNL     1      42.082 -13.902   5.349  1.00  0.00     0.237 C 
BRANCH  11  12
HETATM   12  N   UNL     1      41.190 -15.001   4.813  1.00  0.00    -0.071 N 
HETATM   13  H   UNL     1      40.419 -14.555   4.296  1.00  0.00     0.279 HD
HETATM   14  C   UNL     1      40.575 -15.917   5.856  1.00  0.00     0.235 C 
HETATM   15  C   UNL     1      41.056 -17.308   5.492  1.00  0.00     0.029 C 
HETATM   16  C   UNL     1      41.269 -17.240   3.994  1.00  0.00     0.029 C 
HETATM   17  C   UNL     1      41.922 -15.887   3.818  1.00  0.00     0.235 C 
ENDBRANCH  11  12
ENDBRANCH  10  11
ENDBRANCH   1  10
BRANCH   1  18
HETATM   18  N   UNL     1      44.062 -13.599   7.388  1.00  0.00    -0.348 N 
HETATM   19  C   UNL     1      45.042 -12.864   8.018  1.00  0.00     0.252 C 
HETATM   20  O   UNL     1      46.203 -12.860   7.619  1.00  0.00    -0.268 OA
HETATM   21  H   UNL     1      43.100 -13.545   7.699  1.00  0.00     0.163 HD
BRANCH  19  22
HETATM   22  C   UNL     1      44.620 -11.985   9.145  1.00  0.00     0.032 A 
HETATM   23  C   UNL     1      45.313 -11.922  10.356  1.00  0.00     0.018 A 
HETATM   24  C   UNL     1      44.822 -11.134  11.404  1.00  0.00     0.013 A 
HETATM   25  C   UNL     1      43.639 -10.388  11.263  1.00  0.00    -0.026 A 
HETATM   26  C   UNL     1      42.981 -10.427  10.024  1.00  0.00     0.013 A 
HETATM   27  C   UNL     1      43.466 -11.213   8.974  1.00  0.00     0.018 A 
BRANCH  25  28
HETATM   28  C   UNL     1      43.096  -9.605  12.383  1.00  0.00    -0.023 A 
HETATM   29  C   UNL     1      43.018 -10.135  13.676  1.00  0.00     0.031 A 
HETATM   30  C   UNL     1      42.485  -9.357  14.692  1.00  0.00     0.117 A 
HETATM   31  N   UNL     1      42.027  -8.101  14.512  1.00  0.00    -0.273 NA
HETATM   32  C   UNL     1      42.108  -7.600  13.264  1.00  0.00     0.117 A 
HETATM   33  C   UNL     1      42.627  -8.300  12.187  1.00  0.00     0.031 A 
ENDBRANCH  25  28
ENDBRANCH  19  22
ENDBRANCH   1  18
TORSDOF 8
ENDMDL
MODEL 2
REMARK VINA RESULT:      -8.5      5.718     10.333
REMARK  8 active torsions:
REMARK  status: ('A' for Active; 'I' for Inactive)
REMARK    1  A    between atoms: O_2  and  C_3 
REMARK    2  A    between atoms: C_7  and  C_9 
REMARK    3  A    between atoms: C_9  and  C_10 
REMARK    4  A    between atoms: C_9  and  N_18 
REMARK    5  A    between atoms: C_10  and  C_11 
REMARK    6  A    between atoms: C_11  and  N_12 
REMARK       I    between atoms: N_18  and  C_19 
REMARK    7  A    between atoms: C_19  and  C_21 
REMARK    8  A    between atoms: C_24  and  C_27 
ROOT
HETATM    1  C   UNL     1      41.835 -12.675   1.198  1.00  0.00     0.119 C 
ENDROOT
BRANCH   1   2
HETATM    2  C   UNL     1      42.110 -12.495  -0.287  1.00  0.00    -0.033 A 
HETATM    3  C   UNL     1      42.606 -11.306  -0.843  1.00  0.00     0.009 A 
HETATM    4  C   UNL     1      42.821 -11.204  -2.218  1.00  0.00     0.003 A 
HETATM    5  C   UNL     1      42.523 -12.278  -3.056  1.00  0.00     0.037 A 
HETATM    6  C   UNL     1      41.998 -13.458  -2.533  1.00  0.00     0.068 A 
HETATM    7  C   UNL     1      41.802 -13.565  -1.155  1.00  0.00     0.046 A 
BRANCH   6   8
HETATM    8  O   UNL     1      41.726 -14.424  -3.460  1.00  0.00    -0.356 OA
HETATM    9  C   UNL     1      41.020 -15.574  -3.008  1.00  0.00     0.210 C 
ENDBRANCH   6   8
ENDBRANCH   1   2
BRANCH   1  10
HETATM   10  C   UNL     1      40.425 -12.232   1.656  1.00  0.00     0.057 C 
BRANCH  10  11
HETATM   11  C   UNL     1      39.620 -13.394   2.236  1.00  0.00     0.237 C 
BRANCH  11  12
HETATM   12  N   UNL     1      39.530 -13.292   3.744  1.00  0.00    -0.071 N 
HETATM   13  H   UNL     1      38.537 -13.185   3.992  1.00  0.00     0.279 HD
HETATM   14  C   UNL     1      40.288 -12.137   4.372  1.00  0.00     0.235 C 
HETATM   15  C   UNL     1      41.267 -12.784   5.333  1.00  0.00     0.029 C 
HETATM   16  C   UNL     1      40.584 -14.074   5.736  1.00  0.00     0.029 C 
HETATM   17  C   UNL     1      40.010 -14.564   4.425  1.00  0.00     0.235 C 
ENDBRANCH  11  12
ENDBRANCH  10  11
ENDBRANCH   1  10
BRANCH   1  18
HETATM   18  N   UNL     1      42.088 -14.069   1.538  1.00  0.00    -0.348 N 
HETATM   19  C   UNL     1      43.062 -14.440   2.439  1.00  0.00     0.252 C 
HETATM   20  O   UNL     1      43.686 -13.610   3.095  1.00  0.00    -0.268 OA
HETATM   21  H   UNL     1      41.547 -14.771   1.049  1.00  0.00     0.163 HD
BRANCH  19  22
HETATM   22  C   UNL     1      43.261 -15.898   2.669  1.00  0.00     0.032 A 
HETATM   23  C   UNL     1      43.307 -16.465   3.946  1.00  0.00     0.018 A 
HETATM   24  C   UNL     1      43.573 -17.831   4.096  1.00  0.00     0.013 A 
HETATM   25  C   UNL     1      43.790 -18.659   2.982  1.00  0.00    -0.026 A 
HETATM   26  C   UNL     1      43.696 -18.083   1.705  1.00  0.00     0.013 A 
HETATM   27  C   UNL     1      43.430 -16.719   1.548  1.00  0.00     0.018 A 
BRANCH  25  28
HETATM   28  C   UNL     1      44.125 -20.082   3.146  1.00  0.00    -0.023 A 
HETATM   29  C   UNL     1      44.557 -20.594   4.374  1.00  0.00     0.031 A 
HETATM   30  C   UNL     1      44.872 -21.941   4.469  1.00  0.00     0.117 A 
HETATM   31  N   UNL     1      44.789 -22.805   3.436  1.00  0.00    -0.273 NA
HETATM   32  C   UNL     1      44.370 -22.301   2.258  1.00  0.00     0.117 A 
HETATM   33  C   UNL     1      44.031 -20.971   2.068  1.00  0.00     0.031 A 
ENDBRANCH  25  28
ENDBRANCH  19  22
ENDBRANCH   1  18
TORSDOF 8
ENDMDL
MODEL 3
REMARK VINA RESULT:      -8.3      7.115     10.564
REMARK  8 active torsions:
REMARK  status: ('A' for Active; 'I' for Inactive)
REMARK    1  A    between atoms: O_2  and  C_3 
REMARK    2  A    between atoms: C_7  and  C_9 
REMARK    3  A    between atoms: C_9  and  C_10 
REMARK    4  A    between atoms: C_9  and  N_18 
REMARK    5  A    between atoms: C_10  and  C_11 
REMARK    6  A    between atoms: C_11  and  N_12 
REMARK       I    between atoms: N_18  and  C_19 
REMARK    7  A    between atoms: C_19  and  C_21 
REMARK    8  A    between atoms: C_24  and  C_27 
ROOT
HETATM    1  C   UNL     1      41.766 -12.637   1.259  1.00  0.00     0.119 C 
ENDROOT
BRANCH   1   2
HETATM    2  C   UNL     1      41.487 -12.531  -0.232  1.00  0.00    -0.033 A 
HETATM    3  C   UNL     1      41.014 -11.363  -0.850  1.00  0.00     0.009 A 
HETATM    4  C   UNL     1      40.764 -11.341  -2.223  1.00  0.00     0.003 A 
HETATM    5  C   UNL     1      40.960 -12.488  -2.990  1.00  0.00     0.037 A 
HETATM    6  C   UNL     1      41.397 -13.670  -2.395  1.00  0.00     0.068 A 
HETATM    7  C   UNL     1      41.666 -13.685  -1.025  1.00  0.00     0.046 A 
BRANCH   6   8
HETATM    8  O   UNL     1      41.527 -14.728  -3.251  1.00  0.00    -0.356 OA
HETATM    9  C   UNL     1      40.597 -15.795  -3.105  1.00  0.00     0.210 C 
ENDBRANCH   6   8
ENDBRANCH   1   2
BRANCH   1  10
HETATM   10  C   UNL     1      40.660 -12.053   2.171  1.00  0.00     0.057 C 
BRANCH  10  11
HETATM   11  C   UNL     1      39.798 -13.147   2.798  1.00  0.00     0.237 C 
BRANCH  11  12
HETATM   12  N   UNL     1      38.462 -13.254   2.095  1.00  0.00    -0.071 N 
HETATM   13  H   UNL     1      37.742 -13.416   2.813  1.00  0.00     0.279 HD
HETATM   14  C   UNL     1      38.346 -14.366   1.069  1.00  0.00     0.235 C 
HETATM   15  C   UNL     1      38.005 -13.666  -0.234  1.00  0.00     0.029 C 
HETATM   16  C   UNL     1      37.272 -12.416   0.205  1.00  0.00     0.029 C 
HETATM   17  C   UNL     1      38.088 -11.958   1.394  1.00  0.00     0.235 C 
ENDBRANCH  11  12
ENDBRANCH  10  11
ENDBRANCH   1  10
BRANCH   1  18
HETATM   18  N   UNL     1      42.025 -14.036   1.572  1.00  0.00    -0.348 N 
HETATM   19  C   UNL     1      43.021 -14.422   2.442  1.00  0.00     0.252 C 
HETATM   20  O   UNL     1      43.663 -13.602   3.094  1.00  0.00    -0.268 OA
HETATM   21  H   UNL     1      41.471 -14.730   1.086  1.00  0.00     0.163 HD
BRANCH  19  22
HETATM   22  C   UNL     1      43.223 -15.883   2.645  1.00  0.00     0.032 A 
HETATM   23  C   UNL     1      43.288 -16.471   3.912  1.00  0.00     0.018 A 
HETATM   24  C   UNL     1      43.556 -17.840   4.036  1.00  0.00     0.013 A 
HETATM   25  C   UNL     1      43.756 -18.649   2.905  1.00  0.00    -0.026 A 
HETATM   26  C   UNL     1      43.642 -18.052   1.640  1.00  0.00     0.013 A 
HETATM   27  C   UNL     1      43.375 -16.686   1.509  1.00  0.00     0.018 A 
BRANCH  25  28
HETATM   28  C   UNL     1      44.092 -20.075   3.040  1.00  0.00    -0.023 A 
HETATM   29  C   UNL     1      44.559 -20.603   4.249  1.00  0.00     0.031 A 
HETATM   30  C   UNL     1      44.874 -21.952   4.317  1.00  0.00     0.117 A 
HETATM   31  N   UNL     1      44.760 -22.802   3.276  1.00  0.00    -0.273 NA
HETATM   32  C   UNL     1      44.308 -22.282   2.117  1.00  0.00     0.117 A 
HETATM   33  C   UNL     1      43.966 -20.949   1.954  1.00  0.00     0.031 A 
ENDBRANCH  25  28
ENDBRANCH  19  22
ENDBRANCH   1  18
TORSDOF 8
ENDMDL
MODEL 4
REMARK VINA RESULT:      -8.0      5.370      9.667
REMARK  8 active torsions:
REMARK  status: ('A' for Active; 'I' for Inactive)
REMARK    1  A    between atoms: O_2  and  C_3 
REMARK    2  A    between atoms: C_7  and  C_9 
REMARK    3  A    between atoms: C_9  and  C_10 
REMARK    4  A    between atoms: C_9  and  N_18 
REMARK    5  A    between atoms: C_10  and  C_11 
REMARK    6  A    between atoms: C_11  and  N_12 
REMARK       I    between atoms: N_18  and  C_19 
REMARK    7  A    between atoms: C_19  and  C_21 
REMARK    8  A    between atoms: C_24  and  C_27 
ROOT
HETATM    1  C   UNL     1      42.187 -17.322   3.857  1.00  0.00     0.119 C 
ENDROOT
BRANCH   1   2
HETATM    2  C   UNL     1      42.982 -18.532   3.391  1.00  0.00    -0.033 A 
HETATM    3  C   UNL     1      42.863 -19.091   2.110  1.00  0.00     0.009 A 
HETATM    4  C   UNL     1      43.613 -20.212   1.755  1.00  0.00     0.003 A 
HETATM    5  C   UNL     1      44.472 -20.803   2.680  1.00  0.00     0.037 A 
HETATM    6  C   UNL     1      44.585 -20.288   3.970  1.00  0.00     0.068 A 
HETATM    7  C   UNL     1      43.849 -19.153   4.317  1.00  0.00     0.046 A 
BRANCH   6   8
HETATM    8  O   UNL     1      45.441 -20.971   4.786  1.00  0.00    -0.356 OA
HETATM    9  C   UNL     1      45.067 -22.294   5.153  1.00  0.00     0.210 C 
ENDBRANCH   6   8
ENDBRANCH   1   2
BRANCH   1  10
HETATM   10  C   UNL     1      42.647 -16.721   5.206  1.00  0.00     0.057 C 
BRANCH  10  11
HETATM   11  C   UNL     1      41.471 -16.451   6.144  1.00  0.00     0.237 C 
BRANCH  11  12
HETATM   12  N   UNL     1      41.182 -14.968   6.237  1.00  0.00    -0.071 N 
HETATM   13  H   UNL     1      41.057 -14.735   7.232  1.00  0.00     0.279 HD
HETATM   14  C   UNL     1      39.948 -14.491   5.494  1.00  0.00     0.235 C 
HETATM   15  C   UNL     1      40.457 -13.456   4.508  1.00  0.00     0.029 C 
HETATM   16  C   UNL     1      41.694 -12.894   5.175  1.00  0.00     0.029 C 
HETATM   17  C   UNL     1      42.352 -14.134   5.741  1.00  0.00     0.235 C 
ENDBRANCH  11  12
ENDBRANCH  10  11
ENDBRANCH   1  10
BRANCH   1  18
HETATM   18  N   UNL     1      42.220 -16.325   2.795  1.00  0.00    -0.348 N 
HETATM   19  C   UNL     1      41.150 -16.111   1.955  1.00  0.00     0.252 C 
HETATM   20  O   UNL     1      40.068 -16.665   2.133  1.00  0.00    -0.268 OA
HETATM   21  H   UNL     1      43.085 -15.816   2.663  1.00  0.00     0.163 HD
BRANCH  19  22
HETATM   22  C   UNL     1      41.319 -15.099   0.875  1.00  0.00     0.032 A 
HETATM   23  C   UNL     1      41.127 -15.394  -0.477  1.00  0.00     0.018 A 
HETATM   24  C   UNL     1      41.376 -14.417  -1.449  1.00  0.00     0.013 A 
HETATM   25  C   UNL     1      41.811 -13.128  -1.094  1.00  0.00    -0.026 A 
HETATM   26  C   UNL     1      41.953 -12.835   0.272  1.00  0.00     0.013 A 
HETATM   27  C   UNL     1      41.707 -13.806   1.247  1.00  0.00     0.018 A 
BRANCH  25  28
HETATM   28  C   UNL     1      42.124 -12.122  -2.119  1.00  0.00    -0.023 A 
HETATM   29  C   UNL     1      42.605 -10.853  -1.775  1.00  0.00     0.031 A 
HETATM   30  C   UNL     1      42.872  -9.939  -2.783  1.00  0.00     0.117 A 
HETATM   31  N   UNL     1      42.692 -10.195  -4.095  1.00  0.00    -0.273 NA
HETATM   32  C   UNL     1      42.230 -11.420  -4.414  1.00  0.00     0.117 A 
HETATM   33  C   UNL     1      41.938 -12.400  -3.479  1.00  0.00     0.031 A 
ENDBRANCH  25  28
ENDBRANCH  19  22
ENDBRANCH   1  18
TORSDOF 8
ENDMDL
MODEL 5
REMARK VINA RESULT:      -7.8      7.328     11.003
REMARK  8 active torsions:
REMARK  status: ('A' for Active; 'I' for Inactive)
REMARK    1  A    between atoms: O_2  and  C_3 
REMARK    2  A    between atoms: C_7  and  C_9 
REMARK    3  A    between atoms: C_9  and  C_10 
REMARK    4  A    between atoms: C_9  and  N_18 
REMARK    5  A    between atoms: C_10  and  C_11 
REMARK    6  A    between atoms: C_11  and  N_12 
REMARK       I    between atoms: N_18  and  C_19 
REMARK    7  A    between atoms: C_19  and  C_21 
REMARK    8  A    between atoms: C_24  and  C_27 
ROOT
HETATM    1  C   UNL     1      41.156 -12.952   0.979  1.00  0.00     0.119 C 
ENDROOT
BRANCH   1   2
HETATM    2  C   UNL     1      41.605 -12.627  -0.438  1.00  0.00    -0.033 A 
HETATM    3  C   UNL     1      41.973 -13.602  -1.377  1.00  0.00     0.009 A 
HETATM    4  C   UNL     1      42.390 -13.231  -2.656  1.00  0.00     0.003 A 
HETATM    5  C   UNL     1      42.468 -11.884  -3.004  1.00  0.00     0.037 A 
HETATM    6  C   UNL     1      42.141 -10.894  -2.080  1.00  0.00     0.068 A 
HETATM    7  C   UNL     1      41.704 -11.267  -0.808  1.00  0.00     0.046 A 
BRANCH   6   8
HETATM    8  O   UNL     1      42.282  -9.614  -2.537  1.00  0.00    -0.356 OA
HETATM    9  C   UNL     1      43.192  -8.774  -1.837  1.00  0.00     0.210 C 
ENDBRANCH   6   8
ENDBRANCH   1   2
BRANCH   1  10
HETATM   10  C   UNL     1      39.630 -12.855   1.215  1.00  0.00     0.057 C 
BRANCH  10  11
HETATM   11  C   UNL     1      38.876 -14.017   0.570  1.00  0.00     0.237 C 
BRANCH  11  12
HETATM   12  N   UNL     1      37.975 -13.527  -0.543  1.00  0.00    -0.071 N 
HETATM   13  H   UNL     1      37.012 -13.809  -0.314  1.00  0.00     0.279 HD
HETATM   14  C   UNL     1      38.293 -14.058  -1.929  1.00  0.00     0.235 C 
HETATM   15  C   UNL     1      38.565 -12.825  -2.771  1.00  0.00     0.029 C 
HETATM   16  C   UNL     1      37.740 -11.742  -2.109  1.00  0.00     0.029 C 
HETATM   17  C   UNL     1      37.969 -12.009  -0.637  1.00  0.00     0.235 C 
ENDBRANCH  11  12
ENDBRANCH  10  11
ENDBRANCH   1  10
BRANCH   1  18
HETATM   18  N   UNL     1      41.662 -14.275   1.319  1.00  0.00    -0.348 N 
HETATM   19  C   UNL     1      42.710 -14.458   2.194  1.00  0.00     0.252 C 
HETATM   20  O   UNL     1      43.195 -13.523   2.826  1.00  0.00    -0.268 OA
HETATM   21  H   UNL     1      41.240 -15.067   0.851  1.00  0.00     0.163 HD
BRANCH  19  22
HETATM   22  C   UNL     1      43.171 -15.855   2.427  1.00  0.00     0.032 A 
HETATM   23  C   UNL     1      43.538 -16.715   1.388  1.00  0.00     0.018 A 
HETATM   24  C   UNL     1      43.890 -18.042   1.669  1.00  0.00     0.013 A 
HETATM   25  C   UNL     1      43.890 -18.533   2.985  1.00  0.00    -0.026 A 
HETATM   26  C   UNL     1      43.563 -17.643   4.020  1.00  0.00     0.013 A 
HETATM   27  C   UNL     1      43.210 -16.319   3.747  1.00  0.00     0.018 A 
BRANCH  25  28
HETATM   28  C   UNL     1      44.206 -19.941   3.270  1.00  0.00    -0.023 A 
HETATM   29  C   UNL     1      44.116 -20.926   2.279  1.00  0.00     0.031 A 
HETATM   30  C   UNL     1      44.413 -22.239   2.607  1.00  0.00     0.117 A 
HETATM   31  N   UNL     1      44.786 -22.639   3.840  1.00  0.00    -0.273 NA
HETATM   32  C   UNL     1      44.871 -21.682   4.786  1.00  0.00     0.117 A 
HETATM   33  C   UNL     1      44.597 -20.345   4.553  1.00  0.00     0.031 A 
ENDBRANCH  25  28
ENDBRANCH  19  22
ENDBRANCH   1  18
TORSDOF 8
ENDMDL
MODEL 6
REMARK VINA RESULT:      -7.8      5.678     10.545
REMARK  8 active torsions:
REMARK  status: ('A' for Active; 'I' for Inactive)
REMARK    1  A    between atoms: O_2  and  C_3 
REMARK    2  A    between atoms: C_7  and  C_9 
REMARK    3  A    between atoms: C_9  and  C_10 
REMARK    4  A    between atoms: C_9  and  N_18 
REMARK    5  A    between atoms: C_10  and  C_11 
REMARK    6  A    between atoms: C_11  and  N_12 
REMARK       I    between atoms: N_18  and  C_19 
REMARK    7  A    between atoms: C_19  and  C_21 
REMARK    8  A    between atoms: C_24  and  C_27 
ROOT
HETATM    1  C   UNL     1      41.076 -13.513   0.730  1.00  0.00     0.119 C 
ENDROOT
BRANCH   1   2
HETATM    2  C   UNL     1      40.766 -13.650  -0.753  1.00  0.00    -0.033 A 
HETATM    3  C   UNL     1      41.724 -13.477  -1.763  1.00  0.00     0.009 A 
HETATM    4  C   UNL     1      41.367 -13.602  -3.106  1.00  0.00     0.003 A 
HETATM    5  C   UNL     1      40.046 -13.877  -3.457  1.00  0.00     0.037 A 
HETATM    6  C   UNL     1      39.068 -14.020  -2.474  1.00  0.00     0.068 A 
HETATM    7  C   UNL     1      39.432 -13.915  -1.131  1.00  0.00     0.046 A 
BRANCH   6   8
HETATM    8  O   UNL     1      37.810 -14.263  -2.949  1.00  0.00    -0.356 OA
HETATM    9  C   UNL     1      37.186 -13.221  -3.690  1.00  0.00     0.210 C 
ENDBRANCH   6   8
ENDBRANCH   1   2
BRANCH   1  10
HETATM   10  C   UNL     1      39.887 -13.047   1.603  1.00  0.00     0.057 C 
BRANCH  10  11
HETATM   11  C   UNL     1      40.309 -12.003   2.636  1.00  0.00     0.237 C 
BRANCH  11  12
HETATM   12  N   UNL     1      40.059 -12.502   4.043  1.00  0.00    -0.071 N 
HETATM   13  H   UNL     1      39.230 -12.012   4.406  1.00  0.00     0.279 HD
HETATM   14  C   UNL     1      41.191 -12.283   5.030  1.00  0.00     0.235 C 
HETATM   15  C   UNL     1      41.557 -13.670   5.524  1.00  0.00     0.029 C 
HETATM   16  C   UNL     1      40.268 -14.454   5.399  1.00  0.00     0.029 C 
HETATM   17  C   UNL     1      39.729 -13.986   4.065  1.00  0.00     0.235 C 
ENDBRANCH  11  12
ENDBRANCH  10  11
ENDBRANCH   1  10
BRANCH   1  18
HETATM   18  N   UNL     1      41.610 -14.786   1.199  1.00  0.00    -0.348 N 
HETATM   19  C   UNL     1      42.716 -14.862   2.016  1.00  0.00     0.252 C 
HETATM   20  O   UNL     1      43.238 -13.857   2.492  1.00  0.00    -0.268 OA
HETATM   21  H   UNL     1      41.162 -15.628   0.862  1.00  0.00     0.163 HD
BRANCH  19  22
HETATM   22  C   UNL     1      43.198 -16.221   2.390  1.00  0.00     0.032 A 
HETATM   23  C   UNL     1      43.643 -17.153   1.449  1.00  0.00     0.018 A 
HETATM   24  C   UNL     1      44.011 -18.440   1.858  1.00  0.00     0.013 A 
HETATM   25  C   UNL     1      43.952 -18.821   3.209  1.00  0.00    -0.026 A 
HETATM   26  C   UNL     1      43.547 -17.858   4.147  1.00  0.00     0.013 A 
HETATM   27  C   UNL     1      43.177 -16.572   3.745  1.00  0.00     0.018 A 
BRANCH  25  28
HETATM   28  C   UNL     1      44.287 -20.190   3.629  1.00  0.00    -0.023 A 
HETATM   29  C   UNL     1      44.349 -21.242   2.707  1.00  0.00     0.031 A 
HETATM   30  C   UNL     1      44.656 -22.516   3.159  1.00  0.00     0.117 A 
HETATM   31  N   UNL     1      44.901 -22.814   4.452  1.00  0.00    -0.273 NA
HETATM   32  C   UNL     1      44.841 -21.793   5.330  1.00  0.00     0.117 A 
HETATM   33  C   UNL     1      44.544 -20.488   4.973  1.00  0.00     0.031 A 
ENDBRANCH  25  28
ENDBRANCH  19  22
ENDBRANCH   1  18
TORSDOF 8
ENDMDL
MODEL 7
REMARK VINA RESULT:      -7.8      5.056      9.031
REMARK  8 active torsions:
REMARK  status: ('A' for Active; 'I' for Inactive)
REMARK    1  A    between atoms: O_2  and  C_3 
REMARK    2  A    between atoms: C_7  and  C_9 
REMARK    3  A    between atoms: C_9  and  C_10 
REMARK    4  A    between atoms: C_9  and  N_18 
REMARK    5  A    between atoms: C_10  and  C_11 
REMARK    6  A    between atoms: C_11  and  N_12 
REMARK       I    between atoms: N_18  and  C_19 
REMARK    7  A    between atoms: C_19  and  C_21 
REMARK    8  A    between atoms: C_24  and  C_27 
ROOT
HETATM    1  C   UNL     1      41.814 -17.620   3.854  1.00  0.00     0.119 C 
ENDROOT
BRANCH   1   2
HETATM    2  C   UNL     1      42.781 -18.696   3.385  1.00  0.00    -0.033 A 
HETATM    3  C   UNL     1      42.818 -19.183   2.070  1.00  0.00     0.009 A 
HETATM    4  C   UNL     1      43.722 -20.184   1.711  1.00  0.00     0.003 A 
HETATM    5  C   UNL     1      44.582 -20.726   2.665  1.00  0.00     0.037 A 
HETATM    6  C   UNL     1      44.543 -20.284   3.986  1.00  0.00     0.068 A 
HETATM    7  C   UNL     1      43.652 -19.268   4.338  1.00  0.00     0.046 A 
BRANCH   6   8
HETATM    8  O   UNL     1      45.418 -20.911   4.826  1.00  0.00    -0.356 OA
HETATM    9  C   UNL     1      45.129 -22.261   5.171  1.00  0.00     0.210 C 
ENDBRANCH   6   8
ENDBRANCH   1   2
BRANCH   1  10
HETATM   10  C   UNL     1      41.854 -17.327   5.373  1.00  0.00     0.057 C 
BRANCH  10  11
HETATM   11  C   UNL     1      41.185 -15.998   5.718  1.00  0.00     0.237 C 
BRANCH  11  12
HETATM   12  N   UNL     1      42.150 -15.073   6.429  1.00  0.00    -0.071 N 
HETATM   13  H   UNL     1      41.690 -14.739   7.287  1.00  0.00     0.279 HD
HETATM   14  C   UNL     1      42.595 -13.855   5.641  1.00  0.00     0.235 C 
HETATM   15  C   UNL     1      44.106 -13.968   5.560  1.00  0.00     0.029 C 
HETATM   16  C   UNL     1      44.482 -14.739   6.808  1.00  0.00     0.029 C 
HETATM   17  C   UNL     1      43.408 -15.804   6.871  1.00  0.00     0.235 C 
ENDBRANCH  11  12
ENDBRANCH  10  11
ENDBRANCH   1  10
BRANCH   1  18
HETATM   18  N   UNL     1      42.068 -16.414   3.076  1.00  0.00    -0.348 N 
HETATM   19  C   UNL     1      41.175 -15.944   2.137  1.00  0.00     0.252 C 
HETATM   20  O   UNL     1      40.064 -16.448   1.994  1.00  0.00    -0.268 OA
HETATM   21  H   UNL     1      42.956 -15.950   3.216  1.00  0.00     0.163 HD
BRANCH  19  22
HETATM   22  C   UNL     1      41.567 -14.730   1.369  1.00  0.00     0.032 A 
HETATM   23  C   UNL     1      41.876 -13.513   1.982  1.00  0.00     0.018 A 
HETATM   24  C   UNL     1      42.162 -12.387   1.199  1.00  0.00     0.013 A 
HETATM   25  C   UNL     1      42.155 -12.454  -0.204  1.00  0.00    -0.026 A 
HETATM   26  C   UNL     1      41.888 -13.696  -0.803  1.00  0.00     0.013 A 
HETATM   27  C   UNL     1      41.600 -14.822  -0.027  1.00  0.00     0.018 A 
BRANCH  25  28
HETATM   28  C   UNL     1      42.402 -11.258  -1.023  1.00  0.00    -0.023 A 
HETATM   29  C   UNL     1      42.936 -10.089  -0.468  1.00  0.00     0.031 A 
HETATM   30  C   UNL     1      43.136  -8.987  -1.284  1.00  0.00     0.117 A 
HETATM   31  N   UNL     1      42.842  -8.965  -2.600  1.00  0.00    -0.273 NA
HETATM   32  C   UNL     1      42.330 -10.096  -3.125  1.00  0.00     0.117 A 
HETATM   33  C   UNL     1      42.098 -11.247  -2.390  1.00  0.00     0.031 A 
ENDBRANCH  25  28
ENDBRANCH  19  22
ENDBRANCH   1  18
TORSDOF 8
ENDMDL
MODEL 8
REMARK VINA RESULT:      -7.6      6.027     10.647
REMARK  8 active torsions:
REMARK  status: ('A' for Active; 'I' for Inactive)
REMARK    1  A    between atoms: O_2  and  C_3 
REMARK    2  A    between atoms: C_7  and  C_9 
REMARK    3  A    between atoms: C_9  and  C_10 
REMARK    4  A    between atoms: C_9  and  N_18 
REMARK    5  A    between atoms: C_10  and  C_11 
REMARK    6  A    between atoms: C_11  and  N_12 
REMARK       I    between atoms: N_18  and  C_19 
REMARK    7  A    between atoms: C_19  and  C_21 
REMARK    8  A    between atoms: C_24  and  C_27 
ROOT
HETATM    1  C   UNL     1      41.125 -13.094   0.705  1.00  0.00     0.119 C 
ENDROOT
BRANCH   1   2
HETATM    2  C   UNL     1      41.614 -12.786  -0.702  1.00  0.00    -0.033 A 
HETATM    3  C   UNL     1      41.562 -13.706  -1.759  1.00  0.00     0.009 A 
HETATM    4  C   UNL     1      42.044 -13.361  -3.022  1.00  0.00     0.003 A 
HETATM    5  C   UNL     1      42.604 -12.104  -3.239  1.00  0.00     0.037 A 
HETATM    6  C   UNL     1      42.699 -11.182  -2.198  1.00  0.00     0.068 A 
HETATM    7  C   UNL     1      42.198 -11.522  -0.940  1.00  0.00     0.046 A 
BRANCH   6   8
HETATM    8  O   UNL     1      43.289  -9.997  -2.534  1.00  0.00    -0.356 OA
HETATM    9  C   UNL     1      43.841  -9.226  -1.473  1.00  0.00     0.210 C 
ENDBRANCH   6   8
ENDBRANCH   1   2
BRANCH   1  10
HETATM   10  C   UNL     1      39.590 -13.024   0.889  1.00  0.00     0.057 C 
BRANCH  10  11
HETATM   11  C   UNL     1      39.159 -13.479   2.283  1.00  0.00     0.237 C 
BRANCH  11  12
HETATM   12  N   UNL     1      39.866 -12.680   3.356  1.00  0.00    -0.071 N 
HETATM   13  H   UNL     1      40.822 -12.488   3.025  1.00  0.00     0.279 HD
HETATM   14  C   UNL     1      39.977 -13.353   4.712  1.00  0.00     0.235 C 
HETATM   15  C   UNL     1      39.281 -12.411   5.677  1.00  0.00     0.029 C 
HETATM   16  C   UNL     1      39.458 -11.046   5.046  1.00  0.00     0.029 C 
HETATM   17  C   UNL     1      39.207 -11.329   3.581  1.00  0.00     0.235 C 
ENDBRANCH  11  12
ENDBRANCH  10  11
ENDBRANCH   1  10
BRANCH   1  18
HETATM   18  N   UNL     1      41.644 -14.401   1.088  1.00  0.00    -0.348 N 
HETATM   19  C   UNL     1      42.596 -14.553   2.072  1.00  0.00     0.252 C 
HETATM   20  O   UNL     1      42.968 -13.608   2.763  1.00  0.00    -0.268 OA
HETATM   21  H   UNL     1      41.311 -15.202   0.567  1.00  0.00     0.163 HD
BRANCH  19  22
HETATM   22  C   UNL     1      43.086 -15.933   2.341  1.00  0.00     0.032 A 
HETATM   23  C   UNL     1      43.439 -16.824   1.324  1.00  0.00     0.018 A 
HETATM   24  C   UNL     1      43.820 -18.134   1.642  1.00  0.00     0.013 A 
HETATM   25  C   UNL     1      43.865 -18.578   2.974  1.00  0.00    -0.026 A 
HETATM   26  C   UNL     1      43.552 -17.656   3.986  1.00  0.00     0.013 A 
HETATM   27  C   UNL     1      43.170 -16.348   3.675  1.00  0.00     0.018 A 
BRANCH  25  28
HETATM   28  C   UNL     1      44.213 -19.969   3.301  1.00  0.00    -0.023 A 
HETATM   29  C   UNL     1      44.718 -20.321   4.557  1.00  0.00     0.031 A 
HETATM   30  C   UNL     1      45.042 -21.645   4.806  1.00  0.00     0.117 A 
HETATM   31  N   UNL     1      44.900 -22.635   3.900  1.00  0.00    -0.273 NA
HETATM   32  C   UNL     1      44.411 -22.285   2.694  1.00  0.00     0.117 A 
HETATM   33  C   UNL     1      44.058 -20.990   2.354  1.00  0.00     0.031 A 
ENDBRANCH  25  28
ENDBRANCH  19  22
ENDBRANCH   1  18
TORSDOF 8
ENDMDL
MODEL 9
REMARK VINA RESULT:      -7.6      2.544      4.536
REMARK  8 active torsions:
REMARK  status: ('A' for Active; 'I' for Inactive)
REMARK    1  A    between atoms: O_2  and  C_3 
REMARK    2  A    between atoms: C_7  and  C_9 
REMARK    3  A    between atoms: C_9  and  C_10 
REMARK    4  A    between atoms: C_9  and  N_18 
REMARK    5  A    between atoms: C_10  and  C_11 
REMARK    6  A    between atoms: C_11  and  N_12 
REMARK       I    between atoms: N_18  and  C_19 
REMARK    7  A    between atoms: C_19  and  C_21 
REMARK    8  A    between atoms: C_24  and  C_27 
ROOT
HETATM    1  C   UNL     1      42.618 -16.838   2.870  1.00  0.00     0.119 C 
ENDROOT
BRANCH   1   2
HETATM    2  C   UNL     1      43.340 -18.138   3.191  1.00  0.00    -0.033 A 
HETATM    3  C   UNL     1      43.726 -19.070   2.217  1.00  0.00     0.009 A 
HETATM    4  C   UNL     1      44.372 -20.251   2.584  1.00  0.00     0.003 A 
HETATM    5  C   UNL     1      44.618 -20.527   3.928  1.00  0.00     0.037 A 
HETATM    6  C   UNL     1      44.215 -19.633   4.918  1.00  0.00     0.068 A 
HETATM    7  C   UNL     1      43.588 -18.442   4.548  1.00  0.00     0.046 A 
BRANCH   6   8
HETATM    8  O   UNL     1      44.494 -20.030   6.196  1.00  0.00    -0.356 OA
HETATM    9  C   UNL     1      43.777 -21.153   6.694  1.00  0.00     0.210 C 
ENDBRANCH   6   8
ENDBRANCH   1   2
BRANCH   1  10
HETATM   10  C   UNL     1      41.159 -17.007   2.384  1.00  0.00     0.057 C 
BRANCH  10  11
HETATM   11  C   UNL     1      41.000 -16.641   0.909  1.00  0.00     0.237 C 
BRANCH  11  12
HETATM   12  N   UNL     1      40.209 -15.360   0.752  1.00  0.00    -0.071 N 
HETATM   13  H   UNL     1      39.693 -15.418  -0.137  1.00  0.00     0.279 HD
HETATM   14  C   UNL     1      41.026 -14.081   0.726  1.00  0.00     0.235 C 
HETATM   15  C   UNL     1      40.497 -13.253   1.883  1.00  0.00     0.029 C 
HETATM   16  C   UNL     1      39.059 -13.704   2.027  1.00  0.00     0.029 C 
HETATM   17  C   UNL     1      39.166 -15.202   1.847  1.00  0.00     0.235 C 
ENDBRANCH  11  12
ENDBRANCH  10  11
ENDBRANCH   1  10
BRANCH   1  18
HETATM   18  N   UNL     1      42.689 -15.980   4.045  1.00  0.00    -0.348 N 
HETATM   19  C   UNL     1      43.310 -14.751   4.021  1.00  0.00     0.252 C 
HETATM   20  O   UNL     1      43.730 -14.260   2.977  1.00  0.00    -0.268 OA
HETATM   21  H   UNL     1      42.300 -16.342   4.907  1.00  0.00     0.163 HD
BRANCH  19  22
HETATM   22  C   UNL     1      43.361 -13.985   5.297  1.00  0.00     0.032 A 
HETATM   23  C   UNL     1      42.463 -12.958   5.602  1.00  0.00     0.018 A 
HETATM   24  C   UNL     1      42.612 -12.226   6.786  1.00  0.00     0.013 A 
HETATM   25  C   UNL     1      43.650 -12.507   7.692  1.00  0.00    -0.026 A 
HETATM   26  C   UNL     1      44.515 -13.571   7.392  1.00  0.00     0.013 A 
HETATM   27  C   UNL     1      44.371 -14.305   6.211  1.00  0.00     0.018 A 
BRANCH  25  28
HETATM   28  C   UNL     1      43.836 -11.700   8.907  1.00  0.00    -0.023 A 
HETATM   29  C   UNL     1      45.023 -11.758   9.648  1.00  0.00     0.031 A 
HETATM   30  C   UNL     1      45.140 -10.986  10.793  1.00  0.00     0.117 A 
HETATM   31  N   UNL     1      44.168 -10.170  11.250  1.00  0.00    -0.273 NA
HETATM   32  C   UNL     1      43.030 -10.121  10.528  1.00  0.00     0.117 A 
HETATM   33  C   UNL     1      42.822 -10.852   9.371  1.00  0.00     0.031 A 
ENDBRANCH  25  28
ENDBRANCH  19  22
ENDBRANCH   1  18
TORSDOF 8
ENDMDL
MODEL 10
REMARK VINA RESULT:      -7.5      3.386      6.824
REMARK  8 active torsions:
REMARK  status: ('A' for Active; 'I' for Inactive)
REMARK    1  A    between atoms: O_2  and  C_3 
REMARK    2  A    between atoms: C_7  and  C_9 
REMARK    3  A    between atoms: C_9  and  C_10 
REMARK    4  A    between atoms: C_9  and  N_18 
REMARK    5  A    between atoms: C_10  and  C_11 
REMARK    6  A    between atoms: C_11  and  N_12 
REMARK       I    between atoms: N_18  and  C_19 
REMARK    7  A    between atoms: C_19  and  C_21 
REMARK    8  A    between atoms: C_24  and  C_27 
ROOT
HETATM    1  C   UNL     1      42.214 -17.473   2.191  1.00  0.00     0.119 C 
ENDROOT
BRANCH   1   2
HETATM    2  C   UNL     1      41.445 -16.576   1.232  1.00  0.00    -0.033 A 
HETATM    3  C   UNL     1      41.713 -16.504  -0.143  1.00  0.00     0.009 A 
HETATM    4  C   UNL     1      40.978 -15.647  -0.962  1.00  0.00     0.003 A 
HETATM    5  C   UNL     1      39.984 -14.836  -0.417  1.00  0.00     0.037 A 
HETATM    6  C   UNL     1      39.721 -14.863   0.952  1.00  0.00     0.068 A 
HETATM    7  C   UNL     1      40.444 -15.736   1.767  1.00  0.00     0.046 A 
BRANCH   6   8
HETATM    8  O   UNL     1      38.742 -14.005   1.364  1.00  0.00    -0.356 OA
HETATM    9  C   UNL     1      37.481 -14.102   0.712  1.00  0.00     0.210 C 
ENDBRANCH   6   8
ENDBRANCH   1   2
BRANCH   1  10
HETATM   10  C   UNL     1      43.231 -18.424   1.517  1.00  0.00     0.057 C 
BRANCH  10  11
HETATM   11  C   UNL     1      43.021 -19.878   1.938  1.00  0.00     0.237 C 
BRANCH  11  12
HETATM   12  N   UNL     1      44.279 -20.450   2.556  1.00  0.00    -0.071 N 
HETATM   13  H   UNL     1      45.085 -20.013   2.087  1.00  0.00     0.279 HD
HETATM   14  C   UNL     1      44.442 -21.955   2.445  1.00  0.00     0.235 C 
HETATM   15  C   UNL     1      44.545 -22.447   3.876  1.00  0.00     0.029 C 
HETATM   16  C   UNL     1      45.139 -21.272   4.624  1.00  0.00     0.029 C 
HETATM   17  C   UNL     1      44.394 -20.096   4.030  1.00  0.00     0.235 C 
ENDBRANCH  11  12
ENDBRANCH  10  11
ENDBRANCH   1  10
BRANCH   1  18
HETATM   18  N   UNL     1      42.860 -16.624   3.183  1.00  0.00    -0.348 N 
HETATM   19  C   UNL     1      42.644 -16.778   4.535  1.00  0.00     0.252 C 
HETATM   20  O   UNL     1      41.989 -17.717   4.981  1.00  0.00    -0.268 OA
HETATM   21  H   UNL     1      43.449 -15.875   2.840  1.00  0.00     0.163 HD
BRANCH  19  22
HETATM   22  C   UNL     1      43.322 -15.819   5.450  1.00  0.00     0.032 A 
HETATM   23  C   UNL     1      43.516 -16.077   6.810  1.00  0.00     0.018 A 
HETATM   24  C   UNL     1      44.093 -15.102   7.633  1.00  0.00     0.013 A 
HETATM   25  C   UNL     1      44.496 -13.858   7.117  1.00  0.00    -0.026 A 
HETATM   26  C   UNL     1      44.336 -13.633   5.741  1.00  0.00     0.013 A 
HETATM   27  C   UNL     1      43.760 -14.602   4.915  1.00  0.00     0.018 A 
BRANCH  25  28
HETATM   28  C   UNL     1      45.051 -12.816   7.994  1.00  0.00    -0.023 A 
HETATM   29  C   UNL     1      44.277 -12.213   8.993  1.00  0.00     0.031 A 
HETATM   30  C   UNL     1      44.847 -11.226   9.782  1.00  0.00     0.117 A 
HETATM   31  N   UNL     1      46.120 -10.800   9.646  1.00  0.00    -0.273 NA
HETATM   32  C   UNL     1      46.856 -11.388   8.683  1.00  0.00     0.117 A 
HETATM   33  C   UNL     1      46.374 -12.383   7.848  1.00  0.00     0.031 A 
ENDBRANCH  25  28
ENDBRANCH  19  22
ENDBRANCH   1  18
TORSDOF 8
ENDMDL
