MODEL 1
REMARK VINA RESULT:      -7.3      0.000      0.000
REMARK  3 active torsions:
REMARK  status: ('A' for Active; 'I' for Inactive)
REMARK    1  A    between atoms: C_8  and  N_9 
REMARK       I    between atoms: N_9  and  C_10 
REMARK       I    between atoms: C_10  and  N_11 
REMARK    2  A    between atoms: N_11  and  C_12 
REMARK    3  A    between atoms: C_13  and  O_14 
ROOT
HETATM    1  N   UNL     1      41.751 -15.347  -0.050  1.00  0.00    -0.305 N 
HETATM    2  C   UNL     1      41.767 -16.462   0.767  1.00  0.00     0.325 C 
HETATM    3  N   UNL     1      43.069 -16.865   0.996  1.00  0.00    -0.306 N 
HETATM    4  O   UNL     1      40.775 -17.010   1.231  1.00  0.00    -0.247 OA
HETATM    5  H   UNL     1      42.537 -14.725   0.057  1.00  0.00     0.171 HD
HETATM    6  H   UNL     1      43.737 -16.657   0.262  1.00  0.00     0.171 HD
ENDROOT
BRANCH   1   7
HETATM    7  C   UNL     1      40.621 -14.819  -0.651  1.00  0.00     0.086 A 
HETATM    8  C   UNL     1      40.332 -14.989  -1.991  1.00  0.00     0.052 A 
HETATM    9  C   UNL     1      41.050 -15.659  -3.098  1.00  0.00     0.072 C 
HETATM   10  N   UNL     1      39.145 -14.344  -2.196  1.00  0.00    -0.280 N 
HETATM   11  H   UNL     1      38.629 -14.241  -3.063  1.00  0.00     0.189 HD
HETATM   12  N   UNL     1      38.624 -13.800  -1.092  1.00  0.00    -0.177 NA
HETATM   13  C   UNL     1      39.517 -14.083  -0.132  1.00  0.00     0.079 A 
HETATM   14  C   UNL     1      39.215 -13.677   1.265  1.00  0.00     0.075 C 
ENDBRANCH   1   7
BRANCH   3  15
HETATM   15  C   UNL     1      43.504 -17.842   1.918  1.00  0.00     0.071 A 
HETATM   16  C   UNL     1      43.713 -17.427   3.248  1.00  0.00     0.095 A 
HETATM   17  C   UNL     1      44.088 -18.356   4.222  1.00  0.00     0.040 A 
HETATM   18  C   UNL     1      44.283 -19.693   3.870  1.00  0.00     0.022 A 
HETATM   19  C   UNL     1      44.092 -20.096   2.549  1.00  0.00     0.013 A 
HETATM   20 BR   UNL     1      44.343 -21.913   2.086  1.00  0.00    -0.051 Br
HETATM   21  C   UNL     1      43.703 -19.181   1.572  1.00  0.00     0.051 A 
BRANCH  16  22
HETATM   22  O   UNL     1      43.497 -16.095   3.515  1.00  0.00    -0.354 OA
HETATM   23  C   UNL     1      42.510 -15.852   4.516  1.00  0.00     0.210 C 
ENDBRANCH  16  22
ENDBRANCH   3  15
TORSDOF 3
ENDMDL
MODEL 2
REMARK VINA RESULT:      -7.2      0.212      1.827
REMARK  3 active torsions:
REMARK  status: ('A' for Active; 'I' for Inactive)
REMARK    1  A    between atoms: C_8  and  N_9 
REMARK       I    between atoms: N_9  and  C_10 
REMARK       I    between atoms: C_10  and  N_11 
REMARK    2  A    between atoms: N_11  and  C_12 
REMARK    3  A    between atoms: C_13  and  O_14 
ROOT
HETATM    1  N   UNL     1      41.764 -15.359   0.134  1.00  0.00    -0.305 N 
HETATM    2  C   UNL     1      41.819 -16.564   0.808  1.00  0.00     0.325 C 
HETATM    3  N   UNL     1      43.108 -16.808   1.243  1.00  0.00    -0.306 N 
HETATM    4  O   UNL     1      40.865 -17.306   1.004  1.00  0.00    -0.247 OA
HETATM    5  H   UNL     1      42.406 -14.653   0.462  1.00  0.00     0.171 HD
HETATM    6  H   UNL     1      43.852 -16.407   0.683  1.00  0.00     0.171 HD
ENDROOT
BRANCH   1   7
HETATM    7  C   UNL     1      40.688 -14.916  -0.616  1.00  0.00     0.086 A 
HETATM    8  C   UNL     1      39.609 -14.252  -0.065  1.00  0.00     0.052 A 
HETATM    9  C   UNL     1      39.260 -13.878   1.324  1.00  0.00     0.072 C 
HETATM   10  N   UNL     1      38.777 -13.970  -1.112  1.00  0.00    -0.280 N 
HETATM   11  H   UNL     1      37.877 -13.504  -1.088  1.00  0.00     0.189 HD
HETATM   12  N   UNL     1      39.245 -14.366  -2.300  1.00  0.00    -0.177 NA
HETATM   13  C   UNL     1      40.419 -14.948  -2.015  1.00  0.00     0.079 A 
HETATM   14  C   UNL     1      41.255 -15.452  -3.134  1.00  0.00     0.075 C 
ENDBRANCH   1   7
BRANCH   3  15
HETATM   15  C   UNL     1      43.527 -17.834   2.119  1.00  0.00     0.071 A 
HETATM   16  C   UNL     1      43.704 -17.494   3.474  1.00  0.00     0.095 A 
HETATM   17  C   UNL     1      44.062 -18.474   4.403  1.00  0.00     0.040 A 
HETATM   18  C   UNL     1      44.271 -19.789   3.980  1.00  0.00     0.022 A 
HETATM   19  C   UNL     1      44.112 -20.118   2.635  1.00  0.00     0.013 A 
HETATM   20 BR   UNL     1      44.382 -21.905   2.076  1.00  0.00    -0.051 Br
HETATM   21  C   UNL     1      43.740 -19.150   1.702  1.00  0.00     0.051 A 
BRANCH  16  22
HETATM   22  O   UNL     1      43.476 -16.179   3.811  1.00  0.00    -0.354 OA
HETATM   23  C   UNL     1      42.393 -15.988   4.719  1.00  0.00     0.210 C 
ENDBRANCH  16  22
ENDBRANCH   3  15
TORSDOF 3
ENDMDL
MODEL 3
REMARK VINA RESULT:      -6.7      3.168      6.931
REMARK  3 active torsions:
REMARK  status: ('A' for Active; 'I' for Inactive)
REMARK    1  A    between atoms: C_8  and  N_9 
REMARK       I    between atoms: N_9  and  C_10 
REMARK       I    between atoms: C_10  and  N_11 
REMARK    2  A    between atoms: N_11  and  C_12 
REMARK    3  A    between atoms: C_13  and  O_14 
ROOT
HETATM    1  N   UNL     1      42.826 -18.323   3.157  1.00  0.00    -0.305 N 
HETATM    2  C   UNL     1      43.001 -17.441   2.107  1.00  0.00     0.325 C 
HETATM    3  N   UNL     1      41.810 -16.803   1.817  1.00  0.00    -0.306 N 
HETATM    4  O   UNL     1      44.059 -17.242   1.523  1.00  0.00    -0.247 OA
HETATM    5  H   UNL     1      42.138 -18.045   3.841  1.00  0.00     0.171 HD
HETATM    6  H   UNL     1      40.964 -17.323   2.021  1.00  0.00     0.171 HD
ENDROOT
BRANCH   1   7
HETATM    7  C   UNL     1      43.747 -19.275   3.557  1.00  0.00     0.086 A 
HETATM    8  C   UNL     1      44.460 -19.184   4.737  1.00  0.00     0.052 A 
HETATM    9  C   UNL     1      44.510 -18.161   5.806  1.00  0.00     0.072 C 
HETATM   10  N   UNL     1      45.242 -20.304   4.782  1.00  0.00    -0.280 N 
HETATM   11  H   UNL     1      45.912 -20.572   5.494  1.00  0.00     0.189 HD
HETATM   12  N   UNL     1      45.069 -21.129   3.745  1.00  0.00    -0.177 NA
HETATM   13  C   UNL     1      44.153 -20.514   2.983  1.00  0.00     0.079 A 
HETATM   14  C   UNL     1      43.667 -21.200   1.758  1.00  0.00     0.075 C 
ENDBRANCH   1   7
BRANCH   3  15
HETATM   15  C   UNL     1      41.624 -15.709   0.943  1.00  0.00     0.071 A 
HETATM   16  C   UNL     1      41.729 -14.417   1.494  1.00  0.00     0.095 A 
HETATM   17  C   UNL     1      41.613 -13.293   0.673  1.00  0.00     0.040 A 
HETATM   18  C   UNL     1      41.367 -13.451  -0.693  1.00  0.00     0.022 A 
HETATM   19  C   UNL     1      41.247 -14.732  -1.231  1.00  0.00     0.013 A 
HETATM   20 BR   UNL     1      40.929 -14.935  -3.085  1.00  0.00    -0.051 Br
HETATM   21  C   UNL     1      41.376 -15.861  -0.423  1.00  0.00     0.051 A 
BRANCH  16  22
HETATM   22  O   UNL     1      41.975 -14.345   2.846  1.00  0.00    -0.354 OA
HETATM   23  C   UNL     1      43.239 -13.775   3.180  1.00  0.00     0.210 C 
ENDBRANCH  16  22
ENDBRANCH   3  15
TORSDOF 3
ENDMDL
MODEL 4
REMARK VINA RESULT:      -6.7      2.428      3.619
REMARK  3 active torsions:
REMARK  status: ('A' for Active; 'I' for Inactive)
REMARK    1  A    between atoms: C_8  and  N_9 
REMARK       I    between atoms: N_9  and  C_10 
REMARK       I    between atoms: C_10  and  N_11 
REMARK    2  A    between atoms: N_11  and  C_12 
REMARK    3  A    between atoms: C_13  and  O_14 
ROOT
HETATM    1  N   UNL     1      41.865 -15.302   3.033  1.00  0.00    -0.305 N 
HETATM    2  C   UNL     1      42.938 -16.171   2.970  1.00  0.00     0.325 C 
HETATM    3  N   UNL     1      42.722 -17.253   3.803  1.00  0.00    -0.306 N 
HETATM    4  O   UNL     1      43.932 -16.015   2.273  1.00  0.00    -0.247 OA
HETATM    5  H   UNL     1      40.969 -15.736   3.195  1.00  0.00     0.171 HD
HETATM    6  H   UNL     1      42.143 -17.082   4.617  1.00  0.00     0.171 HD
ENDROOT
BRANCH   1   7
HETATM    7  C   UNL     1      41.846 -14.024   2.501  1.00  0.00     0.086 A 
HETATM    8  C   UNL     1      42.007 -12.887   3.269  1.00  0.00     0.052 A 
HETATM    9  C   UNL     1      42.183 -12.670   4.723  1.00  0.00     0.072 C 
HETATM   10  N   UNL     1      41.945 -11.840   2.393  1.00  0.00    -0.280 N 
HETATM   11  H   UNL     1      42.006 -10.848   2.597  1.00  0.00     0.189 HD
HETATM   12  N   UNL     1      41.793 -12.207   1.117  1.00  0.00    -0.177 NA
HETATM   13  C   UNL     1      41.731 -13.545   1.164  1.00  0.00     0.079 A 
HETATM   14  C   UNL     1      41.629 -14.300  -0.112  1.00  0.00     0.075 C 
ENDBRANCH   1   7
BRANCH   3  15
HETATM   15  C   UNL     1      43.494 -18.434   3.875  1.00  0.00     0.071 A 
HETATM   16  C   UNL     1      44.264 -18.632   5.037  1.00  0.00     0.095 A 
HETATM   17  C   UNL     1      45.005 -19.805   5.197  1.00  0.00     0.040 A 
HETATM   18  C   UNL     1      45.002 -20.772   4.190  1.00  0.00     0.022 A 
HETATM   19  C   UNL     1      44.251 -20.565   3.033  1.00  0.00     0.013 A 
HETATM   20 BR   UNL     1      44.240 -21.890   1.682  1.00  0.00    -0.051 Br
HETATM   21  C   UNL     1      43.495 -19.405   2.871  1.00  0.00     0.051 A 
BRANCH  16  22
HETATM   22  O   UNL     1      44.213 -17.634   5.984  1.00  0.00    -0.354 OA
HETATM   23  C   UNL     1      43.708 -18.056   7.249  1.00  0.00     0.210 C 
ENDBRANCH  16  22
ENDBRANCH   3  15
TORSDOF 3
ENDMDL
MODEL 5
REMARK VINA RESULT:      -6.7      3.680      5.319
REMARK  3 active torsions:
REMARK  status: ('A' for Active; 'I' for Inactive)
REMARK    1  A    between atoms: C_8  and  N_9 
REMARK       I    between atoms: N_9  and  C_10 
REMARK       I    between atoms: C_10  and  N_11 
REMARK    2  A    between atoms: N_11  and  C_12 
REMARK    3  A    between atoms: C_13  and  O_14 
ROOT
HETATM    1  N   UNL     1      43.579 -15.365   4.662  1.00  0.00    -0.305 N 
HETATM    2  C   UNL     1      43.144 -16.667   4.493  1.00  0.00     0.325 C 
HETATM    3  N   UNL     1      43.978 -17.337   3.617  1.00  0.00    -0.306 N 
HETATM    4  O   UNL     1      42.170 -17.162   5.044  1.00  0.00    -0.247 OA
HETATM    5  H   UNL     1      44.577 -15.234   4.601  1.00  0.00     0.171 HD
HETATM    6  H   UNL     1      44.438 -16.769   2.916  1.00  0.00     0.171 HD
ENDROOT
BRANCH   1   7
HETATM    7  C   UNL     1      42.860 -14.364   5.291  1.00  0.00     0.086 A 
HETATM    8  C   UNL     1      43.337 -13.668   6.385  1.00  0.00     0.052 A 
HETATM    9  C   UNL     1      44.584 -13.769   7.177  1.00  0.00     0.072 C 
HETATM   10  N   UNL     1      42.360 -12.767   6.703  1.00  0.00    -0.280 N 
HETATM   11  H   UNL     1      42.350 -12.095   7.463  1.00  0.00     0.189 HD
HETATM   12  N   UNL     1      41.304 -12.799   5.884  1.00  0.00    -0.177 NA
HETATM   13  C   UNL     1      41.594 -13.773   5.009  1.00  0.00     0.079 A 
HETATM   14  C   UNL     1      40.647 -14.037   3.896  1.00  0.00     0.075 C 
ENDBRANCH   1   7
BRANCH   3  15
HETATM   15  C   UNL     1      43.976 -18.721   3.335  1.00  0.00     0.071 A 
HETATM   16  C   UNL     1      43.485 -19.123   2.078  1.00  0.00     0.095 A 
HETATM   17  C   UNL     1      43.508 -20.471   1.714  1.00  0.00     0.040 A 
HETATM   18  C   UNL     1      43.995 -21.425   2.610  1.00  0.00     0.022 A 
HETATM   19  C   UNL     1      44.463 -21.025   3.861  1.00  0.00     0.013 A 
HETATM   20 BR   UNL     1      45.135 -22.324   5.061  1.00  0.00    -0.051 Br
HETATM   21  C   UNL     1      44.459 -19.680   4.228  1.00  0.00     0.051 A 
BRANCH  16  22
HETATM   22  O   UNL     1      43.027 -18.123   1.251  1.00  0.00    -0.354 OA
HETATM   23  C   UNL     1      41.616 -17.922   1.305  1.00  0.00     0.210 C 
ENDBRANCH  16  22
ENDBRANCH   3  15
TORSDOF 3
ENDMDL
MODEL 6
REMARK VINA RESULT:      -6.6      3.169      6.744
REMARK  3 active torsions:
REMARK  status: ('A' for Active; 'I' for Inactive)
REMARK    1  A    between atoms: C_8  and  N_9 
REMARK       I    between atoms: N_9  and  C_10 
REMARK       I    between atoms: C_10  and  N_11 
REMARK    2  A    between atoms: N_11  and  C_12 
REMARK    3  A    between atoms: C_13  and  O_14 
ROOT
HETATM    1  N   UNL     1      42.840 -18.389   3.283  1.00  0.00    -0.305 N 
HETATM    2  C   UNL     1      43.038 -17.490   2.252  1.00  0.00     0.325 C 
HETATM    3  N   UNL     1      41.840 -16.894   1.904  1.00  0.00    -0.306 N 
HETATM    4  O   UNL     1      44.117 -17.246   1.727  1.00  0.00    -0.247 OA
HETATM    5  H   UNL     1      42.106 -18.145   3.932  1.00  0.00     0.171 HD
HETATM    6  H   UNL     1      41.005 -17.447   2.058  1.00  0.00     0.171 HD
ENDROOT
BRANCH   1   7
HETATM    7  C   UNL     1      43.774 -19.311   3.724  1.00  0.00     0.086 A 
HETATM    8  C   UNL     1      44.091 -20.457   3.020  1.00  0.00     0.052 A 
HETATM    9  C   UNL     1      43.582 -21.035   1.756  1.00  0.00     0.072 C 
HETATM   10  N   UNL     1      45.050 -21.089   3.760  1.00  0.00    -0.280 N 
HETATM   11  H   UNL     1      45.511 -21.971   3.565  1.00  0.00     0.189 HD
HETATM   12  N   UNL     1      45.405 -20.430   4.868  1.00  0.00    -0.177 NA
HETATM   13  C   UNL     1      44.632 -19.335   4.861  1.00  0.00     0.079 A 
HETATM   14  C   UNL     1      44.816 -18.326   5.937  1.00  0.00     0.075 C 
ENDBRANCH   1   7
BRANCH   3  15
HETATM   15  C   UNL     1      41.661 -15.799   1.031  1.00  0.00     0.071 A 
HETATM   16  C   UNL     1      41.791 -14.508   1.579  1.00  0.00     0.095 A 
HETATM   17  C   UNL     1      41.682 -13.382   0.758  1.00  0.00     0.040 A 
HETATM   18  C   UNL     1      41.417 -13.539  -0.604  1.00  0.00     0.022 A 
HETATM   19  C   UNL     1      41.271 -14.818  -1.139  1.00  0.00     0.013 A 
HETATM   20 BR   UNL     1      40.928 -15.017  -2.989  1.00  0.00    -0.051 Br
HETATM   21  C   UNL     1      41.394 -15.948  -0.332  1.00  0.00     0.051 A 
BRANCH  16  22
HETATM   22  O   UNL     1      42.055 -14.438   2.928  1.00  0.00    -0.354 OA
HETATM   23  C   UNL     1      43.299 -13.818   3.248  1.00  0.00     0.210 C 
ENDBRANCH  16  22
ENDBRANCH   3  15
TORSDOF 3
ENDMDL
MODEL 7
REMARK VINA RESULT:      -6.6      1.936      2.291
REMARK  3 active torsions:
REMARK  status: ('A' for Active; 'I' for Inactive)
REMARK    1  A    between atoms: C_8  and  N_9 
REMARK       I    between atoms: N_9  and  C_10 
REMARK       I    between atoms: C_10  and  N_11 
REMARK    2  A    between atoms: N_11  and  C_12 
REMARK    3  A    between atoms: C_13  and  O_14 
ROOT
HETATM    1  N   UNL     1      39.916 -15.105  -0.841  1.00  0.00    -0.305 N 
HETATM    2  C   UNL     1      40.937 -15.403   0.043  1.00  0.00     0.325 C 
HETATM    3  N   UNL     1      40.479 -16.257   1.028  1.00  0.00    -0.306 N 
HETATM    4  O   UNL     1      42.084 -14.983  -0.038  1.00  0.00    -0.247 OA
HETATM    5  H   UNL     1      39.242 -15.842  -0.982  1.00  0.00     0.171 HD
HETATM    6  H   UNL     1      39.495 -16.185   1.261  1.00  0.00     0.171 HD
ENDROOT
BRANCH   1   7
HETATM    7  C   UNL     1      39.967 -14.118  -1.809  1.00  0.00     0.086 A 
HETATM    8  C   UNL     1      39.752 -14.366  -3.151  1.00  0.00     0.052 A 
HETATM    9  C   UNL     1      39.477 -15.605  -3.913  1.00  0.00     0.072 C 
HETATM   10  N   UNL     1      39.870 -13.156  -3.773  1.00  0.00    -0.280 N 
HETATM   11  H   UNL     1      39.793 -12.950  -4.763  1.00  0.00     0.189 HD
HETATM   12  N   UNL     1      40.110 -12.138  -2.941  1.00  0.00    -0.177 NA
HETATM   13  C   UNL     1      40.172 -12.709  -1.729  1.00  0.00     0.079 A 
HETATM   14  C   UNL     1      40.363 -11.840  -0.540  1.00  0.00     0.075 C 
ENDBRANCH   1   7
BRANCH   3  15
HETATM   15  C   UNL     1      41.257 -16.930   1.996  1.00  0.00     0.071 A 
HETATM   16  C   UNL     1      41.166 -16.476   3.327  1.00  0.00     0.095 A 
HETATM   17  C   UNL     1      41.866 -17.134   4.342  1.00  0.00     0.040 A 
HETATM   18  C   UNL     1      42.677 -18.227   4.031  1.00  0.00     0.022 A 
HETATM   19  C   UNL     1      42.778 -18.662   2.711  1.00  0.00     0.013 A 
HETATM   20 BR   UNL     1      43.869 -20.153   2.304  1.00  0.00    -0.051 Br
HETATM   21  C   UNL     1      42.072 -18.023   1.692  1.00  0.00     0.051 A 
BRANCH  16  22
HETATM   22  O   UNL     1      40.343 -15.396   3.551  1.00  0.00    -0.354 OA
HETATM   23  C   UNL     1      40.987 -14.293   4.185  1.00  0.00     0.210 C 
ENDBRANCH  16  22
ENDBRANCH   3  15
TORSDOF 3
ENDMDL
MODEL 8
REMARK VINA RESULT:      -6.5      3.528      7.376
REMARK  3 active torsions:
REMARK  status: ('A' for Active; 'I' for Inactive)
REMARK    1  A    between atoms: C_8  and  N_9 
REMARK       I    between atoms: N_9  and  C_10 
REMARK       I    between atoms: C_10  and  N_11 
REMARK    2  A    between atoms: N_11  and  C_12 
REMARK    3  A    between atoms: C_13  and  O_14 
ROOT
HETATM    1  N   UNL     1      43.811 -18.699   2.942  1.00  0.00    -0.305 N 
HETATM    2  C   UNL     1      42.702 -17.994   3.375  1.00  0.00     0.325 C 
HETATM    3  N   UNL     1      42.670 -16.747   2.778  1.00  0.00    -0.306 N 
HETATM    4  O   UNL     1      41.863 -18.413   4.162  1.00  0.00    -0.247 OA
HETATM    5  H   UNL     1      44.103 -18.503   1.997  1.00  0.00     0.171 HD
HETATM    6  H   UNL     1      43.567 -16.348   2.528  1.00  0.00     0.171 HD
ENDROOT
BRANCH   1   7
HETATM    7  C   UNL     1      44.265 -19.882   3.498  1.00  0.00     0.086 A 
HETATM    8  C   UNL     1      44.719 -19.977   4.800  1.00  0.00     0.052 A 
HETATM    9  C   UNL     1      44.893 -18.980   5.880  1.00  0.00     0.072 C 
HETATM   10  N   UNL     1      45.060 -21.288   4.976  1.00  0.00    -0.280 N 
HETATM   11  H   UNL     1      45.448 -21.729   5.803  1.00  0.00     0.189 HD
HETATM   12  N   UNL     1      44.832 -22.058   3.907  1.00  0.00    -0.177 NA
HETATM   13  C   UNL     1      44.342 -21.211   2.989  1.00  0.00     0.079 A 
HETATM   14  C   UNL     1      43.910 -21.754   1.676  1.00  0.00     0.075 C 
ENDBRANCH   1   7
BRANCH   3  15
HETATM   15  C   UNL     1      41.609 -15.815   2.820  1.00  0.00     0.071 A 
HETATM   16  C   UNL     1      40.807 -15.697   1.668  1.00  0.00     0.095 A 
HETATM   17  C   UNL     1      39.707 -14.836   1.664  1.00  0.00     0.040 A 
HETATM   18  C   UNL     1      39.420 -14.070   2.796  1.00  0.00     0.022 A 
HETATM   19  C   UNL     1      40.226 -14.177   3.928  1.00  0.00     0.013 A 
HETATM   20 BR   UNL     1      39.817 -13.147   5.462  1.00  0.00    -0.051 Br
HETATM   21  C   UNL     1      41.317 -15.045   3.949  1.00  0.00     0.051 A 
BRANCH  16  22
HETATM   22  O   UNL     1      41.154 -16.487   0.596  1.00  0.00    -0.354 OA
HETATM   23  C   UNL     1      41.287 -15.777  -0.633  1.00  0.00     0.210 C 
ENDBRANCH  16  22
ENDBRANCH   3  15
TORSDOF 3
ENDMDL
MODEL 9
REMARK VINA RESULT:      -6.5      2.898      3.728
REMARK  3 active torsions:
REMARK  status: ('A' for Active; 'I' for Inactive)
REMARK    1  A    between atoms: C_8  and  N_9 
REMARK       I    between atoms: N_9  and  C_10 
REMARK       I    between atoms: C_10  and  N_11 
REMARK    2  A    between atoms: N_11  and  C_12 
REMARK    3  A    between atoms: C_13  and  O_14 
ROOT
HETATM    1  N   UNL     1      40.130 -15.269   4.064  1.00  0.00    -0.305 N 
HETATM    2  C   UNL     1      41.451 -15.678   4.104  1.00  0.00     0.325 C 
HETATM    3  N   UNL     1      41.551 -16.900   4.742  1.00  0.00    -0.306 N 
HETATM    4  O   UNL     1      42.395 -15.057   3.633  1.00  0.00    -0.247 OA
HETATM    5  H   UNL     1      39.452 -16.013   3.998  1.00  0.00     0.171 HD
HETATM    6  H   UNL     1      40.847 -17.096   5.445  1.00  0.00     0.171 HD
ENDROOT
BRANCH   1   7
HETATM    7  C   UNL     1      39.701 -14.005   3.697  1.00  0.00     0.086 A 
HETATM    8  C   UNL     1      39.194 -13.716   2.445  1.00  0.00     0.052 A 
HETATM    9  C   UNL     1      39.004 -14.530   1.223  1.00  0.00     0.072 C 
HETATM   10  N   UNL     1      38.872 -12.388   2.477  1.00  0.00    -0.280 N 
HETATM   11  H   UNL     1      38.488 -11.819   1.730  1.00  0.00     0.189 HD
HETATM   12  N   UNL     1      39.096 -11.802   3.657  1.00  0.00    -0.177 NA
HETATM   13  C   UNL     1      39.605 -12.781   4.420  1.00  0.00     0.079 A 
HETATM   14  C   UNL     1      39.912 -12.488   5.843  1.00  0.00     0.075 C 
ENDBRANCH   1   7
BRANCH   3  15
HETATM   15  C   UNL     1      42.694 -17.725   4.818  1.00  0.00     0.071 A 
HETATM   16  C   UNL     1      43.509 -17.597   5.959  1.00  0.00     0.095 A 
HETATM   17  C   UNL     1      44.623 -18.424   6.123  1.00  0.00     0.040 A 
HETATM   18  C   UNL     1      44.944 -19.361   5.139  1.00  0.00     0.022 A 
HETATM   19  C   UNL     1      44.145 -19.473   4.003  1.00  0.00     0.013 A 
HETATM   20 BR   UNL     1      44.579 -20.758   2.684  1.00  0.00    -0.051 Br
HETATM   21  C   UNL     1      43.022 -18.664   3.836  1.00  0.00     0.051 A 
BRANCH  16  22
HETATM   22  O   UNL     1      43.125 -16.653   6.884  1.00  0.00    -0.354 OA
HETATM   23  C   UNL     1      44.026 -15.554   7.006  1.00  0.00     0.210 C 
ENDBRANCH  16  22
ENDBRANCH   3  15
TORSDOF 3
ENDMDL
MODEL 10
REMARK VINA RESULT:      -6.4      4.039      7.564
REMARK  3 active torsions:
REMARK  status: ('A' for Active; 'I' for Inactive)
REMARK    1  A    between atoms: C_8  and  N_9 
REMARK       I    between atoms: N_9  and  C_10 
REMARK       I    between atoms: C_10  and  N_11 
REMARK    2  A    between atoms: N_11  and  C_12 
REMARK    3  A    between atoms: C_13  and  O_14 
ROOT
HETATM    1  N   UNL     1      42.143 -18.226   4.556  1.00  0.00    -0.305 N 
HETATM    2  C   UNL     1      42.104 -16.869   4.292  1.00  0.00     0.325 C 
HETATM    3  N   UNL     1      40.798 -16.417   4.318  1.00  0.00    -0.306 N 
HETATM    4  O   UNL     1      43.081 -16.164   4.077  1.00  0.00    -0.247 OA
HETATM    5  H   UNL     1      41.427 -18.562   5.182  1.00  0.00     0.171 HD
HETATM    6  H   UNL     1      40.086 -17.092   4.064  1.00  0.00     0.171 HD
ENDROOT
BRANCH   1   7
HETATM    7  C   UNL     1      43.254 -19.034   4.392  1.00  0.00     0.086 A 
HETATM    8  C   UNL     1      43.964 -19.562   5.454  1.00  0.00     0.052 A 
HETATM    9  C   UNL     1      43.827 -19.428   6.922  1.00  0.00     0.072 C 
HETATM   10  N   UNL     1      44.964 -20.306   4.894  1.00  0.00    -0.280 N 
HETATM   11  H   UNL     1      45.694 -20.829   5.364  1.00  0.00     0.189 HD
HETATM   12  N   UNL     1      44.940 -20.331   3.558  1.00  0.00    -0.177 NA
HETATM   13  C   UNL     1      43.895 -19.557   3.232  1.00  0.00     0.079 A 
HETATM   14  C   UNL     1      43.531 -19.416   1.798  1.00  0.00     0.075 C 
ENDBRANCH   1   7
BRANCH   3  15
HETATM   15  C   UNL     1      40.365 -15.073   4.281  1.00  0.00     0.071 A 
HETATM   16  C   UNL     1      39.983 -14.552   3.029  1.00  0.00     0.095 A 
HETATM   17  C   UNL     1      39.492 -13.248   2.932  1.00  0.00     0.040 A 
HETATM   18  C   UNL     1      39.404 -12.451   4.075  1.00  0.00     0.022 A 
HETATM   19  C   UNL     1      39.799 -12.965   5.310  1.00  0.00     0.013 A 
HETATM   20 BR   UNL     1      39.660 -11.881   6.855  1.00  0.00    -0.051 Br
HETATM   21  C   UNL     1      40.276 -14.270   5.421  1.00  0.00     0.051 A 
BRANCH  16  22
HETATM   22  O   UNL     1      40.097 -15.401   1.952  1.00  0.00    -0.354 OA
HETATM   23  C   UNL     1      41.067 -14.996   0.989  1.00  0.00     0.210 C 
ENDBRANCH  16  22
ENDBRANCH   3  15
TORSDOF 3
ENDMDL
