MODEL 1
REMARK VINA RESULT:      -9.3      0.000      0.000
REMARK  8 active torsions:
REMARK  status: ('A' for Active; 'I' for Inactive)
REMARK    1  A    between atoms: C_2  and  O_3 
REMARK    2  A    between atoms: O_3  and  C_4 
REMARK    3  A    between atoms: C_4  and  C_5 
REMARK    4  A    between atoms: C_6  and  N_7 
REMARK       I    between atoms: N_7  and  C_8 
REMARK    5  A    between atoms: C_8  and  C_9 
REMARK    6  A    between atoms: C_9  and  S_10 
REMARK    7  A    between atoms: S_10  and  C_11 
REMARK    8  A    between atoms: N_18  and  C_19 
ROOT
HETATM    1  C   UNL     1      41.705 -11.833   5.992  1.00  0.00     0.185 C 
ENDROOT
BRANCH   1   2
HETATM    2  C   UNL     1      41.751 -10.792   7.101  1.00  0.00     0.232 C 
HETATM    3  N   UNL     1      41.634 -11.350   8.366  1.00  0.00    -0.320 N 
HETATM    4  H   UNL     1      41.389 -12.338   8.440  1.00  0.00     0.169 HD
HETATM    5  O   UNL     1      41.915  -9.606   6.828  1.00  0.00    -0.272 OA
BRANCH   3   6
HETATM    6  C   UNL     1      41.831 -10.713   9.586  1.00  0.00     0.094 A 
HETATM    7  C   UNL     1      42.909 -10.899  10.449  1.00  0.00     0.080 A 
HETATM    8  C   UNL     1      42.785 -10.044  11.619  1.00  0.00    -0.026 A 
HETATM    9  C   UNL     1      41.669  -9.233  11.532  1.00  0.00    -0.008 A 
HETATM   10  C   UNL     1      43.742  -9.924  12.776  1.00  0.00     0.041 C 
HETATM   11  S   UNL     1      40.741  -9.542  10.152  1.00  0.00    -0.075 SA
HETATM   12  C   UNL     1      41.269  -8.189  12.526  1.00  0.00     0.047 C 
HETATM   13  C   UNL     1      42.466  -7.813  13.409  1.00  0.00     0.005 C 
HETATM   14  C   UNL     1      43.185  -9.065  13.923  1.00  0.00     0.005 C 
BRANCH   7  15
HETATM   15  C   UNL     1      43.998 -11.828  10.126  1.00  0.00     0.296 C 
HETATM   16  O   UNL     1      44.321 -12.750  10.869  1.00  0.00    -0.259 OA
BRANCH  15  17
HETATM   17  O   UNL     1      44.588 -11.568   8.928  1.00  0.00    -0.318 OA
BRANCH  17  18
HETATM   18  C   UNL     1      45.498 -12.566   8.449  1.00  0.00     0.174 C 
HETATM   19  C   UNL     1      44.721 -13.509   7.550  1.00  0.00     0.034 C 
ENDBRANCH  17  18
ENDBRANCH  15  17
ENDBRANCH   7  15
ENDBRANCH   3   6
ENDBRANCH   1   2
BRANCH   1  20
HETATM   20  S   UNL     1      40.041 -11.925   5.267  1.00  0.00    -0.083 SA
BRANCH  20  21
HETATM   21  C   UNL     1      40.210 -13.422   4.417  1.00  0.00     0.171 A 
HETATM   22  N   UNL     1      41.011 -14.354   4.831  1.00  0.00    -0.204 NA
HETATM   23  C   UNL     1      41.036 -15.442   4.008  1.00  0.00     0.171 A 
HETATM   24  C   UNL     1      40.351 -15.570   2.821  1.00  0.00     0.099 A 
HETATM   25  N   UNL     1      41.762 -16.620   4.164  1.00  0.00    -0.215 N 
HETATM   26  C   UNL     1      39.463 -14.526   2.401  1.00  0.00     0.263 A 
HETATM   27  C   UNL     1      40.760 -16.781   2.270  1.00  0.00     0.160 A 
HETATM   28  O   UNL     1      38.812 -14.549   1.365  1.00  0.00    -0.267 OA
HETATM   29  N   UNL     1      39.433 -13.472   3.287  1.00  0.00    -0.301 N 
HETATM   30  H   UNL     1      38.837 -12.691   3.061  1.00  0.00     0.171 HD
HETATM   31  N   UNL     1      41.648 -17.408   3.045  1.00  0.00    -0.177 NA
BRANCH  25  32
HETATM   32  C   UNL     1      42.523 -17.079   5.279  1.00  0.00     0.060 A 
HETATM   33  C   UNL     1      42.048 -16.959   6.594  1.00  0.00     0.034 A 
HETATM   34  C   UNL     1      42.804 -17.458   7.660  1.00  0.00     0.044 A 
HETATM   35  C   UNL     1      44.030 -18.063   7.414  1.00  0.00     0.116 A 
HETATM   36  F   UNL     1      44.755 -18.527   8.439  1.00  0.00    -0.206 F 
HETATM   37  C   UNL     1      44.519 -18.187   6.119  1.00  0.00     0.044 A 
HETATM   38  C   UNL     1      43.764 -17.703   5.049  1.00  0.00     0.034 A 
ENDBRANCH  25  32
ENDBRANCH  20  21
ENDBRANCH   1  20
TORSDOF 8
ENDMDL
MODEL 2
REMARK VINA RESULT:      -9.3      1.509      1.814
REMARK  8 active torsions:
REMARK  status: ('A' for Active; 'I' for Inactive)
REMARK    1  A    between atoms: C_2  and  O_3 
REMARK    2  A    between atoms: O_3  and  C_4 
REMARK    3  A    between atoms: C_4  and  C_5 
REMARK    4  A    between atoms: C_6  and  N_7 
REMARK       I    between atoms: N_7  and  C_8 
REMARK    5  A    between atoms: C_8  and  C_9 
REMARK    6  A    between atoms: C_9  and  S_10 
REMARK    7  A    between atoms: S_10  and  C_11 
REMARK    8  A    between atoms: N_18  and  C_19 
ROOT
HETATM    1  C   UNL     1      41.737 -11.650   5.670  1.00  0.00     0.185 C 
ENDROOT
BRANCH   1   2
HETATM    2  C   UNL     1      41.768 -10.654   6.819  1.00  0.00     0.232 C 
HETATM    3  N   UNL     1      41.701 -11.266   8.062  1.00  0.00    -0.320 N 
HETATM    4  H   UNL     1      41.497 -12.265   8.100  1.00  0.00     0.169 HD
HETATM    5  O   UNL     1      41.878  -9.452   6.592  1.00  0.00    -0.272 OA
BRANCH   3   6
HETATM    6  C   UNL     1      41.900 -10.671   9.303  1.00  0.00     0.094 A 
HETATM    7  C   UNL     1      42.956 -10.919  10.177  1.00  0.00     0.080 A 
HETATM    8  C   UNL     1      42.843 -10.093  11.368  1.00  0.00    -0.026 A 
HETATM    9  C   UNL     1      41.757  -9.241  11.288  1.00  0.00    -0.008 A 
HETATM   10  C   UNL     1      43.784 -10.039  12.544  1.00  0.00     0.041 C 
HETATM   11  S   UNL     1      40.842  -9.479   9.886  1.00  0.00    -0.075 SA
HETATM   12  C   UNL     1      41.377  -8.212  12.306  1.00  0.00     0.047 C 
HETATM   13  C   UNL     1      42.571  -7.903  13.217  1.00  0.00     0.005 C 
HETATM   14  C   UNL     1      43.238  -9.194  13.706  1.00  0.00     0.005 C 
BRANCH   7  15
HETATM   15  C   UNL     1      44.018 -11.876   9.844  1.00  0.00     0.296 C 
HETATM   16  O   UNL     1      44.266 -12.855  10.541  1.00  0.00    -0.259 OA
BRANCH  15  17
HETATM   17  O   UNL     1      44.674 -11.570   8.692  1.00  0.00    -0.318 OA
BRANCH  17  18
HETATM   18  C   UNL     1      45.589 -12.563   8.211  1.00  0.00     0.174 C 
HETATM   19  C   UNL     1      46.943 -11.903   8.040  1.00  0.00     0.034 C 
ENDBRANCH  17  18
ENDBRANCH  15  17
ENDBRANCH   7  15
ENDBRANCH   3   6
ENDBRANCH   1   2
BRANCH   1  20
HETATM   20  S   UNL     1      42.476 -13.232   6.171  1.00  0.00    -0.083 SA
BRANCH  20  21
HETATM   21  C   UNL     1      41.822 -14.234   4.922  1.00  0.00     0.171 A 
HETATM   22  N   UNL     1      42.356 -15.375   4.613  1.00  0.00    -0.204 NA
HETATM   23  C   UNL     1      41.723 -15.998   3.578  1.00  0.00     0.171 A 
HETATM   24  C   UNL     1      40.662 -15.493   2.860  1.00  0.00     0.099 A 
HETATM   25  N   UNL     1      42.016 -17.237   3.013  1.00  0.00    -0.215 N 
HETATM   26  C   UNL     1      40.089 -14.235   3.238  1.00  0.00     0.263 A 
HETATM   27  C   UNL     1      40.419 -16.408   1.839  1.00  0.00     0.160 A 
HETATM   28  O   UNL     1      39.147 -13.706   2.662  1.00  0.00    -0.267 OA
HETATM   29  N   UNL     1      40.728 -13.667   4.317  1.00  0.00    -0.301 N 
HETATM   30  H   UNL     1      40.390 -12.774   4.642  1.00  0.00     0.171 HD
HETATM   31  N   UNL     1      41.259 -17.445   1.887  1.00  0.00    -0.177 NA
BRANCH  25  32
HETATM   32  C   UNL     1      42.921 -18.247   3.455  1.00  0.00     0.060 A 
HETATM   33  C   UNL     1      43.151 -18.484   4.819  1.00  0.00     0.034 A 
HETATM   34  C   UNL     1      44.013 -19.510   5.216  1.00  0.00     0.044 A 
HETATM   35  C   UNL     1      44.649 -20.288   4.256  1.00  0.00     0.116 A 
HETATM   36  F   UNL     1      45.484 -21.262   4.642  1.00  0.00    -0.206 F 
HETATM   37  C   UNL     1      44.438 -20.067   2.902  1.00  0.00     0.044 A 
HETATM   38  C   UNL     1      43.568 -19.051   2.498  1.00  0.00     0.034 A 
ENDBRANCH  25  32
ENDBRANCH  20  21
ENDBRANCH   1  20
TORSDOF 8
ENDMDL
MODEL 3
REMARK VINA RESULT:      -9.3      5.062      9.861
REMARK  8 active torsions:
REMARK  status: ('A' for Active; 'I' for Inactive)
REMARK    1  A    between atoms: C_2  and  O_3 
REMARK    2  A    between atoms: O_3  and  C_4 
REMARK    3  A    between atoms: C_4  and  C_5 
REMARK    4  A    between atoms: C_6  and  N_7 
REMARK       I    between atoms: N_7  and  C_8 
REMARK    5  A    between atoms: C_8  and  C_9 
REMARK    6  A    between atoms: C_9  and  S_10 
REMARK    7  A    between atoms: S_10  and  C_11 
REMARK    8  A    between atoms: N_18  and  C_19 
ROOT
HETATM    1  C   UNL     1      40.883 -15.762   2.557  1.00  0.00     0.185 C 
ENDROOT
BRANCH   1   2
HETATM    2  C   UNL     1      41.444 -15.295   1.223  1.00  0.00     0.232 C 
HETATM    3  N   UNL     1      40.919 -14.077   0.816  1.00  0.00    -0.320 N 
HETATM    4  H   UNL     1      40.135 -13.688   1.339  1.00  0.00     0.169 HD
HETATM    5  O   UNL     1      42.296 -15.963   0.643  1.00  0.00    -0.272 OA
BRANCH   3   6
HETATM    6  C   UNL     1      41.355 -13.286  -0.242  1.00  0.00     0.094 A 
HETATM    7  C   UNL     1      41.117 -13.516  -1.596  1.00  0.00     0.080 A 
HETATM    8  C   UNL     1      41.707 -12.464  -2.408  1.00  0.00    -0.026 A 
HETATM    9  C   UNL     1      42.290 -11.489  -1.620  1.00  0.00    -0.008 A 
HETATM   10  C   UNL     1      41.663 -12.325  -3.907  1.00  0.00     0.041 C 
HETATM   11  S   UNL     1      42.225 -11.855   0.030  1.00  0.00    -0.075 SA
HETATM   12  C   UNL     1      42.934 -10.233  -2.119  1.00  0.00     0.047 C 
HETATM   13  C   UNL     1      42.477  -9.938  -3.553  1.00  0.00     0.005 C 
HETATM   14  C   UNL     1      42.564 -11.194  -4.427  1.00  0.00     0.005 C 
BRANCH   7  15
HETATM   15  C   UNL     1      40.335 -14.671  -2.051  1.00  0.00     0.296 C 
HETATM   16  O   UNL     1      40.851 -15.650  -2.583  1.00  0.00    -0.259 OA
BRANCH  15  17
HETATM   17  O   UNL     1      39.002 -14.546  -1.810  1.00  0.00    -0.318 OA
BRANCH  17  18
HETATM   18  C   UNL     1      38.226 -13.965  -2.866  1.00  0.00     0.174 C 
HETATM   19  C   UNL     1      37.414 -15.072  -3.509  1.00  0.00     0.034 C 
ENDBRANCH  17  18
ENDBRANCH  15  17
ENDBRANCH   7  15
ENDBRANCH   3   6
ENDBRANCH   1   2
BRANCH   1  20
HETATM   20  S   UNL     1      41.281 -14.573   3.873  1.00  0.00    -0.083 SA
BRANCH  20  21
HETATM   21  C   UNL     1      42.468 -15.506   4.717  1.00  0.00     0.171 A 
HETATM   22  N   UNL     1      42.760 -16.719   4.362  1.00  0.00    -0.204 NA
HETATM   23  C   UNL     1      43.689 -17.303   5.172  1.00  0.00     0.171 A 
HETATM   24  C   UNL     1      44.250 -16.737   6.294  1.00  0.00     0.099 A 
HETATM   25  N   UNL     1      44.241 -18.578   5.065  1.00  0.00    -0.215 N 
HETATM   26  C   UNL     1      43.915 -15.389   6.648  1.00  0.00     0.263 A 
HETATM   27  C   UNL     1      45.049 -17.725   6.864  1.00  0.00     0.160 A 
HETATM   28  O   UNL     1      44.362 -14.801   7.624  1.00  0.00    -0.267 OA
HETATM   29  N   UNL     1      43.013 -14.824   5.776  1.00  0.00    -0.301 N 
HETATM   30  H   UNL     1      42.719 -13.877   5.958  1.00  0.00     0.171 HD
HETATM   31  N   UNL     1      45.019 -18.859   6.161  1.00  0.00    -0.177 NA
BRANCH  25  32
HETATM   32  C   UNL     1      44.124 -19.535   4.014  1.00  0.00     0.060 A 
HETATM   33  C   UNL     1      43.496 -19.221   2.800  1.00  0.00     0.034 A 
HETATM   34  C   UNL     1      43.436 -20.171   1.776  1.00  0.00     0.044 A 
HETATM   35  C   UNL     1      43.993 -21.430   1.968  1.00  0.00     0.116 A 
HETATM   36  F   UNL     1      43.921 -22.340   0.988  1.00  0.00    -0.206 F 
HETATM   37  C   UNL     1      44.615 -21.760   3.165  1.00  0.00     0.044 A 
HETATM   38  C   UNL     1      44.690 -20.812   4.187  1.00  0.00     0.034 A 
ENDBRANCH  25  32
ENDBRANCH  20  21
ENDBRANCH   1  20
TORSDOF 8
ENDMDL
MODEL 4
REMARK VINA RESULT:      -9.2      5.020      9.141
REMARK  8 active torsions:
REMARK  status: ('A' for Active; 'I' for Inactive)
REMARK    1  A    between atoms: C_2  and  O_3 
REMARK    2  A    between atoms: O_3  and  C_4 
REMARK    3  A    between atoms: C_4  and  C_5 
REMARK    4  A    between atoms: C_6  and  N_7 
REMARK       I    between atoms: N_7  and  C_8 
REMARK    5  A    between atoms: C_8  and  C_9 
REMARK    6  A    between atoms: C_9  and  S_10 
REMARK    7  A    between atoms: S_10  and  C_11 
REMARK    8  A    between atoms: N_18  and  C_19 
ROOT
HETATM    1  C   UNL     1      41.413 -13.385   4.037  1.00  0.00     0.185 C 
ENDROOT
BRANCH   1   2
HETATM    2  C   UNL     1      42.086 -13.209   2.685  1.00  0.00     0.232 C 
HETATM    3  N   UNL     1      41.217 -12.745   1.708  1.00  0.00    -0.320 N 
HETATM    4  H   UNL     1      40.221 -12.706   1.924  1.00  0.00     0.169 HD
HETATM    5  O   UNL     1      43.286 -13.439   2.558  1.00  0.00    -0.272 OA
BRANCH   3   6
HETATM    6  C   UNL     1      41.548 -12.298   0.433  1.00  0.00     0.094 A 
HETATM    7  C   UNL     1      41.250 -12.938  -0.768  1.00  0.00     0.080 A 
HETATM    8  C   UNL     1      41.733 -12.162  -1.899  1.00  0.00    -0.026 A 
HETATM    9  C   UNL     1      42.301 -10.971  -1.484  1.00  0.00    -0.008 A 
HETATM   10  C   UNL     1      41.599 -12.487  -3.363  1.00  0.00     0.041 C 
HETATM   11  S   UNL     1      42.347 -10.820   0.200  1.00  0.00    -0.075 SA
HETATM   12  C   UNL     1      42.843  -9.903  -2.382  1.00  0.00     0.047 C 
HETATM   13  C   UNL     1      42.292 -10.076  -3.802  1.00  0.00     0.005 C 
HETATM   14  C   UNL     1      42.403 -11.535  -4.262  1.00  0.00     0.005 C 
BRANCH   7  15
HETATM   15  C   UNL     1      40.512 -14.206  -0.799  1.00  0.00     0.296 C 
HETATM   16  O   UNL     1      39.287 -14.256  -0.871  1.00  0.00    -0.259 OA
BRANCH  15  17
HETATM   17  O   UNL     1      41.321 -15.299  -0.755  1.00  0.00    -0.318 OA
BRANCH  17  18
HETATM   18  C   UNL     1      41.186 -16.132   0.404  1.00  0.00     0.174 C 
HETATM   19  C   UNL     1      42.579 -16.469   0.899  1.00  0.00     0.034 C 
ENDBRANCH  17  18
ENDBRANCH  15  17
ENDBRANCH   7  15
ENDBRANCH   3   6
ENDBRANCH   1   2
BRANCH   1  20
HETATM   20  S   UNL     1      40.749 -15.068   4.211  1.00  0.00    -0.083 SA
BRANCH  20  21
HETATM   21  C   UNL     1      42.134 -15.822   4.922  1.00  0.00     0.171 A 
HETATM   22  N   UNL     1      42.551 -16.987   4.531  1.00  0.00    -0.204 NA
HETATM   23  C   UNL     1      43.630 -17.432   5.237  1.00  0.00     0.171 A 
HETATM   24  C   UNL     1      44.221 -16.785   6.299  1.00  0.00     0.099 A 
HETATM   25  N   UNL     1      44.338 -18.619   5.066  1.00  0.00    -0.215 N 
HETATM   26  C   UNL     1      43.743 -15.493   6.694  1.00  0.00     0.263 A 
HETATM   27  C   UNL     1      45.202 -17.649   6.777  1.00  0.00     0.160 A 
HETATM   28  O   UNL     1      44.203 -14.842   7.623  1.00  0.00    -0.267 OA
HETATM   29  N   UNL     1      42.686 -15.063   5.923  1.00  0.00    -0.301 N 
HETATM   30  H   UNL     1      42.285 -14.164   6.141  1.00  0.00     0.171 HD
HETATM   31  N   UNL     1      45.256 -18.782   6.073  1.00  0.00    -0.177 NA
BRANCH  25  32
HETATM   32  C   UNL     1      44.246 -19.591   4.026  1.00  0.00     0.060 A 
HETATM   33  C   UNL     1      44.704 -20.905   4.204  1.00  0.00     0.034 A 
HETATM   34  C   UNL     1      44.560 -21.843   3.177  1.00  0.00     0.044 A 
HETATM   35  C   UNL     1      43.969 -21.467   1.977  1.00  0.00     0.116 A 
HETATM   36  F   UNL     1      43.844 -22.365   0.992  1.00  0.00    -0.206 F 
HETATM   37  C   UNL     1      43.512 -20.170   1.780  1.00  0.00     0.044 A 
HETATM   38  C   UNL     1      43.642 -19.232   2.807  1.00  0.00     0.034 A 
ENDBRANCH  25  32
ENDBRANCH  20  21
ENDBRANCH   1  20
TORSDOF 8
ENDMDL
MODEL 5
REMARK VINA RESULT:      -8.9      5.430     10.138
REMARK  8 active torsions:
REMARK  status: ('A' for Active; 'I' for Inactive)
REMARK    1  A    between atoms: C_2  and  O_3 
REMARK    2  A    between atoms: O_3  and  C_4 
REMARK    3  A    between atoms: C_4  and  C_5 
REMARK    4  A    between atoms: C_6  and  N_7 
REMARK       I    between atoms: N_7  and  C_8 
REMARK    5  A    between atoms: C_8  and  C_9 
REMARK    6  A    between atoms: C_9  and  S_10 
REMARK    7  A    between atoms: S_10  and  C_11 
REMARK    8  A    between atoms: N_18  and  C_19 
ROOT
HETATM    1  C   UNL     1      41.344 -15.974   0.708  1.00  0.00     0.185 C 
ENDROOT
BRANCH   1   2
HETATM    2  C   UNL     1      41.495 -14.522   0.279  1.00  0.00     0.232 C 
HETATM    3  N   UNL     1      41.922 -14.393  -1.035  1.00  0.00    -0.320 N 
HETATM    4  H   UNL     1      42.228 -15.230  -1.530  1.00  0.00     0.169 HD
HETATM    5  O   UNL     1      41.213 -13.615   1.057  1.00  0.00    -0.272 OA
BRANCH   3   6
HETATM    6  C   UNL     1      41.972 -13.226  -1.790  1.00  0.00     0.094 A 
HETATM    7  C   UNL     1      41.263 -12.972  -2.963  1.00  0.00     0.080 A 
HETATM    8  C   UNL     1      41.552 -11.636  -3.459  1.00  0.00    -0.026 A 
HETATM    9  C   UNL     1      42.400 -10.956  -2.606  1.00  0.00    -0.008 A 
HETATM   10  C   UNL     1      40.981 -10.965  -4.681  1.00  0.00     0.041 C 
HETATM   11  S   UNL     1      42.917 -11.904  -1.304  1.00  0.00    -0.075 SA
HETATM   12  C   UNL     1      42.856  -9.540  -2.773  1.00  0.00     0.047 C 
HETATM   13  C   UNL     1      41.926  -8.796  -3.740  1.00  0.00     0.005 C 
HETATM   14  C   UNL     1      41.666  -9.627  -5.002  1.00  0.00     0.005 C 
BRANCH   7  15
HETATM   15  C   UNL     1      40.342 -13.963  -3.532  1.00  0.00     0.296 C 
HETATM   16  O   UNL     1      40.720 -15.053  -3.950  1.00  0.00    -0.259 OA
BRANCH  15  17
HETATM   17  O   UNL     1      39.044 -13.552  -3.530  1.00  0.00    -0.318 OA
BRANCH  17  18
HETATM   18  C   UNL     1      38.140 -14.339  -2.745  1.00  0.00     0.174 C 
HETATM   19  C   UNL     1      37.227 -15.087  -3.697  1.00  0.00     0.034 C 
ENDBRANCH  17  18
ENDBRANCH  15  17
ENDBRANCH   7  15
ENDBRANCH   3   6
ENDBRANCH   1   2
BRANCH   1  20
HETATM   20  S   UNL     1      40.287 -16.102   2.181  1.00  0.00    -0.083 SA
BRANCH  20  21
HETATM   21  C   UNL     1      41.525 -16.146   3.388  1.00  0.00     0.171 A 
HETATM   22  N   UNL     1      42.156 -17.241   3.678  1.00  0.00    -0.204 NA
HETATM   23  C   UNL     1      43.066 -17.084   4.682  1.00  0.00     0.171 A 
HETATM   24  C   UNL     1      43.294 -15.925   5.389  1.00  0.00     0.099 A 
HETATM   25  N   UNL     1      43.924 -18.039   5.221  1.00  0.00    -0.215 N 
HETATM   26  C   UNL     1      42.589 -14.729   5.031  1.00  0.00     0.263 A 
HETATM   27  C   UNL     1      44.215 -16.253   6.379  1.00  0.00     0.160 A 
HETATM   28  O   UNL     1      42.724 -13.653   5.599  1.00  0.00    -0.267 OA
HETATM   29  N   UNL     1      41.718 -14.924   3.983  1.00  0.00    -0.301 N 
HETATM   30  H   UNL     1      41.176 -14.132   3.673  1.00  0.00     0.171 HD
HETATM   31  N   UNL     1      44.571 -17.539   6.323  1.00  0.00    -0.177 NA
BRANCH  25  32
HETATM   32  C   UNL     1      44.206 -19.363   4.774  1.00  0.00     0.060 A 
HETATM   33  C   UNL     1      44.396 -20.421   5.676  1.00  0.00     0.034 A 
HETATM   34  C   UNL     1      44.630 -21.715   5.201  1.00  0.00     0.044 A 
HETATM   35  C   UNL     1      44.684 -21.948   3.832  1.00  0.00     0.116 A 
HETATM   36  F   UNL     1      44.921 -23.187   3.382  1.00  0.00    -0.206 F 
HETATM   37  C   UNL     1      44.502 -20.914   2.923  1.00  0.00     0.044 A 
HETATM   38  C   UNL     1      44.255 -19.622   3.391  1.00  0.00     0.034 A 
ENDBRANCH  25  32
ENDBRANCH  20  21
ENDBRANCH   1  20
TORSDOF 8
ENDMDL
MODEL 6
REMARK VINA RESULT:      -8.8      4.252      7.609
REMARK  8 active torsions:
REMARK  status: ('A' for Active; 'I' for Inactive)
REMARK    1  A    between atoms: C_2  and  O_3 
REMARK    2  A    between atoms: O_3  and  C_4 
REMARK    3  A    between atoms: C_4  and  C_5 
REMARK    4  A    between atoms: C_6  and  N_7 
REMARK       I    between atoms: N_7  and  C_8 
REMARK    5  A    between atoms: C_8  and  C_9 
REMARK    6  A    between atoms: C_9  and  S_10 
REMARK    7  A    between atoms: S_10  and  C_11 
REMARK    8  A    between atoms: N_18  and  C_19 
ROOT
HETATM    1  C   UNL     1      41.092 -11.994   6.249  1.00  0.00     0.185 C 
ENDROOT
BRANCH   1   2
HETATM    2  C   UNL     1      42.051 -13.143   5.979  1.00  0.00     0.232 C 
HETATM    3  N   UNL     1      41.514 -14.104   5.135  1.00  0.00    -0.320 N 
HETATM    4  H   UNL     1      40.523 -14.043   4.899  1.00  0.00     0.169 HD
HETATM    5  O   UNL     1      43.180 -13.132   6.462  1.00  0.00    -0.272 OA
BRANCH   3   6
HETATM    6  C   UNL     1      42.183 -15.167   4.539  1.00  0.00     0.094 A 
HETATM    7  C   UNL     1      42.173 -16.493   4.969  1.00  0.00     0.080 A 
HETATM    8  C   UNL     1      42.969 -17.327   4.083  1.00  0.00    -0.026 A 
HETATM    9  C   UNL     1      43.470 -16.597   3.021  1.00  0.00    -0.008 A 
HETATM   10  C   UNL     1      43.200 -18.813   4.179  1.00  0.00     0.041 C 
HETATM   11  S   UNL     1      43.089 -14.952   3.120  1.00  0.00    -0.075 SA
HETATM   12  C   UNL     1      44.277 -17.147   1.887  1.00  0.00     0.047 C 
HETATM   13  C   UNL     1      44.103 -18.668   1.802  1.00  0.00     0.005 C 
HETATM   14  C   UNL     1      44.256 -19.317   3.182  1.00  0.00     0.005 C 
BRANCH   7  15
HETATM   15  C   UNL     1      41.405 -16.911   6.147  1.00  0.00     0.296 C 
HETATM   16  O   UNL     1      40.242 -16.565   6.335  1.00  0.00    -0.259 OA
BRANCH  15  17
HETATM   17  O   UNL     1      42.107 -17.722   6.985  1.00  0.00    -0.318 OA
BRANCH  17  18
HETATM   18  C   UNL     1      43.135 -17.086   7.754  1.00  0.00     0.174 C 
HETATM   19  C   UNL     1      44.178 -18.135   8.092  1.00  0.00     0.034 C 
ENDBRANCH  17  18
ENDBRANCH  15  17
ENDBRANCH   7  15
ENDBRANCH   3   6
ENDBRANCH   1   2
BRANCH   1  20
HETATM   20  S   UNL     1      41.366 -10.637   5.072  1.00  0.00    -0.083 SA
BRANCH  20  21
HETATM   21  C   UNL     1      40.102 -11.005   3.950  1.00  0.00     0.171 A 
HETATM   22  N   UNL     1      40.152 -12.054   3.188  1.00  0.00    -0.204 NA
HETATM   23  C   UNL     1      39.085 -12.152   2.344  1.00  0.00     0.171 A 
HETATM   24  C   UNL     1      38.064 -11.237   2.226  1.00  0.00     0.099 A 
HETATM   25  N   UNL     1      38.812 -13.156   1.418  1.00  0.00    -0.215 N 
HETATM   26  C   UNL     1      38.034 -10.096   3.093  1.00  0.00     0.263 A 
HETATM   27  C   UNL     1      37.267 -11.683   1.175  1.00  0.00     0.160 A 
HETATM   28  O   UNL     1      37.169  -9.230   3.064  1.00  0.00    -0.267 OA
HETATM   29  N   UNL     1      39.103 -10.065   3.961  1.00  0.00    -0.301 N 
HETATM   30  H   UNL     1      39.160  -9.289   4.602  1.00  0.00     0.171 HD
HETATM   31  N   UNL     1      37.730 -12.817   0.644  1.00  0.00    -0.177 NA
BRANCH  25  32
HETATM   32  C   UNL     1      39.459 -14.411   1.221  1.00  0.00     0.060 A 
HETATM   33  C   UNL     1      40.354 -14.620   0.161  1.00  0.00     0.034 A 
HETATM   34  C   UNL     1      41.002 -15.852   0.023  1.00  0.00     0.044 A 
HETATM   35  C   UNL     1      40.749 -16.871   0.933  1.00  0.00     0.116 A 
HETATM   36  F   UNL     1      41.363 -18.052   0.788  1.00  0.00    -0.206 F 
HETATM   37  C   UNL     1      39.864 -16.685   1.986  1.00  0.00     0.044 A 
HETATM   38  C   UNL     1      39.223 -15.453   2.137  1.00  0.00     0.034 A 
ENDBRANCH  25  32
ENDBRANCH  20  21
ENDBRANCH   1  20
TORSDOF 8
ENDMDL
MODEL 7
REMARK VINA RESULT:      -8.8      3.009      8.572
REMARK  8 active torsions:
REMARK  status: ('A' for Active; 'I' for Inactive)
REMARK    1  A    between atoms: C_2  and  O_3 
REMARK    2  A    between atoms: O_3  and  C_4 
REMARK    3  A    between atoms: C_4  and  C_5 
REMARK    4  A    between atoms: C_6  and  N_7 
REMARK       I    between atoms: N_7  and  C_8 
REMARK    5  A    between atoms: C_8  and  C_9 
REMARK    6  A    between atoms: C_9  and  S_10 
REMARK    7  A    between atoms: S_10  and  C_11 
REMARK    8  A    between atoms: N_18  and  C_19 
ROOT
HETATM    1  C   UNL     1      40.587 -13.381   5.223  1.00  0.00     0.185 C 
ENDROOT
BRANCH   1   2
HETATM    2  C   UNL     1      41.701 -14.298   4.741  1.00  0.00     0.232 C 
HETATM    3  N   UNL     1      41.381 -15.642   4.864  1.00  0.00    -0.320 N 
HETATM    4  H   UNL     1      40.535 -15.895   5.376  1.00  0.00     0.169 HD
HETATM    5  O   UNL     1      42.731 -13.823   4.272  1.00  0.00    -0.272 OA
BRANCH   3   6
HETATM    6  C   UNL     1      42.084 -16.724   4.345  1.00  0.00     0.094 A 
HETATM    7  C   UNL     1      43.022 -17.499   5.023  1.00  0.00     0.080 A 
HETATM    8  C   UNL     1      43.532 -18.557   4.165  1.00  0.00    -0.026 A 
HETATM    9  C   UNL     1      42.907 -18.548   2.932  1.00  0.00    -0.008 A 
HETATM   10  C   UNL     1      44.540 -19.620   4.515  1.00  0.00     0.041 C 
HETATM   11  S   UNL     1      41.816 -17.267   2.760  1.00  0.00    -0.075 SA
HETATM   12  C   UNL     1      43.139 -19.532   1.828  1.00  0.00     0.047 C 
HETATM   13  C   UNL     1      43.806 -20.798   2.380  1.00  0.00     0.005 C 
HETATM   14  C   UNL     1      44.983 -20.446   3.296  1.00  0.00     0.005 C 
BRANCH   7  15
HETATM   15  C   UNL     1      43.364 -17.237   6.425  1.00  0.00     0.296 C 
HETATM   16  O   UNL     1      42.775 -17.772   7.360  1.00  0.00    -0.259 OA
BRANCH  15  17
HETATM   17  O   UNL     1      44.397 -16.363   6.571  1.00  0.00    -0.318 OA
BRANCH  17  18
HETATM   18  C   UNL     1      44.113 -15.178   7.326  1.00  0.00     0.174 C 
HETATM   19  C   UNL     1      45.087 -14.103   6.886  1.00  0.00     0.034 C 
ENDBRANCH  17  18
ENDBRANCH  15  17
ENDBRANCH   7  15
ENDBRANCH   3   6
ENDBRANCH   1   2
BRANCH   1  20
HETATM   20  S   UNL     1      40.811 -11.699   4.572  1.00  0.00    -0.083 SA
BRANCH  20  21
HETATM   21  C   UNL     1      40.497 -10.813   6.023  1.00  0.00     0.171 A 
HETATM   22  N   UNL     1      41.177 -11.020   7.109  1.00  0.00    -0.204 NA
HETATM   23  C   UNL     1      40.757 -10.254   8.156  1.00  0.00     0.171 A 
HETATM   24  C   UNL     1      39.693  -9.381   8.141  1.00  0.00     0.099 A 
HETATM   25  N   UNL     1      41.276 -10.207   9.448  1.00  0.00    -0.215 N 
HETATM   26  C   UNL     1      38.972  -9.167   6.920  1.00  0.00     0.263 A 
HETATM   27  C   UNL     1      39.562  -8.911   9.444  1.00  0.00     0.160 A 
HETATM   28  O   UNL     1      38.016  -8.411   6.807  1.00  0.00    -0.267 OA
HETATM   29  N   UNL     1      39.463  -9.923   5.879  1.00  0.00    -0.301 N 
HETATM   30  H   UNL     1      39.005  -9.836   4.985  1.00  0.00     0.171 HD
HETATM   31  N   UNL     1      40.481  -9.435  10.259  1.00  0.00    -0.177 NA
BRANCH  25  32
HETATM   32  C   UNL     1      42.463 -10.797   9.973  1.00  0.00     0.060 A 
HETATM   33  C   UNL     1      42.528 -11.271  11.292  1.00  0.00     0.034 A 
HETATM   34  C   UNL     1      43.696 -11.882  11.760  1.00  0.00     0.044 A 
HETATM   35  C   UNL     1      44.794 -12.009  10.918  1.00  0.00     0.116 A 
HETATM   36  F   UNL     1      45.914 -12.584  11.375  1.00  0.00    -0.206 F 
HETATM   37  C   UNL     1      44.750 -11.543   9.610  1.00  0.00     0.044 A 
HETATM   38  C   UNL     1      43.582 -10.943   9.133  1.00  0.00     0.034 A 
ENDBRANCH  25  32
ENDBRANCH  20  21
ENDBRANCH   1  20
TORSDOF 8
ENDMDL
MODEL 8
REMARK VINA RESULT:      -8.7      5.300      9.408
REMARK  8 active torsions:
REMARK  status: ('A' for Active; 'I' for Inactive)
REMARK    1  A    between atoms: C_2  and  O_3 
REMARK    2  A    between atoms: O_3  and  C_4 
REMARK    3  A    between atoms: C_4  and  C_5 
REMARK    4  A    between atoms: C_6  and  N_7 
REMARK       I    between atoms: N_7  and  C_8 
REMARK    5  A    between atoms: C_8  and  C_9 
REMARK    6  A    between atoms: C_9  and  S_10 
REMARK    7  A    between atoms: S_10  and  C_11 
REMARK    8  A    between atoms: N_18  and  C_19 
ROOT
HETATM    1  C   UNL     1      40.637 -13.721   2.382  1.00  0.00     0.185 C 
ENDROOT
BRANCH   1   2
HETATM    2  C   UNL     1      41.810 -14.643   2.681  1.00  0.00     0.232 C 
HETATM    3  N   UNL     1      41.412 -15.937   2.983  1.00  0.00    -0.320 N 
HETATM    4  H   UNL     1      40.417 -16.119   3.122  1.00  0.00     0.169 HD
HETATM    5  O   UNL     1      42.961 -14.222   2.605  1.00  0.00    -0.272 OA
BRANCH   3   6
HETATM    6  C   UNL     1      42.225 -17.057   3.111  1.00  0.00     0.094 A 
HETATM    7  C   UNL     1      42.820 -17.515   4.285  1.00  0.00     0.080 A 
HETATM    8  C   UNL     1      43.581 -18.729   4.038  1.00  0.00    -0.026 A 
HETATM    9  C   UNL     1      43.460 -19.137   2.723  1.00  0.00    -0.008 A 
HETATM   10  C   UNL     1      44.354 -19.550   5.036  1.00  0.00     0.041 C 
HETATM   11  S   UNL     1      42.551 -18.063   1.785  1.00  0.00    -0.075 SA
HETATM   12  C   UNL     1      44.058 -20.378   2.135  1.00  0.00     0.047 C 
HETATM   13  C   UNL     1      44.433 -21.363   3.249  1.00  0.00     0.005 C 
HETATM   14  C   UNL     1      45.194 -20.655   4.376  1.00  0.00     0.005 C 
BRANCH   7  15
HETATM   15  C   UNL     1      42.623 -16.823   5.565  1.00  0.00     0.296 C 
HETATM   16  O   UNL     1      41.547 -16.820   6.155  1.00  0.00    -0.259 OA
BRANCH  15  17
HETATM   17  O   UNL     1      43.749 -16.210   6.023  1.00  0.00    -0.318 OA
BRANCH  17  18
HETATM   18  C   UNL     1      43.725 -14.778   6.023  1.00  0.00     0.174 C 
HETATM   19  C   UNL     1      44.787 -14.296   6.993  1.00  0.00     0.034 C 
ENDBRANCH  17  18
ENDBRANCH  15  17
ENDBRANCH   7  15
ENDBRANCH   3   6
ENDBRANCH   1   2
BRANCH   1  20
HETATM   20  S   UNL     1      41.107 -11.983   2.627  1.00  0.00    -0.083 SA
BRANCH  20  21
HETATM   21  C   UNL     1      41.529 -11.593   0.996  1.00  0.00     0.171 A 
HETATM   22  N   UNL     1      41.222 -12.375   0.007  1.00  0.00    -0.204 NA
HETATM   23  C   UNL     1      41.674 -11.918  -1.195  1.00  0.00     0.171 A 
HETATM   24  C   UNL     1      42.431 -10.786  -1.394  1.00  0.00     0.099 A 
HETATM   25  N   UNL     1      41.502 -12.493  -2.453  1.00  0.00    -0.215 N 
HETATM   26  C   UNL     1      42.740  -9.937  -0.281  1.00  0.00     0.263 A 
HETATM   27  C   UNL     1      42.756 -10.773  -2.748  1.00  0.00     0.160 A 
HETATM   28  O   UNL     1      43.404  -8.912  -0.358  1.00  0.00    -0.267 OA
HETATM   29  N   UNL     1      42.222 -10.412   0.903  1.00  0.00    -0.301 N 
HETATM   30  H   UNL     1      42.401  -9.876   1.738  1.00  0.00     0.171 HD
HETATM   31  N   UNL     1      42.242 -11.822  -3.394  1.00  0.00    -0.177 NA
BRANCH  25  32
HETATM   32  C   UNL     1      40.683 -13.592  -2.845  1.00  0.00     0.060 A 
HETATM   33  C   UNL     1      39.365 -13.406  -3.290  1.00  0.00     0.034 A 
HETATM   34  C   UNL     1      38.605 -14.504  -3.707  1.00  0.00     0.044 A 
HETATM   35  C   UNL     1      39.156 -15.779  -3.670  1.00  0.00     0.116 A 
HETATM   36  F   UNL     1      38.419 -16.828  -4.058  1.00  0.00    -0.206 F 
HETATM   37  C   UNL     1      40.457 -15.983  -3.229  1.00  0.00     0.044 A 
HETATM   38  C   UNL     1      41.225 -14.890  -2.824  1.00  0.00     0.034 A 
ENDBRANCH  25  32
ENDBRANCH  20  21
ENDBRANCH   1  20
TORSDOF 8
ENDMDL
MODEL 9
REMARK VINA RESULT:      -8.7      3.412      8.799
REMARK  8 active torsions:
REMARK  status: ('A' for Active; 'I' for Inactive)
REMARK    1  A    between atoms: C_2  and  O_3 
REMARK    2  A    between atoms: O_3  and  C_4 
REMARK    3  A    between atoms: C_4  and  C_5 
REMARK    4  A    between atoms: C_6  and  N_7 
REMARK       I    between atoms: N_7  and  C_8 
REMARK    5  A    between atoms: C_8  and  C_9 
REMARK    6  A    between atoms: C_9  and  S_10 
REMARK    7  A    between atoms: S_10  and  C_11 
REMARK    8  A    between atoms: N_18  and  C_19 
ROOT
HETATM    1  C   UNL     1      41.540 -14.312   3.029  1.00  0.00     0.185 C 
ENDROOT
BRANCH   1   2
HETATM    2  C   UNL     1      41.691 -15.825   3.003  1.00  0.00     0.232 C 
HETATM    3  N   UNL     1      43.011 -16.235   3.113  1.00  0.00    -0.320 N 
HETATM    4  H   UNL     1      43.745 -15.529   3.053  1.00  0.00     0.169 HD
HETATM    5  O   UNL     1      40.698 -16.544   2.928  1.00  0.00    -0.272 OA
BRANCH   3   6
HETATM    6  C   UNL     1      43.475 -17.531   3.315  1.00  0.00     0.094 A 
HETATM    7  C   UNL     1      43.677 -18.151   4.547  1.00  0.00     0.080 A 
HETATM    8  C   UNL     1      44.146 -19.515   4.365  1.00  0.00    -0.026 A 
HETATM    9  C   UNL     1      44.206 -19.851   3.025  1.00  0.00    -0.008 A 
HETATM   10  C   UNL     1      44.464 -20.529   5.432  1.00  0.00     0.041 C 
HETATM   11  S   UNL     1      43.810 -18.559   2.008  1.00  0.00    -0.075 SA
HETATM   12  C   UNL     1      44.585 -21.191   2.477  1.00  0.00     0.047 C 
HETATM   13  C   UNL     1      44.461 -22.263   3.567  1.00  0.00     0.005 C 
HETATM   14  C   UNL     1      45.121 -21.800   4.871  1.00  0.00     0.005 C 
BRANCH   7  15
HETATM   15  C   UNL     1      43.395 -17.459   5.810  1.00  0.00     0.296 C 
HETATM   16  O   UNL     1      42.513 -17.825   6.580  1.00  0.00    -0.259 OA
BRANCH  15  17
HETATM   17  O   UNL     1      44.215 -16.396   6.034  1.00  0.00    -0.318 OA
BRANCH  17  18
HETATM   18  C   UNL     1      43.901 -15.594   7.179  1.00  0.00     0.174 C 
HETATM   19  C   UNL     1      44.771 -14.354   7.131  1.00  0.00     0.034 C 
ENDBRANCH  17  18
ENDBRANCH  15  17
ENDBRANCH   7  15
ENDBRANCH   3   6
ENDBRANCH   1   2
BRANCH   1  20
HETATM   20  S   UNL     1      42.802 -13.558   4.097  1.00  0.00    -0.083 SA
BRANCH  20  21
HETATM   21  C   UNL     1      41.911 -12.169   4.614  1.00  0.00     0.171 A 
HETATM   22  N   UNL     1      41.733 -11.903   5.871  1.00  0.00    -0.204 NA
HETATM   23  C   UNL     1      40.973 -10.790   6.079  1.00  0.00     0.171 A 
HETATM   24  C   UNL     1      40.381 -10.023   5.100  1.00  0.00     0.099 A 
HETATM   25  N   UNL     1      40.610 -10.212   7.293  1.00  0.00    -0.215 N 
HETATM   26  C   UNL     1      40.611 -10.339   3.721  1.00  0.00     0.263 A 
HETATM   27  C   UNL     1      39.618  -9.070   5.767  1.00  0.00     0.160 A 
HETATM   28  O   UNL     1      40.130  -9.717   2.782  1.00  0.00    -0.267 OA
HETATM   29  N   UNL     1      41.423 -11.439   3.560  1.00  0.00    -0.301 N 
HETATM   30  H   UNL     1      41.629 -11.732   2.617  1.00  0.00     0.171 HD
HETATM   31  N   UNL     1      39.706  -9.198   7.093  1.00  0.00    -0.177 NA
BRANCH  25  32
HETATM   32  C   UNL     1      41.061 -10.510   8.613  1.00  0.00     0.060 A 
HETATM   33  C   UNL     1      40.161 -10.792   9.652  1.00  0.00     0.034 A 
HETATM   34  C   UNL     1      40.641 -11.121  10.924  1.00  0.00     0.044 A 
HETATM   35  C   UNL     1      42.010 -11.158  11.157  1.00  0.00     0.116 A 
HETATM   36  F   UNL     1      42.463 -11.462  12.380  1.00  0.00    -0.206 F 
HETATM   37  C   UNL     1      42.916 -10.878  10.142  1.00  0.00     0.044 A 
HETATM   38  C   UNL     1      42.444 -10.561   8.867  1.00  0.00     0.034 A 
ENDBRANCH  25  32
ENDBRANCH  20  21
ENDBRANCH   1  20
TORSDOF 8
ENDMDL
MODEL 10
REMARK VINA RESULT:      -8.6      2.849      8.994
REMARK  8 active torsions:
REMARK  status: ('A' for Active; 'I' for Inactive)
REMARK    1  A    between atoms: C_2  and  O_3 
REMARK    2  A    between atoms: O_3  and  C_4 
REMARK    3  A    between atoms: C_4  and  C_5 
REMARK    4  A    between atoms: C_6  and  N_7 
REMARK       I    between atoms: N_7  and  C_8 
REMARK    5  A    between atoms: C_8  and  C_9 
REMARK    6  A    between atoms: C_9  and  S_10 
REMARK    7  A    between atoms: S_10  and  C_11 
REMARK    8  A    between atoms: N_18  and  C_19 
ROOT
HETATM    1  C   UNL     1      39.977 -13.750   5.373  1.00  0.00     0.185 C 
ENDROOT
BRANCH   1   2
HETATM    2  C   UNL     1      41.116 -14.756   5.407  1.00  0.00     0.232 C 
HETATM    3  N   UNL     1      40.769 -15.980   4.853  1.00  0.00    -0.320 N 
HETATM    4  H   UNL     1      39.790 -16.145   4.618  1.00  0.00     0.169 HD
HETATM    5  O   UNL     1      42.211 -14.434   5.861  1.00  0.00    -0.272 OA
BRANCH   3   6
HETATM    6  C   UNL     1      41.620 -17.038   4.553  1.00  0.00     0.094 A 
HETATM    7  C   UNL     1      41.894 -17.542   3.283  1.00  0.00     0.080 A 
HETATM    8  C   UNL     1      42.850 -18.635   3.359  1.00  0.00    -0.026 A 
HETATM    9  C   UNL     1      43.276 -18.840   4.658  1.00  0.00    -0.008 A 
HETATM   10  C   UNL     1      43.424 -19.436   2.219  1.00  0.00     0.041 C 
HETATM   11  S   UNL     1      42.497 -17.832   5.769  1.00  0.00    -0.075 SA
HETATM   12  C   UNL     1      44.303 -19.839   5.092  1.00  0.00     0.047 C 
HETATM   13  C   UNL     1      45.145 -20.289   3.891  1.00  0.00     0.005 C 
HETATM   14  C   UNL     1      44.253 -20.639   2.695  1.00  0.00     0.005 C 
BRANCH   7  15
HETATM   15  C   UNL     1      41.284 -16.963   2.081  1.00  0.00     0.296 C 
HETATM   16  O   UNL     1      40.815 -17.654   1.181  1.00  0.00    -0.259 OA
BRANCH  15  17
HETATM   17  O   UNL     1      41.282 -15.602   2.081  1.00  0.00    -0.318 OA
BRANCH  17  18
HETATM   18  C   UNL     1      40.326 -14.978   1.215  1.00  0.00     0.174 C 
HETATM   19  C   UNL     1      38.996 -14.940   1.941  1.00  0.00     0.034 C 
ENDBRANCH  17  18
ENDBRANCH  15  17
ENDBRANCH   7  15
ENDBRANCH   3   6
ENDBRANCH   1   2
BRANCH   1  20
HETATM   20  S   UNL     1      40.511 -12.200   4.589  1.00  0.00    -0.083 SA
BRANCH  20  21
HETATM   21  C   UNL     1      40.295 -11.137   5.937  1.00  0.00     0.171 A 
HETATM   22  N   UNL     1      40.999 -11.260   7.020  1.00  0.00    -0.204 NA
HETATM   23  C   UNL     1      40.657 -10.357   7.983  1.00  0.00     0.171 A 
HETATM   24  C   UNL     1      39.644  -9.429   7.895  1.00  0.00     0.099 A 
HETATM   25  N   UNL     1      41.220 -10.194   9.247  1.00  0.00    -0.215 N 
HETATM   26  C   UNL     1      38.896  -9.312   6.678  1.00  0.00     0.263 A 
HETATM   27  C   UNL     1      39.583  -8.807   9.139  1.00  0.00     0.160 A 
HETATM   28  O   UNL     1      37.980  -8.519   6.504  1.00  0.00    -0.267 OA
HETATM   29  N   UNL     1      39.309 -10.209   5.718  1.00  0.00    -0.301 N 
HETATM   30  H   UNL     1      38.828 -10.197   4.832  1.00  0.00     0.171 HD
HETATM   31  N   UNL     1      40.497  -9.290   9.984  1.00  0.00    -0.177 NA
BRANCH  25  32
HETATM   32  C   UNL     1      42.389 -10.790   9.805  1.00  0.00     0.060 A 
HETATM   33  C   UNL     1      42.464 -11.134  11.163  1.00  0.00     0.034 A 
HETATM   34  C   UNL     1      43.611 -11.756  11.667  1.00  0.00     0.044 A 
HETATM   35  C   UNL     1      44.680 -12.023  10.820  1.00  0.00     0.116 A 
HETATM   36  F   UNL     1      45.780 -12.607  11.310  1.00  0.00    -0.206 F 
HETATM   37  C   UNL     1      44.626 -11.687   9.473  1.00  0.00     0.044 A 
HETATM   38  C   UNL     1      43.479 -11.078   8.961  1.00  0.00     0.034 A 
ENDBRANCH  25  32
ENDBRANCH  20  21
ENDBRANCH   1  20
TORSDOF 8
ENDMDL
