MODEL 1
REMARK VINA RESULT:     -10.0      0.000      0.000
REMARK  6 active torsions:
REMARK  status: ('A' for Active; 'I' for Inactive)
REMARK    1  A    between atoms: C_3  and  C_4 
REMARK    2  A    between atoms: C_4  and  C_5 
REMARK       I    between atoms: C_5  and  N_6 
REMARK    3  A    between atoms: N_6  and  C_7 
REMARK    4  A    between atoms: C_7  and  C_8 
REMARK    5  A    between atoms: C_8  and  C_9 
REMARK    6  A    between atoms: C_28  and  O_29 
ROOT
HETATM    1  C   UNL     1      43.606 -14.954   6.318  1.00  0.00     0.222 C 
HETATM    2  N   UNL     1      44.098 -14.573   7.546  1.00  0.00    -0.360 N 
HETATM    3  O   UNL     1      43.917 -14.399   5.266  1.00  0.00    -0.273 OA
HETATM    4  H   UNL     1      43.880 -15.131   8.369  1.00  0.00     0.162 HD
ENDROOT
BRANCH   1   5
HETATM    5  C   UNL     1      42.629 -16.114   6.349  1.00  0.00     0.148 C 
BRANCH   5   6
HETATM    6  C   UNL     1      43.169 -17.286   5.573  1.00  0.00     0.033 C 
HETATM    7  C   UNL     1      42.854 -17.594   4.298  1.00  0.00    -0.036 C 
HETATM    8  C   UNL     1      41.948 -16.752   3.435  1.00  0.00     0.050 C 
HETATM    9  C   UNL     1      43.400 -18.833   3.707  1.00  0.00     0.005 A 
HETATM   10  C   UNL     1      44.082 -19.739   4.525  1.00  0.00     0.099 A 
HETATM   11  C   UNL     1      43.224 -19.182   2.362  1.00  0.00     0.017 A 
HETATM   12  O   UNL     1      44.387 -19.387   5.858  1.00  0.00    -0.274 OA
HETATM   13  C   UNL     1      44.527 -20.998   4.075  1.00  0.00     0.006 A 
HETATM   14  C   UNL     1      44.101 -18.130   6.359  1.00  0.00     0.295 C 
HETATM   15  O   UNL     1      44.563 -17.746   7.432  1.00  0.00    -0.259 OA
HETATM   16  C   UNL     1      45.200 -21.960   5.013  1.00  0.00     0.054 C 
HETATM   17  C   UNL     1      44.342 -21.296   2.722  1.00  0.00     0.074 A 
HETATM   18  C   UNL     1      43.701 -20.400   1.872  1.00  0.00     0.038 A 
BRANCH  17  19
HETATM   19  O   UNL     1      44.769 -22.457   2.144  1.00  0.00    -0.360 OA
HETATM   20  H   UNL     1      45.420 -22.259   1.453  1.00  0.00     0.217 HD
ENDBRANCH  17  19
ENDBRANCH   5   6
ENDBRANCH   1   5
BRANCH   2  21
HETATM   21  C   UNL     1      44.959 -13.408   7.669  1.00  0.00     0.127 C 
BRANCH  21  22
HETATM   22  C   UNL     1      44.769 -12.703   9.016  1.00  0.00     0.060 C 
BRANCH  22  23
HETATM   23  C   UNL     1      43.697 -11.659   8.987  1.00  0.00    -0.029 A 
HETATM   24  C   UNL     1      43.299 -10.781  10.044  1.00  0.00    -0.000 A 
HETATM   25  C   UNL     1      42.238 -10.006   9.567  1.00  0.00     0.043 A 
HETATM   26  C   UNL     1      43.736 -10.575  11.369  1.00  0.00     0.038 A 
HETATM   27  C   UNL     1      41.588  -9.042  10.345  1.00  0.00     0.032 A 
HETATM   28  N   UNL     1      42.007 -10.393   8.268  1.00  0.00    -0.365 N 
HETATM   29  C   UNL     1      42.038  -8.858  11.655  1.00  0.00     0.026 A 
HETATM   30  C   UNL     1      43.096  -9.613  12.155  1.00  0.00     0.035 A 
HETATM   31 CL   UNL     1      43.626  -9.358  13.775  1.00  0.00    -0.084 Cl
HETATM   32  H   UNL     1      41.292 -10.003   7.669  1.00  0.00     0.165 HD
HETATM   33  C   UNL     1      42.878 -11.384   7.909  1.00  0.00     0.096 A 
ENDBRANCH  22  23
ENDBRANCH  21  22
ENDBRANCH   2  21
TORSDOF 6
ENDMDL
MODEL 2
REMARK VINA RESULT:      -9.9      1.312      1.666
REMARK  6 active torsions:
REMARK  status: ('A' for Active; 'I' for Inactive)
REMARK    1  A    between atoms: C_3  and  C_4 
REMARK    2  A    between atoms: C_4  and  C_5 
REMARK       I    between atoms: C_5  and  N_6 
REMARK    3  A    between atoms: N_6  and  C_7 
REMARK    4  A    between atoms: C_7  and  C_8 
REMARK    5  A    between atoms: C_8  and  C_9 
REMARK    6  A    between atoms: C_28  and  O_29 
ROOT
HETATM    1  C   UNL     1      43.465 -15.259   6.171  1.00  0.00     0.222 C 
HETATM    2  N   UNL     1      44.054 -14.901   7.364  1.00  0.00    -0.360 N 
HETATM    3  O   UNL     1      43.658 -14.656   5.118  1.00  0.00    -0.273 OA
HETATM    4  H   UNL     1      43.933 -15.495   8.181  1.00  0.00     0.162 HD
ENDROOT
BRANCH   1   5
HETATM    5  C   UNL     1      42.536 -16.455   6.247  1.00  0.00     0.148 C 
BRANCH   5   6
HETATM    6  C   UNL     1      43.111 -17.624   5.492  1.00  0.00     0.033 C 
HETATM    7  C   UNL     1      42.820 -17.954   4.217  1.00  0.00    -0.036 C 
HETATM    8  C   UNL     1      41.908 -17.142   3.332  1.00  0.00     0.050 C 
HETATM    9  C   UNL     1      43.400 -19.188   3.648  1.00  0.00     0.005 A 
HETATM   10  C   UNL     1      44.091 -20.069   4.486  1.00  0.00     0.099 A 
HETATM   11  C   UNL     1      43.250 -19.557   2.305  1.00  0.00     0.017 A 
HETATM   12  O   UNL     1      44.370 -19.695   5.818  1.00  0.00    -0.274 OA
HETATM   13  C   UNL     1      44.569 -21.323   4.057  1.00  0.00     0.006 A 
HETATM   14  C   UNL     1      44.050 -18.439   6.301  1.00  0.00     0.295 C 
HETATM   15  O   UNL     1      44.490 -18.033   7.374  1.00  0.00    -0.259 OA
HETATM   16  C   UNL     1      45.249 -22.259   5.014  1.00  0.00     0.054 C 
HETATM   17  C   UNL     1      44.408 -21.642   2.705  1.00  0.00     0.074 A 
HETATM   18  C   UNL     1      43.760 -20.769   1.836  1.00  0.00     0.038 A 
BRANCH  17  19
HETATM   19  O   UNL     1      44.868 -22.799   2.147  1.00  0.00    -0.360 OA
HETATM   20  H   UNL     1      44.424 -23.559   2.555  1.00  0.00     0.217 HD
ENDBRANCH  17  19
ENDBRANCH   5   6
ENDBRANCH   1   5
BRANCH   2  21
HETATM   21  C   UNL     1      44.882 -13.710   7.452  1.00  0.00     0.127 C 
BRANCH  21  22
HETATM   22  C   UNL     1      44.050 -12.464   7.775  1.00  0.00     0.060 C 
BRANCH  22  23
HETATM   23  C   UNL     1      44.361 -11.881   9.117  1.00  0.00    -0.029 A 
HETATM   24  C   UNL     1      43.516 -11.070   9.939  1.00  0.00    -0.000 A 
HETATM   25  C   UNL     1      44.243 -10.733  11.083  1.00  0.00     0.043 A 
HETATM   26  C   UNL     1      42.198 -10.584   9.815  1.00  0.00     0.038 A 
HETATM   27  C   UNL     1      43.727  -9.930  12.107  1.00  0.00     0.032 A 
HETATM   28  N   UNL     1      45.480 -11.322  10.965  1.00  0.00    -0.365 N 
HETATM   29  C   UNL     1      42.419  -9.458  11.959  1.00  0.00     0.026 A 
HETATM   30  C   UNL     1      41.669  -9.783  10.832  1.00  0.00     0.035 A 
HETATM   31 CL   UNL     1      40.059  -9.185  10.684  1.00  0.00    -0.084 Cl
HETATM   32  H   UNL     1      46.221 -11.247  11.648  1.00  0.00     0.165 HD
HETATM   33  C   UNL     1      45.561 -12.015   9.789  1.00  0.00     0.096 A 
ENDBRANCH  22  23
ENDBRANCH  21  22
ENDBRANCH   2  21
TORSDOF 6
ENDMDL
MODEL 3
REMARK VINA RESULT:      -9.4      4.819      6.616
REMARK  6 active torsions:
REMARK  status: ('A' for Active; 'I' for Inactive)
REMARK    1  A    between atoms: C_3  and  C_4 
REMARK    2  A    between atoms: C_4  and  C_5 
REMARK       I    between atoms: C_5  and  N_6 
REMARK    3  A    between atoms: N_6  and  C_7 
REMARK    4  A    between atoms: C_7  and  C_8 
REMARK    5  A    between atoms: C_8  and  C_9 
REMARK    6  A    between atoms: C_28  and  O_29 
ROOT
HETATM    1  C   UNL     1      42.060 -15.711   5.772  1.00  0.00     0.222 C 
HETATM    2  N   UNL     1      41.607 -14.539   5.207  1.00  0.00    -0.360 N 
HETATM    3  O   UNL     1      41.315 -16.544   6.283  1.00  0.00    -0.273 OA
HETATM    4  H   UNL     1      42.260 -13.934   4.714  1.00  0.00     0.162 HD
ENDROOT
BRANCH   1   5
HETATM    5  C   UNL     1      43.564 -15.901   5.735  1.00  0.00     0.148 C 
BRANCH   5   6
HETATM    6  C   UNL     1      43.918 -17.227   5.115  1.00  0.00     0.033 C 
HETATM    7  C   UNL     1      43.630 -17.604   3.852  1.00  0.00    -0.036 C 
HETATM    8  C   UNL     1      42.956 -16.706   2.845  1.00  0.00     0.050 C 
HETATM    9  C   UNL     1      43.965 -18.978   3.423  1.00  0.00     0.005 A 
HETATM   10  C   UNL     1      44.411 -19.902   4.373  1.00  0.00     0.099 A 
HETATM   11  C   UNL     1      43.810 -19.428   2.106  1.00  0.00     0.017 A 
HETATM   12  O   UNL     1      44.694 -19.474   5.688  1.00  0.00    -0.274 OA
HETATM   13  C   UNL     1      44.635 -21.262   4.078  1.00  0.00     0.006 A 
HETATM   14  C   UNL     1      44.622 -18.140   6.048  1.00  0.00     0.295 C 
HETATM   15  O   UNL     1      45.081 -17.737   7.114  1.00  0.00    -0.259 OA
HETATM   16  C   UNL     1      45.052 -22.227   5.150  1.00  0.00     0.054 C 
HETATM   17  C   UNL     1      44.480 -21.661   2.747  1.00  0.00     0.074 A 
HETATM   18  C   UNL     1      44.076 -20.757   1.769  1.00  0.00     0.038 A 
BRANCH  17  19
HETATM   19  O   UNL     1      44.713 -22.935   2.314  1.00  0.00    -0.360 OA
HETATM   20  H   UNL     1      44.526 -23.564   3.028  1.00  0.00     0.217 HD
ENDBRANCH  17  19
ENDBRANCH   5   6
ENDBRANCH   1   5
BRANCH   2  21
HETATM   21  C   UNL     1      40.198 -14.184   5.270  1.00  0.00     0.127 C 
BRANCH  21  22
HETATM   22  C   UNL     1      39.756 -13.397   4.032  1.00  0.00     0.060 C 
BRANCH  22  23
HETATM   23  C   UNL     1      39.966 -14.146   2.754  1.00  0.00    -0.029 A 
HETATM   24  C   UNL     1      40.670 -13.710   1.587  1.00  0.00    -0.000 A 
HETATM   25  C   UNL     1      40.573 -14.729   0.635  1.00  0.00     0.043 A 
HETATM   26  C   UNL     1      41.375 -12.538   1.245  1.00  0.00     0.038 A 
HETATM   27  C   UNL     1      41.139 -14.636  -0.641  1.00  0.00     0.032 A 
HETATM   28  N   UNL     1      39.846 -15.747   1.206  1.00  0.00    -0.365 N 
HETATM   29  C   UNL     1      41.832 -13.464  -0.957  1.00  0.00     0.026 A 
HETATM   30  C   UNL     1      41.948 -12.435  -0.026  1.00  0.00     0.035 A 
HETATM   31 CL   UNL     1      42.812 -11.004  -0.449  1.00  0.00    -0.084 Cl
HETATM   32  H   UNL     1      39.615 -16.617   0.745  1.00  0.00     0.165 HD
HETATM   33  C   UNL     1      39.478 -15.409   2.477  1.00  0.00     0.096 A 
ENDBRANCH  22  23
ENDBRANCH  21  22
ENDBRANCH   2  21
TORSDOF 6
ENDMDL
MODEL 4
REMARK VINA RESULT:      -9.4      6.273      8.246
REMARK  6 active torsions:
REMARK  status: ('A' for Active; 'I' for Inactive)
REMARK    1  A    between atoms: C_3  and  C_4 
REMARK    2  A    between atoms: C_4  and  C_5 
REMARK       I    between atoms: C_5  and  N_6 
REMARK    3  A    between atoms: N_6  and  C_7 
REMARK    4  A    between atoms: C_7  and  C_8 
REMARK    5  A    between atoms: C_8  and  C_9 
REMARK    6  A    between atoms: C_28  and  O_29 
ROOT
HETATM    1  C   UNL     1      41.605 -15.464   3.372  1.00  0.00     0.222 C 
HETATM    2  N   UNL     1      40.926 -15.053   2.246  1.00  0.00    -0.360 N 
HETATM    3  O   UNL     1      41.081 -15.553   4.480  1.00  0.00    -0.273 OA
HETATM    4  H   UNL     1      41.387 -15.092   1.340  1.00  0.00     0.162 HD
ENDROOT
BRANCH   1   5
HETATM    5  C   UNL     1      43.070 -15.791   3.153  1.00  0.00     0.148 C 
BRANCH   5   6
HETATM    6  C   UNL     1      43.302 -17.276   3.240  1.00  0.00     0.033 C 
HETATM    7  C   UNL     1      43.780 -17.934   4.316  1.00  0.00    -0.036 C 
HETATM    8  C   UNL     1      44.094 -17.266   5.632  1.00  0.00     0.050 C 
HETATM    9  C   UNL     1      44.038 -19.385   4.211  1.00  0.00     0.005 A 
HETATM   10  C   UNL     1      43.947 -20.007   2.961  1.00  0.00     0.099 A 
HETATM   11  C   UNL     1      44.426 -20.175   5.300  1.00  0.00     0.017 A 
HETATM   12  O   UNL     1      43.451 -19.285   1.854  1.00  0.00    -0.274 OA
HETATM   13  C   UNL     1      44.295 -21.355   2.746  1.00  0.00     0.006 A 
HETATM   14  C   UNL     1      42.971 -17.995   1.986  1.00  0.00     0.295 C 
HETATM   15  O   UNL     1      42.336 -17.451   1.084  1.00  0.00    -0.259 OA
HETATM   16  C   UNL     1      44.239 -21.958   1.371  1.00  0.00     0.054 C 
HETATM   17  C   UNL     1      44.663 -22.108   3.865  1.00  0.00     0.074 A 
HETATM   18  C   UNL     1      44.725 -21.529   5.129  1.00  0.00     0.038 A 
BRANCH  17  19
HETATM   19  O   UNL     1      44.975 -23.436   3.807  1.00  0.00    -0.360 OA
HETATM   20  H   UNL     1      45.927 -23.542   3.656  1.00  0.00     0.217 HD
ENDBRANCH  17  19
ENDBRANCH   5   6
ENDBRANCH   1   5
BRANCH   2  21
HETATM   21  C   UNL     1      39.545 -14.608   2.337  1.00  0.00     0.127 C 
BRANCH  21  22
HETATM   22  C   UNL     1      39.351 -13.229   1.697  1.00  0.00     0.060 C 
BRANCH  22  23
HETATM   23  C   UNL     1      40.436 -12.871   0.732  1.00  0.00    -0.029 A 
HETATM   24  C   UNL     1      40.658 -13.407  -0.576  1.00  0.00    -0.000 A 
HETATM   25  C   UNL     1      41.807 -12.798  -1.089  1.00  0.00     0.043 A 
HETATM   26  C   UNL     1      39.994 -14.362  -1.373  1.00  0.00     0.038 A 
HETATM   27  C   UNL     1      42.329 -13.096  -2.352  1.00  0.00     0.032 A 
HETATM   28  N   UNL     1      42.259 -11.919  -0.133  1.00  0.00    -0.365 N 
HETATM   29  C   UNL     1      41.654 -14.047  -3.122  1.00  0.00     0.026 A 
HETATM   30  C   UNL     1      40.505 -14.667  -2.639  1.00  0.00     0.035 A 
HETATM   31 CL   UNL     1      39.697 -15.834  -3.616  1.00  0.00    -0.084 Cl
HETATM   32  H   UNL     1      43.080 -11.338  -0.228  1.00  0.00     0.165 HD
HETATM   33  C   UNL     1      41.444 -11.954   0.963  1.00  0.00     0.096 A 
ENDBRANCH  22  23
ENDBRANCH  21  22
ENDBRANCH   2  21
TORSDOF 6
ENDMDL
MODEL 5
REMARK VINA RESULT:      -9.2      2.162      3.068
REMARK  6 active torsions:
REMARK  status: ('A' for Active; 'I' for Inactive)
REMARK    1  A    between atoms: C_3  and  C_4 
REMARK    2  A    between atoms: C_4  and  C_5 
REMARK       I    between atoms: C_5  and  N_6 
REMARK    3  A    between atoms: N_6  and  C_7 
REMARK    4  A    between atoms: C_7  and  C_8 
REMARK    5  A    between atoms: C_8  and  C_9 
REMARK    6  A    between atoms: C_28  and  O_29 
ROOT
HETATM    1  C   UNL     1      44.249 -13.767   6.733  1.00  0.00     0.222 C 
HETATM    2  N   UNL     1      44.364 -13.382   8.051  1.00  0.00    -0.360 N 
HETATM    3  O   UNL     1      45.156 -13.639   5.913  1.00  0.00    -0.273 OA
HETATM    4  H   UNL     1      43.615 -13.601   8.704  1.00  0.00     0.162 HD
ENDROOT
BRANCH   1   5
HETATM    5  C   UNL     1      42.904 -14.353   6.350  1.00  0.00     0.148 C 
BRANCH   5   6
HETATM    6  C   UNL     1      43.082 -15.588   5.508  1.00  0.00     0.033 C 
HETATM    7  C   UNL     1      43.545 -16.777   5.947  1.00  0.00    -0.036 C 
HETATM    8  C   UNL     1      43.894 -17.057   7.387  1.00  0.00     0.050 C 
HETATM    9  C   UNL     1      43.748 -17.869   4.972  1.00  0.00     0.005 A 
HETATM   10  C   UNL     1      43.623 -17.598   3.606  1.00  0.00     0.099 A 
HETATM   11  C   UNL     1      44.117 -19.168   5.343  1.00  0.00     0.017 A 
HETATM   12  O   UNL     1      43.144 -16.339   3.182  1.00  0.00    -0.274 OA
HETATM   13  C   UNL     1      43.919 -18.543   2.604  1.00  0.00     0.006 A 
HETATM   14  C   UNL     1      42.713 -15.386   4.086  1.00  0.00     0.295 C 
HETATM   15  O   UNL     1      42.090 -14.391   3.721  1.00  0.00    -0.259 OA
HETATM   16  C   UNL     1      43.829 -18.182   1.149  1.00  0.00     0.054 C 
HETATM   17  C   UNL     1      44.269 -19.831   3.022  1.00  0.00     0.074 A 
HETATM   18  C   UNL     1      44.364 -20.144   4.375  1.00  0.00     0.038 A 
BRANCH  17  19
HETATM   19  O   UNL     1      44.532 -20.855   2.158  1.00  0.00    -0.360 OA
HETATM   20  H   UNL     1      45.282 -21.376   2.486  1.00  0.00     0.217 HD
ENDBRANCH  17  19
ENDBRANCH   5   6
ENDBRANCH   1   5
BRANCH   2  21
HETATM   21  C   UNL     1      45.562 -12.709   8.523  1.00  0.00     0.127 C 
BRANCH  21  22
HETATM   22  C   UNL     1      45.230 -11.389   9.227  1.00  0.00     0.060 C 
BRANCH  22  23
HETATM   23  C   UNL     1      44.136 -11.521  10.239  1.00  0.00    -0.029 A 
HETATM   24  C   UNL     1      42.846 -10.904  10.222  1.00  0.00    -0.000 A 
HETATM   25  C   UNL     1      42.181 -11.291  11.388  1.00  0.00     0.043 A 
HETATM   26  C   UNL     1      42.180 -10.042   9.326  1.00  0.00     0.038 A 
HETATM   27  C   UNL     1      40.889 -10.859  11.710  1.00  0.00     0.032 A 
HETATM   28  N   UNL     1      43.032 -12.118  12.083  1.00  0.00    -0.365 N 
HETATM   29  C   UNL     1      40.251 -10.005  10.807  1.00  0.00     0.026 A 
HETATM   30  C   UNL     1      40.887  -9.606   9.634  1.00  0.00     0.035 A 
HETATM   31 CL   UNL     1      40.069  -8.553   8.542  1.00  0.00    -0.084 Cl
HETATM   32  H   UNL     1      42.818 -12.550  12.971  1.00  0.00     0.165 HD
HETATM   33  C   UNL     1      44.208 -12.264  11.402  1.00  0.00     0.096 A 
ENDBRANCH  22  23
ENDBRANCH  21  22
ENDBRANCH   2  21
TORSDOF 6
ENDMDL
MODEL 6
REMARK VINA RESULT:      -9.2      4.343      6.071
REMARK  6 active torsions:
REMARK  status: ('A' for Active; 'I' for Inactive)
REMARK    1  A    between atoms: C_3  and  C_4 
REMARK    2  A    between atoms: C_4  and  C_5 
REMARK       I    between atoms: C_5  and  N_6 
REMARK    3  A    between atoms: N_6  and  C_7 
REMARK    4  A    between atoms: C_7  and  C_8 
REMARK    5  A    between atoms: C_8  and  C_9 
REMARK    6  A    between atoms: C_28  and  O_29 
ROOT
HETATM    1  C   UNL     1      43.078 -15.405   6.502  1.00  0.00     0.222 C 
HETATM    2  N   UNL     1      42.137 -14.426   6.273  1.00  0.00    -0.360 N 
HETATM    3  O   UNL     1      44.288 -15.209   6.415  1.00  0.00    -0.273 OA
HETATM    4  H   UNL     1      41.154 -14.622   6.455  1.00  0.00     0.162 HD
ENDROOT
BRANCH   1   5
HETATM    5  C   UNL     1      42.513 -16.767   6.860  1.00  0.00     0.148 C 
BRANCH   5   6
HETATM    6  C   UNL     1      43.093 -17.834   5.970  1.00  0.00     0.033 C 
HETATM    7  C   UNL     1      42.797 -18.016   4.667  1.00  0.00    -0.036 C 
HETATM    8  C   UNL     1      41.873 -17.115   3.887  1.00  0.00     0.050 C 
HETATM    9  C   UNL     1      43.384 -19.170   3.955  1.00  0.00     0.005 A 
HETATM   10  C   UNL     1      44.087 -20.136   4.681  1.00  0.00     0.099 A 
HETATM   11  C   UNL     1      43.229 -19.380   2.579  1.00  0.00     0.017 A 
HETATM   12  O   UNL     1      44.371 -19.917   6.046  1.00  0.00    -0.274 OA
HETATM   13  C   UNL     1      44.573 -21.328   4.106  1.00  0.00     0.006 A 
HETATM   14  C   UNL     1      44.044 -18.729   6.674  1.00  0.00     0.295 C 
HETATM   15  O   UNL     1      44.487 -18.447   7.785  1.00  0.00    -0.259 OA
HETATM   16  C   UNL     1      45.267 -22.363   4.944  1.00  0.00     0.054 C 
HETATM   17  C   UNL     1      44.407 -21.487   2.727  1.00  0.00     0.074 A 
HETATM   18  C   UNL     1      43.746 -20.526   1.969  1.00  0.00     0.038 A 
BRANCH  17  19
HETATM   19  O   UNL     1      44.873 -22.568   2.035  1.00  0.00    -0.360 OA
HETATM   20  H   UNL     1      45.793 -22.415   1.769  1.00  0.00     0.217 HD
ENDBRANCH  17  19
ENDBRANCH   5   6
ENDBRANCH   1   5
BRANCH   2  21
HETATM   21  C   UNL     1      42.539 -13.105   5.819  1.00  0.00     0.127 C 
BRANCH  21  22
HETATM   22  C   UNL     1      42.548 -13.010   4.290  1.00  0.00     0.060 C 
BRANCH  22  23
HETATM   23  C   UNL     1      41.180 -12.859   3.702  1.00  0.00    -0.029 A 
HETATM   24  C   UNL     1      40.685 -13.412   2.479  1.00  0.00    -0.000 A 
HETATM   25  C   UNL     1      39.367 -12.975   2.325  1.00  0.00     0.043 A 
HETATM   26  C   UNL     1      41.237 -14.241   1.480  1.00  0.00     0.038 A 
HETATM   27  C   UNL     1      38.573 -13.316   1.224  1.00  0.00     0.032 A 
HETATM   28  N   UNL     1      39.071 -12.193   3.417  1.00  0.00    -0.365 N 
HETATM   29  C   UNL     1      39.143 -14.136   0.247  1.00  0.00     0.026 A 
HETATM   30  C   UNL     1      40.453 -14.591   0.376  1.00  0.00     0.035 A 
HETATM   31 CL   UNL     1      41.123 -15.603  -0.847  1.00  0.00    -0.084 Cl
HETATM   32  H   UNL     1      38.183 -11.737   3.574  1.00  0.00     0.165 HD
HETATM   33  C   UNL     1      40.151 -12.118   4.250  1.00  0.00     0.096 A 
ENDBRANCH  22  23
ENDBRANCH  21  22
ENDBRANCH   2  21
TORSDOF 6
ENDMDL
MODEL 7
REMARK VINA RESULT:      -9.2      5.791      7.722
REMARK  6 active torsions:
REMARK  status: ('A' for Active; 'I' for Inactive)
REMARK    1  A    between atoms: C_3  and  C_4 
REMARK    2  A    between atoms: C_4  and  C_5 
REMARK       I    between atoms: C_5  and  N_6 
REMARK    3  A    between atoms: N_6  and  C_7 
REMARK    4  A    between atoms: C_7  and  C_8 
REMARK    5  A    between atoms: C_8  and  C_9 
REMARK    6  A    between atoms: C_28  and  O_29 
ROOT
HETATM    1  C   UNL     1      41.702 -15.424   3.289  1.00  0.00     0.222 C 
HETATM    2  N   UNL     1      41.223 -14.731   2.199  1.00  0.00    -0.360 N 
HETATM    3  O   UNL     1      41.000 -15.739   4.247  1.00  0.00    -0.273 OA
HETATM    4  H   UNL     1      41.828 -14.583   1.394  1.00  0.00     0.162 HD
ENDROOT
BRANCH   1   5
HETATM    5  C   UNL     1      43.180 -15.764   3.235  1.00  0.00     0.148 C 
BRANCH   5   6
HETATM    6  C   UNL     1      43.385 -17.254   3.301  1.00  0.00     0.033 C 
HETATM    7  C   UNL     1      43.830 -17.937   4.375  1.00  0.00    -0.036 C 
HETATM    8  C   UNL     1      44.128 -17.298   5.708  1.00  0.00     0.050 C 
HETATM    9  C   UNL     1      44.067 -19.391   4.249  1.00  0.00     0.005 A 
HETATM   10  C   UNL     1      43.991 -19.990   2.987  1.00  0.00     0.099 A 
HETATM   11  C   UNL     1      44.419 -20.206   5.332  1.00  0.00     0.017 A 
HETATM   12  O   UNL     1      43.530 -19.241   1.883  1.00  0.00    -0.274 OA
HETATM   13  C   UNL     1      44.321 -21.340   2.756  1.00  0.00     0.006 A 
HETATM   14  C   UNL     1      43.068 -17.945   2.027  1.00  0.00     0.295 C 
HETATM   15  O   UNL     1      42.461 -17.376   1.123  1.00  0.00    -0.259 OA
HETATM   16  C   UNL     1      44.283 -21.918   1.370  1.00  0.00     0.054 C 
HETATM   17  C   UNL     1      44.653 -22.118   3.869  1.00  0.00     0.074 A 
HETATM   18  C   UNL     1      44.699 -21.562   5.144  1.00  0.00     0.038 A 
BRANCH  17  19
HETATM   19  O   UNL     1      44.945 -23.450   3.794  1.00  0.00    -0.360 OA
HETATM   20  H   UNL     1      45.697 -23.587   3.198  1.00  0.00     0.217 HD
ENDBRANCH  17  19
ENDBRANCH   5   6
ENDBRANCH   1   5
BRANCH   2  21
HETATM   21  C   UNL     1      39.852 -14.251   2.172  1.00  0.00     0.127 C 
BRANCH  21  22
HETATM   22  C   UNL     1      39.319 -14.141   0.739  1.00  0.00     0.060 C 
BRANCH  22  23
HETATM   23  C   UNL     1      40.402 -13.982  -0.280  1.00  0.00    -0.029 A 
HETATM   24  C   UNL     1      41.190 -12.818  -0.549  1.00  0.00    -0.000 A 
HETATM   25  C   UNL     1      42.048 -13.129  -1.606  1.00  0.00     0.043 A 
HETATM   26  C   UNL     1      41.248 -11.522   0.003  1.00  0.00     0.038 A 
HETATM   27  C   UNL     1      42.958 -12.212  -2.145  1.00  0.00     0.032 A 
HETATM   28  N   UNL     1      41.798 -14.434  -1.960  1.00  0.00    -0.365 N 
HETATM   29  C   UNL     1      42.997 -10.934  -1.582  1.00  0.00     0.026 A 
HETATM   30  C   UNL     1      42.156 -10.598  -0.525  1.00  0.00     0.035 A 
HETATM   31 CL   UNL     1      42.231  -9.012   0.147  1.00  0.00    -0.084 Cl
HETATM   32  H   UNL     1      42.272 -14.931  -2.702  1.00  0.00     0.165 HD
HETATM   33  C   UNL     1      40.813 -14.956  -1.170  1.00  0.00     0.096 A 
ENDBRANCH  22  23
ENDBRANCH  21  22
ENDBRANCH   2  21
TORSDOF 6
ENDMDL
MODEL 8
REMARK VINA RESULT:      -9.0      5.896      8.657
REMARK  6 active torsions:
REMARK  status: ('A' for Active; 'I' for Inactive)
REMARK    1  A    between atoms: C_3  and  C_4 
REMARK    2  A    between atoms: C_4  and  C_5 
REMARK       I    between atoms: C_5  and  N_6 
REMARK    3  A    between atoms: N_6  and  C_7 
REMARK    4  A    between atoms: C_7  and  C_8 
REMARK    5  A    between atoms: C_8  and  C_9 
REMARK    6  A    between atoms: C_28  and  O_29 
ROOT
HETATM    1  C   UNL     1      40.823 -13.767   3.866  1.00  0.00     0.222 C 
HETATM    2  N   UNL     1      39.807 -13.324   3.047  1.00  0.00    -0.360 N 
HETATM    3  O   UNL     1      41.916 -13.211   3.943  1.00  0.00    -0.273 OA
HETATM    4  H   UNL     1      38.892 -13.767   3.098  1.00  0.00     0.162 HD
ENDROOT
BRANCH   1   5
HETATM    5  C   UNL     1      40.503 -15.014   4.669  1.00  0.00     0.148 C 
BRANCH   5   6
HETATM    6  C   UNL     1      41.463 -16.124   4.333  1.00  0.00     0.033 C 
HETATM    7  C   UNL     1      41.450 -16.857   3.202  1.00  0.00    -0.036 C 
HETATM    8  C   UNL     1      40.490 -16.619   2.063  1.00  0.00     0.050 C 
HETATM    9  C   UNL     1      42.407 -17.975   3.063  1.00  0.00     0.005 A 
HETATM   10  C   UNL     1      43.179 -18.354   4.165  1.00  0.00     0.099 A 
HETATM   11  C   UNL     1      42.547 -18.722   1.887  1.00  0.00     0.017 A 
HETATM   12  O   UNL     1      43.162 -17.568   5.337  1.00  0.00    -0.274 OA
HETATM   13  C   UNL     1      44.024 -19.483   4.161  1.00  0.00     0.006 A 
HETATM   14  C   UNL     1      42.460 -16.378   5.402  1.00  0.00     0.295 C 
HETATM   15  O   UNL     1      42.624 -15.586   6.327  1.00  0.00    -0.259 OA
HETATM   16  C   UNL     1      44.785 -19.883   5.392  1.00  0.00     0.054 C 
HETATM   17  C   UNL     1      44.143 -20.189   2.960  1.00  0.00     0.074 A 
HETATM   18  C   UNL     1      43.417 -19.813   1.833  1.00  0.00     0.038 A 
BRANCH  17  19
HETATM   19  O   UNL     1      44.963 -21.269   2.802  1.00  0.00    -0.360 OA
HETATM   20  H   UNL     1      45.357 -21.508   3.655  1.00  0.00     0.217 HD
ENDBRANCH  17  19
ENDBRANCH   5   6
ENDBRANCH   1   5
BRANCH   2  21
HETATM   21  C   UNL     1      40.019 -12.203   2.146  1.00  0.00     0.127 C 
BRANCH  21  22
HETATM   22  C   UNL     1      39.355 -12.438   0.785  1.00  0.00     0.060 C 
BRANCH  22  23
HETATM   23  C   UNL     1      40.170 -13.301  -0.125  1.00  0.00    -0.029 A 
HETATM   24  C   UNL     1      39.742 -13.970  -1.316  1.00  0.00    -0.000 A 
HETATM   25  C   UNL     1      40.837 -14.684  -1.811  1.00  0.00     0.043 A 
HETATM   26  C   UNL     1      38.522 -14.042  -2.018  1.00  0.00     0.038 A 
HETATM   27  C   UNL     1      40.775 -15.471  -2.966  1.00  0.00     0.032 A 
HETATM   28  N   UNL     1      41.890 -14.451  -0.959  1.00  0.00    -0.365 N 
HETATM   29  C   UNL     1      39.554 -15.528  -3.644  1.00  0.00     0.026 A 
HETATM   30  C   UNL     1      38.448 -14.823  -3.176  1.00  0.00     0.035 A 
HETATM   31 CL   UNL     1      36.958 -14.915  -4.038  1.00  0.00    -0.084 Cl
HETATM   32  H   UNL     1      42.816 -14.843  -1.067  1.00  0.00     0.165 HD
HETATM   33  C   UNL     1      41.502 -13.622   0.056  1.00  0.00     0.096 A 
ENDBRANCH  22  23
ENDBRANCH  21  22
ENDBRANCH   2  21
TORSDOF 6
ENDMDL
MODEL 9
REMARK VINA RESULT:      -9.0      2.291      3.999
REMARK  6 active torsions:
REMARK  status: ('A' for Active; 'I' for Inactive)
REMARK    1  A    between atoms: C_3  and  C_4 
REMARK    2  A    between atoms: C_4  and  C_5 
REMARK       I    between atoms: C_5  and  N_6 
REMARK    3  A    between atoms: N_6  and  C_7 
REMARK    4  A    between atoms: C_7  and  C_8 
REMARK    5  A    between atoms: C_8  and  C_9 
REMARK    6  A    between atoms: C_28  and  O_29 
ROOT
HETATM    1  C   UNL     1      41.138 -12.668   5.776  1.00  0.00     0.222 C 
HETATM    2  N   UNL     1      41.241 -11.472   6.451  1.00  0.00    -0.360 N 
HETATM    3  O   UNL     1      40.211 -13.457   5.943  1.00  0.00    -0.273 OA
HETATM    4  H   UNL     1      41.978 -10.816   6.200  1.00  0.00     0.162 HD
ENDROOT
BRANCH   1   5
HETATM    5  C   UNL     1      42.269 -12.958   4.808  1.00  0.00     0.148 C 
BRANCH   5   6
HETATM    6  C   UNL     1      42.652 -14.414   4.858  1.00  0.00     0.033 C 
HETATM    7  C   UNL     1      43.474 -14.978   5.766  1.00  0.00    -0.036 C 
HETATM    8  C   UNL     1      44.086 -14.225   6.920  1.00  0.00     0.050 C 
HETATM    9  C   UNL     1      43.824 -16.407   5.623  1.00  0.00     0.005 A 
HETATM   10  C   UNL     1      43.439 -17.093   4.466  1.00  0.00     0.099 A 
HETATM   11  C   UNL     1      44.576 -17.110   6.572  1.00  0.00     0.017 A 
HETATM   12  O   UNL     1      42.585 -16.468   3.533  1.00  0.00    -0.274 OA
HETATM   13  C   UNL     1      43.834 -18.417   4.191  1.00  0.00     0.006 A 
HETATM   14  C   UNL     1      42.046 -15.216   3.767  1.00  0.00     0.295 C 
HETATM   15  O   UNL     1      41.133 -14.770   3.075  1.00  0.00    -0.259 OA
HETATM   16  C   UNL     1      43.446 -19.087   2.904  1.00  0.00     0.054 C 
HETATM   17  C   UNL     1      44.572 -19.083   5.174  1.00  0.00     0.074 A 
HETATM   18  C   UNL     1      44.938 -18.441   6.353  1.00  0.00     0.038 A 
BRANCH  17  19
HETATM   19  O   UNL     1      44.976 -20.382   5.058  1.00  0.00    -0.360 OA
HETATM   20  H   UNL     1      45.108 -20.602   4.123  1.00  0.00     0.217 HD
ENDBRANCH  17  19
ENDBRANCH   5   6
ENDBRANCH   1   5
BRANCH   2  21
HETATM   21  C   UNL     1      40.281 -11.120   7.484  1.00  0.00     0.127 C 
BRANCH  21  22
HETATM   22  C   UNL     1      40.832 -10.046   8.427  1.00  0.00     0.060 C 
BRANCH  22  23
HETATM   23  C   UNL     1      41.473 -10.614   9.655  1.00  0.00    -0.029 A 
HETATM   24  C   UNL     1      42.828 -11.045   9.818  1.00  0.00    -0.000 A 
HETATM   25  C   UNL     1      42.958 -11.532  11.121  1.00  0.00     0.043 A 
HETATM   26  C   UNL     1      43.958 -11.074   8.975  1.00  0.00     0.038 A 
HETATM   27  C   UNL     1      44.155 -12.052  11.625  1.00  0.00     0.032 A 
HETATM   28  N   UNL     1      41.732 -11.394  11.728  1.00  0.00    -0.365 N 
HETATM   29  C   UNL     1      45.261 -12.072  10.770  1.00  0.00     0.026 A 
HETATM   30  C   UNL     1      45.161 -11.589   9.468  1.00  0.00     0.035 A 
HETATM   31 CL   UNL     1      46.545 -11.627   8.442  1.00  0.00    -0.084 Cl
HETATM   32  H   UNL     1      41.527 -11.667  12.679  1.00  0.00     0.165 HD
HETATM   33  C   UNL     1      40.834 -10.843  10.858  1.00  0.00     0.096 A 
ENDBRANCH  22  23
ENDBRANCH  21  22
ENDBRANCH   2  21
TORSDOF 6
ENDMDL
MODEL 10
REMARK VINA RESULT:      -9.0      5.982      7.867
REMARK  6 active torsions:
REMARK  status: ('A' for Active; 'I' for Inactive)
REMARK    1  A    between atoms: C_3  and  C_4 
REMARK    2  A    between atoms: C_4  and  C_5 
REMARK       I    between atoms: C_5  and  N_6 
REMARK    3  A    between atoms: N_6  and  C_7 
REMARK    4  A    between atoms: C_7  and  C_8 
REMARK    5  A    between atoms: C_8  and  C_9 
REMARK    6  A    between atoms: C_28  and  O_29 
ROOT
HETATM    1  C   UNL     1      41.651 -15.561   3.625  1.00  0.00     0.222 C 
HETATM    2  N   UNL     1      41.101 -14.565   2.848  1.00  0.00    -0.360 N 
HETATM    3  O   UNL     1      40.981 -16.310   4.332  1.00  0.00    -0.273 OA
HETATM    4  H   UNL     1      41.695 -14.040   2.210  1.00  0.00     0.162 HD
ENDROOT
BRANCH   1   5
HETATM    5  C   UNL     1      43.163 -15.663   3.560  1.00  0.00     0.148 C 
BRANCH   5   6
HETATM    6  C   UNL     1      43.602 -17.103   3.616  1.00  0.00     0.033 C 
HETATM    7  C   UNL     1      43.627 -17.956   2.573  1.00  0.00    -0.036 C 
HETATM    8  C   UNL     1      43.274 -17.560   1.161  1.00  0.00     0.050 C 
HETATM    9  C   UNL     1      43.998 -19.367   2.812  1.00  0.00     0.005 A 
HETATM   10  C   UNL     1      44.144 -19.822   4.126  1.00  0.00     0.099 A 
HETATM   11  C   UNL     1      44.162 -20.301   1.781  1.00  0.00     0.017 A 
HETATM   12  O   UNL     1      44.102 -18.902   5.195  1.00  0.00    -0.274 OA
HETATM   13  C   UNL     1      44.373 -21.174   4.451  1.00  0.00     0.006 A 
HETATM   14  C   UNL     1      44.002 -17.540   4.976  1.00  0.00     0.295 C 
HETATM   15  O   UNL     1      44.193 -16.729   5.880  1.00  0.00    -0.259 OA
HETATM   16  C   UNL     1      44.460 -21.622   5.882  1.00  0.00     0.054 C 
HETATM   17  C   UNL     1      44.544 -22.067   3.388  1.00  0.00     0.074 A 
HETATM   18  C   UNL     1      44.444 -21.638   2.068  1.00  0.00     0.038 A 
BRANCH  17  19
HETATM   19  O   UNL     1      44.821 -23.393   3.560  1.00  0.00    -0.360 OA
HETATM   20  H   UNL     1      45.267 -23.528   4.411  1.00  0.00     0.217 HD
ENDBRANCH  17  19
ENDBRANCH   5   6
ENDBRANCH   1   5
BRANCH   2  21
HETATM   21  C   UNL     1      39.674 -14.290   2.900  1.00  0.00     0.127 C 
BRANCH  21  22
HETATM   22  C   UNL     1      38.929 -14.943   1.730  1.00  0.00     0.060 C 
BRANCH  22  23
HETATM   23  C   UNL     1      38.488 -13.959   0.693  1.00  0.00    -0.029 A 
HETATM   24  C   UNL     1      39.252 -13.429  -0.395  1.00  0.00    -0.000 A 
HETATM   25  C   UNL     1      38.437 -12.522  -1.077  1.00  0.00     0.043 A 
HETATM   26  C   UNL     1      40.568 -13.629  -0.861  1.00  0.00     0.038 A 
HETATM   27  C   UNL     1      38.867 -11.800  -2.195  1.00  0.00     0.032 A 
HETATM   28  N   UNL     1      37.221 -12.509  -0.433  1.00  0.00    -0.365 N 
HETATM   29  C   UNL     1      40.176 -12.014  -2.637  1.00  0.00     0.026 A 
HETATM   30  C   UNL     1      41.009 -12.916  -1.980  1.00  0.00     0.035 A 
HETATM   31 CL   UNL     1      42.617 -13.156  -2.553  1.00  0.00    -0.084 Cl
HETATM   32  H   UNL     1      36.432 -11.940  -0.706  1.00  0.00     0.165 HD
HETATM   33  C   UNL     1      37.240 -13.368   0.629  1.00  0.00     0.096 A 
ENDBRANCH  22  23
ENDBRANCH  21  22
ENDBRANCH   2  21
TORSDOF 6
ENDMDL
