MODEL 1
REMARK VINA RESULT:      -9.6      0.000      0.000
REMARK  2 active torsions:
REMARK  status: ('A' for Active; 'I' for Inactive)
REMARK    1  A    between atoms: N_8  and  N_9 
REMARK       I    between atoms: N_9  and  C_10 
REMARK    2  A    between atoms: C_10  and  C_11 
ROOT
HETATM    1  N   UNL     1      41.421 -15.975   3.988  1.00  0.00    -0.242 N 
HETATM    2  C   UNL     1      42.755 -16.135   3.652  1.00  0.00     0.273 C 
HETATM    3  O   UNL     1      43.489 -15.232   3.252  1.00  0.00    -0.266 OA
HETATM    4  H   UNL     1      40.857 -16.737   4.360  1.00  0.00     0.192 HD
ENDROOT
BRANCH   1   5
HETATM    5  N   UNL     1      40.870 -14.726   3.926  1.00  0.00    -0.166 NA
HETATM    6  C   UNL     1      39.999 -14.504   2.996  1.00  0.00     0.157 A 
HETATM    7  C   UNL     1      39.284 -13.251   2.791  1.00  0.00     0.027 A 
HETATM    8  C   UNL     1      39.523 -15.443   1.886  1.00  0.00     0.277 A 
HETATM    9  C   UNL     1      39.294 -12.081   3.523  1.00  0.00     0.023 A 
HETATM   10  C   UNL     1      38.502 -13.420   1.651  1.00  0.00     0.048 A 
HETATM   11  C   UNL     1      38.464 -11.041   3.082  1.00  0.00    -0.061 A 
HETATM   12  C   UNL     1      38.418  -9.738   3.829  1.00  0.00     0.048 C 
HETATM   13  C   UNL     1      37.686 -11.207   1.909  1.00  0.00     0.009 A 
HETATM   14  C   UNL     1      37.697 -12.405   1.183  1.00  0.00     0.031 A 
HETATM   15  N   UNL     1      38.653 -14.700   1.120  1.00  0.00    -0.321 N 
HETATM   16  H   UNL     1      38.177 -15.062   0.307  1.00  0.00     0.169 HD
HETATM   17  O   UNL     1      39.869 -16.599   1.763  1.00  0.00    -0.266 OA
ENDBRANCH   1   5
BRANCH   2  18
HETATM   18  C   UNL     1      43.348 -17.479   3.853  1.00  0.00     0.058 A 
HETATM   19  C   UNL     1      43.990 -17.924   5.007  1.00  0.00     0.047 A 
HETATM   20  C   UNL     1      44.152 -17.095   6.245  1.00  0.00     0.071 C 
HETATM   21  N   UNL     1      44.514 -19.181   5.105  1.00  0.00    -0.252 NA
HETATM   22  C   UNL     1      44.364 -20.044   4.082  1.00  0.00     0.067 A 
HETATM   23  C   UNL     1      43.691 -19.691   2.899  1.00  0.00    -0.006 A 
HETATM   24  C   UNL     1      44.874 -21.332   4.185  1.00  0.00     0.032 A 
HETATM   25  C   UNL     1      43.187 -18.390   2.800  1.00  0.00     0.033 A 
HETATM   26  C   UNL     1      43.533 -20.628   1.862  1.00  0.00     0.014 A 
HETATM   27  C   UNL     1      44.047 -21.916   1.994  1.00  0.00     0.001 A 
HETATM   28  C   UNL     1      44.723 -22.268   3.157  1.00  0.00     0.002 A 
ENDBRANCH   2  18
TORSDOF 2
ENDMDL
MODEL 2
REMARK VINA RESULT:      -9.2      1.794      2.367
REMARK  2 active torsions:
REMARK  status: ('A' for Active; 'I' for Inactive)
REMARK    1  A    between atoms: N_8  and  N_9 
REMARK       I    between atoms: N_9  and  C_10 
REMARK    2  A    between atoms: C_10  and  C_11 
ROOT
HETATM    1  N   UNL     1      41.775 -16.068   3.593  1.00  0.00    -0.242 N 
HETATM    2  C   UNL     1      43.104 -16.341   3.314  1.00  0.00     0.273 C 
HETATM    3  O   UNL     1      43.907 -15.524   2.867  1.00  0.00    -0.266 OA
HETATM    4  H   UNL     1      41.151 -16.759   4.007  1.00  0.00     0.192 HD
ENDROOT
BRANCH   1   5
HETATM    5  N   UNL     1      41.311 -14.795   3.413  1.00  0.00    -0.166 NA
HETATM    6  C   UNL     1      40.805 -14.195   4.441  1.00  0.00     0.157 A 
HETATM    7  C   UNL     1      40.287 -12.833   4.452  1.00  0.00     0.027 A 
HETATM    8  C   UNL     1      40.589 -14.735   5.855  1.00  0.00     0.277 A 
HETATM    9  C   UNL     1      40.269 -11.871   3.461  1.00  0.00     0.023 A 
HETATM   10  C   UNL     1      39.779 -12.609   5.729  1.00  0.00     0.048 A 
HETATM   11  C   UNL     1      39.718 -10.624   3.789  1.00  0.00    -0.061 A 
HETATM   12  C   UNL     1      39.666  -9.525   2.765  1.00  0.00     0.048 C 
HETATM   13  C   UNL     1      39.181 -10.406   5.082  1.00  0.00     0.009 A 
HETATM   14  C   UNL     1      39.211 -11.401   6.067  1.00  0.00     0.031 A 
HETATM   15  N   UNL     1      39.948 -13.728   6.543  1.00  0.00    -0.321 N 
HETATM   16  H   UNL     1      39.676 -13.800   7.512  1.00  0.00     0.169 HD
HETATM   17  O   UNL     1      40.940 -15.831   6.238  1.00  0.00    -0.266 OA
ENDBRANCH   1   5
BRANCH   2  18
HETATM   18  C   UNL     1      43.599 -17.700   3.642  1.00  0.00     0.058 A 
HETATM   19  C   UNL     1      44.099 -18.111   4.877  1.00  0.00     0.047 A 
HETATM   20  C   UNL     1      44.182 -17.223   6.081  1.00  0.00     0.071 C 
HETATM   21  N   UNL     1      44.541 -19.384   5.091  1.00  0.00    -0.252 NA
HETATM   22  C   UNL     1      44.446 -20.295   4.103  1.00  0.00     0.067 A 
HETATM   23  C   UNL     1      43.913 -19.975   2.842  1.00  0.00    -0.006 A 
HETATM   24  C   UNL     1      44.872 -21.599   4.322  1.00  0.00     0.032 A 
HETATM   25  C   UNL     1      43.494 -18.660   2.626  1.00  0.00     0.033 A 
HETATM   26  C   UNL     1      43.808 -20.960   1.843  1.00  0.00     0.014 A 
HETATM   27  C   UNL     1      44.236 -22.262   2.091  1.00  0.00     0.001 A 
HETATM   28  C   UNL     1      44.772 -22.582   3.333  1.00  0.00     0.002 A 
ENDBRANCH   2  18
TORSDOF 2
ENDMDL
MODEL 3
REMARK VINA RESULT:      -9.1      2.221      3.041
REMARK  2 active torsions:
REMARK  status: ('A' for Active; 'I' for Inactive)
REMARK    1  A    between atoms: N_8  and  N_9 
REMARK       I    between atoms: N_9  and  C_10 
REMARK    2  A    between atoms: C_10  and  C_11 
ROOT
HETATM    1  N   UNL     1      42.017 -17.378   1.091  1.00  0.00    -0.242 N 
HETATM    2  C   UNL     1      43.340 -17.410   1.497  1.00  0.00     0.273 C 
HETATM    3  O   UNL     1      44.227 -16.686   1.046  1.00  0.00    -0.266 OA
HETATM    4  H   UNL     1      41.299 -17.962   1.520  1.00  0.00     0.192 HD
ENDROOT
BRANCH   1   5
HETATM    5  N   UNL     1      41.633 -16.453   0.160  1.00  0.00    -0.166 NA
HETATM    6  C   UNL     1      40.758 -15.572   0.522  1.00  0.00     0.157 A 
HETATM    7  C   UNL     1      40.250 -14.494  -0.317  1.00  0.00     0.027 A 
HETATM    8  C   UNL     1      40.024 -15.444   1.857  1.00  0.00     0.277 A 
HETATM    9  C   UNL     1      40.596 -14.114  -1.598  1.00  0.00     0.023 A 
HETATM   10  C   UNL     1      39.285 -13.826   0.433  1.00  0.00     0.048 A 
HETATM   11  C   UNL     1      39.938 -12.999  -2.136  1.00  0.00    -0.061 A 
HETATM   12  C   UNL     1      40.263 -12.522  -3.523  1.00  0.00     0.048 C 
HETATM   13  C   UNL     1      38.939 -12.335  -1.380  1.00  0.00     0.009 A 
HETATM   14  C   UNL     1      38.606 -12.744  -0.082  1.00  0.00     0.031 A 
HETATM   15  N   UNL     1      39.149 -14.392   1.700  1.00  0.00    -0.321 N 
HETATM   16  H   UNL     1      38.525 -14.071   2.426  1.00  0.00     0.169 HD
HETATM   17  O   UNL     1      40.222 -16.147   2.826  1.00  0.00    -0.266 OA
ENDBRANCH   1   5
BRANCH   2  18
HETATM   18  C   UNL     1      43.689 -18.341   2.597  1.00  0.00     0.058 A 
HETATM   19  C   UNL     1      43.721 -18.025   3.954  1.00  0.00     0.047 A 
HETATM   20  C   UNL     1      43.374 -16.675   4.506  1.00  0.00     0.071 C 
HETATM   21  N   UNL     1      44.060 -18.945   4.904  1.00  0.00    -0.252 NA
HETATM   22  C   UNL     1      44.321 -20.214   4.535  1.00  0.00     0.067 A 
HETATM   23  C   UNL     1      44.267 -20.627   3.192  1.00  0.00    -0.006 A 
HETATM   24  C   UNL     1      44.643 -21.161   5.498  1.00  0.00     0.032 A 
HETATM   25  C   UNL     1      43.950 -19.667   2.227  1.00  0.00     0.033 A 
HETATM   26  C   UNL     1      44.522 -21.967   2.849  1.00  0.00     0.014 A 
HETATM   27  C   UNL     1      44.835 -22.899   3.836  1.00  0.00     0.001 A 
HETATM   28  C   UNL     1      44.900 -22.494   5.164  1.00  0.00     0.002 A 
ENDBRANCH   2  18
TORSDOF 2
ENDMDL
MODEL 4
REMARK VINA RESULT:      -8.9      2.013      2.493
REMARK  2 active torsions:
REMARK  status: ('A' for Active; 'I' for Inactive)
REMARK    1  A    between atoms: N_8  and  N_9 
REMARK       I    between atoms: N_9  and  C_10 
REMARK    2  A    between atoms: C_10  and  C_11 
ROOT
HETATM    1  N   UNL     1      39.983 -16.038   2.566  1.00  0.00    -0.242 N 
HETATM    2  C   UNL     1      40.979 -15.723   3.474  1.00  0.00     0.273 C 
HETATM    3  O   UNL     1      41.180 -14.598   3.930  1.00  0.00    -0.266 OA
HETATM    4  H   UNL     1      39.817 -16.991   2.245  1.00  0.00     0.192 HD
ENDROOT
BRANCH   1   5
HETATM    5  N   UNL     1      39.117 -15.057   2.168  1.00  0.00    -0.166 NA
HETATM    6  C   UNL     1      39.285 -14.558   0.987  1.00  0.00     0.157 A 
HETATM    7  C   UNL     1      38.449 -13.530   0.380  1.00  0.00     0.027 A 
HETATM    8  C   UNL     1      40.376 -14.869  -0.038  1.00  0.00     0.277 A 
HETATM    9  C   UNL     1      37.301 -12.917   0.841  1.00  0.00     0.023 A 
HETATM   10  C   UNL     1      39.015 -13.236  -0.858  1.00  0.00     0.048 A 
HETATM   11  C   UNL     1      36.698 -11.970   0.001  1.00  0.00    -0.061 A 
HETATM   12  C   UNL     1      35.444 -11.264   0.433  1.00  0.00     0.048 C 
HETATM   13  C   UNL     1      37.289 -11.655  -1.248  1.00  0.00     0.009 A 
HETATM   14  C   UNL     1      38.456 -12.291  -1.690  1.00  0.00     0.031 A 
HETATM   15  N   UNL     1      40.148 -14.013  -1.094  1.00  0.00    -0.321 N 
HETATM   16  H   UNL     1      40.717 -13.991  -1.927  1.00  0.00     0.169 HD
HETATM   17  O   UNL     1      41.234 -15.715   0.100  1.00  0.00    -0.266 OA
ENDBRANCH   1   5
BRANCH   2  18
HETATM   18  C   UNL     1      41.816 -16.840   3.976  1.00  0.00     0.058 A 
HETATM   19  C   UNL     1      41.886 -17.279   5.296  1.00  0.00     0.047 A 
HETATM   20  C   UNL     1      41.085 -16.687   6.416  1.00  0.00     0.071 C 
HETATM   21  N   UNL     1      42.691 -18.315   5.673  1.00  0.00    -0.252 NA
HETATM   22  C   UNL     1      43.403 -18.976   4.740  1.00  0.00     0.067 A 
HETATM   23  C   UNL     1      43.356 -18.626   3.379  1.00  0.00    -0.006 A 
HETATM   24  C   UNL     1      44.205 -20.046   5.113  1.00  0.00     0.032 A 
HETATM   25  C   UNL     1      42.552 -17.543   3.012  1.00  0.00     0.033 A 
HETATM   26  C   UNL     1      44.095 -19.355   2.430  1.00  0.00     0.014 A 
HETATM   27  C   UNL     1      44.886 -20.430   2.830  1.00  0.00     0.001 A 
HETATM   28  C   UNL     1      44.944 -20.774   4.176  1.00  0.00     0.002 A 
ENDBRANCH   2  18
TORSDOF 2
ENDMDL
MODEL 5
REMARK VINA RESULT:      -8.8      1.575      8.759
REMARK  2 active torsions:
REMARK  status: ('A' for Active; 'I' for Inactive)
REMARK    1  A    between atoms: N_8  and  N_9 
REMARK       I    between atoms: N_9  and  C_10 
REMARK    2  A    between atoms: C_10  and  C_11 
ROOT
HETATM    1  N   UNL     1      40.740 -16.043   2.491  1.00  0.00    -0.242 N 
HETATM    2  C   UNL     1      41.017 -14.915   1.738  1.00  0.00     0.273 C 
HETATM    3  O   UNL     1      41.907 -14.840   0.893  1.00  0.00    -0.266 OA
HETATM    4  H   UNL     1      39.963 -16.083   3.150  1.00  0.00     0.192 HD
ENDROOT
BRANCH   1   5
HETATM    5  N   UNL     1      41.460 -17.183   2.265  1.00  0.00    -0.166 NA
HETATM    6  C   UNL     1      42.279 -17.563   3.191  1.00  0.00     0.157 A 
HETATM    7  C   UNL     1      43.107 -18.762   3.144  1.00  0.00     0.027 A 
HETATM    8  C   UNL     1      42.613 -16.876   4.515  1.00  0.00     0.277 A 
HETATM    9  C   UNL     1      43.177 -19.768   2.202  1.00  0.00     0.023 A 
HETATM   10  C   UNL     1      43.881 -18.757   4.302  1.00  0.00     0.048 A 
HETATM   11  C   UNL     1      44.067 -20.822   2.455  1.00  0.00    -0.061 A 
HETATM   12  C   UNL     1      44.197 -21.956   1.478  1.00  0.00     0.048 C 
HETATM   13  C   UNL     1      44.871 -20.804   3.623  1.00  0.00     0.009 A 
HETATM   14  C   UNL     1      44.780 -19.767   4.560  1.00  0.00     0.031 A 
HETATM   15  N   UNL     1      43.596 -17.647   5.096  1.00  0.00    -0.321 N 
HETATM   16  H   UNL     1      44.017 -17.436   5.988  1.00  0.00     0.169 HD
HETATM   17  O   UNL     1      42.081 -15.866   4.925  1.00  0.00    -0.266 OA
ENDBRANCH   1   5
BRANCH   2  18
HETATM   18  C   UNL     1      40.130 -13.741   1.925  1.00  0.00     0.058 A 
HETATM   19  C   UNL     1      40.383 -12.651   2.756  1.00  0.00     0.047 A 
HETATM   20  C   UNL     1      41.629 -12.496   3.574  1.00  0.00     0.071 C 
HETATM   21  N   UNL     1      39.506 -11.612   2.874  1.00  0.00    -0.252 NA
HETATM   22  C   UNL     1      38.383 -11.603   2.129  1.00  0.00     0.067 A 
HETATM   23  C   UNL     1      38.074 -12.642   1.234  1.00  0.00    -0.006 A 
HETATM   24  C   UNL     1      37.498 -10.538   2.227  1.00  0.00     0.032 A 
HETATM   25  C   UNL     1      38.965 -13.715   1.147  1.00  0.00     0.033 A 
HETATM   26  C   UNL     1      36.904 -12.585   0.455  1.00  0.00     0.014 A 
HETATM   27  C   UNL     1      36.036 -11.501   0.567  1.00  0.00     0.001 A 
HETATM   28  C   UNL     1      36.332 -10.476   1.458  1.00  0.00     0.002 A 
ENDBRANCH   2  18
TORSDOF 2
ENDMDL
MODEL 6
REMARK VINA RESULT:      -8.8      2.753      3.486
REMARK  2 active torsions:
REMARK  status: ('A' for Active; 'I' for Inactive)
REMARK    1  A    between atoms: N_8  and  N_9 
REMARK       I    between atoms: N_9  and  C_10 
REMARK    2  A    between atoms: C_10  and  C_11 
ROOT
HETATM    1  N   UNL     1      42.323 -15.611   0.704  1.00  0.00    -0.242 N 
HETATM    2  C   UNL     1      41.635 -16.448   1.565  1.00  0.00     0.273 C 
HETATM    3  O   UNL     1      40.411 -16.481   1.679  1.00  0.00    -0.266 OA
HETATM    4  H   UNL     1      43.337 -15.644   0.602  1.00  0.00     0.192 HD
ENDROOT
BRANCH   1   5
HETATM    5  N   UNL     1      41.614 -14.786  -0.124  1.00  0.00    -0.166 NA
HETATM    6  C   UNL     1      41.586 -13.527   0.169  1.00  0.00     0.157 A 
HETATM    7  C   UNL     1      40.910 -12.495  -0.607  1.00  0.00     0.027 A 
HETATM    8  C   UNL     1      42.200 -12.811   1.373  1.00  0.00     0.277 A 
HETATM    9  C   UNL     1      40.233 -12.573  -1.807  1.00  0.00     0.023 A 
HETATM   10  C   UNL     1      41.073 -11.301   0.092  1.00  0.00     0.048 A 
HETATM   11  C   UNL     1      39.706 -11.381  -2.324  1.00  0.00    -0.061 A 
HETATM   12  C   UNL     1      38.959 -11.384  -3.628  1.00  0.00     0.048 C 
HETATM   13  C   UNL     1      39.852 -10.171  -1.600  1.00  0.00     0.009 A 
HETATM   14  C   UNL     1      40.543 -10.122  -0.382  1.00  0.00     0.031 A 
HETATM   15  N   UNL     1      41.818 -11.493   1.254  1.00  0.00    -0.321 N 
HETATM   16  H   UNL     1      42.080 -10.774   1.913  1.00  0.00     0.169 HD
HETATM   17  O   UNL     1      42.883 -13.345   2.221  1.00  0.00    -0.266 OA
ENDBRANCH   1   5
BRANCH   2  18
HETATM   18  C   UNL     1      42.437 -17.415   2.354  1.00  0.00     0.058 A 
HETATM   19  C   UNL     1      42.918 -17.214   3.646  1.00  0.00     0.047 A 
HETATM   20  C   UNL     1      42.662 -15.974   4.449  1.00  0.00     0.071 C 
HETATM   21  N   UNL     1      43.657 -18.158   4.299  1.00  0.00    -0.252 NA
HETATM   22  C   UNL     1      43.888 -19.345   3.707  1.00  0.00     0.067 A 
HETATM   23  C   UNL     1      43.401 -19.646   2.423  1.00  0.00    -0.006 A 
HETATM   24  C   UNL     1      44.618 -20.319   4.375  1.00  0.00     0.032 A 
HETATM   25  C   UNL     1      42.674 -18.658   1.753  1.00  0.00     0.033 A 
HETATM   26  C   UNL     1      43.643 -20.907   1.847  1.00  0.00     0.014 A 
HETATM   27  C   UNL     1      44.373 -21.869   2.542  1.00  0.00     0.001 A 
HETATM   28  C   UNL     1      44.865 -21.574   3.807  1.00  0.00     0.002 A 
ENDBRANCH   2  18
TORSDOF 2
ENDMDL
MODEL 7
REMARK VINA RESULT:      -8.7      2.771      8.298
REMARK  2 active torsions:
REMARK  status: ('A' for Active; 'I' for Inactive)
REMARK    1  A    between atoms: N_8  and  N_9 
REMARK       I    between atoms: N_9  and  C_10 
REMARK    2  A    between atoms: C_10  and  C_11 
ROOT
HETATM    1  N   UNL     1      42.119 -16.202   2.511  1.00  0.00    -0.242 N 
HETATM    2  C   UNL     1      40.868 -16.231   1.917  1.00  0.00     0.273 C 
HETATM    3  O   UNL     1      39.977 -17.028   2.203  1.00  0.00    -0.266 OA
HETATM    4  H   UNL     1      42.817 -15.496   2.280  1.00  0.00     0.192 HD
ENDROOT
BRANCH   1   5
HETATM    5  N   UNL     1      42.391 -17.080   3.523  1.00  0.00    -0.166 NA
HETATM    6  C   UNL     1      43.155 -18.087   3.249  1.00  0.00     0.157 A 
HETATM    7  C   UNL     1      43.578 -19.107   4.199  1.00  0.00     0.027 A 
HETATM    8  C   UNL     1      43.771 -18.484   1.907  1.00  0.00     0.277 A 
HETATM    9  C   UNL     1      43.351 -19.221   5.556  1.00  0.00     0.023 A 
HETATM   10  C   UNL     1      44.330 -20.034   3.480  1.00  0.00     0.048 A 
HETATM   11  C   UNL     1      43.922 -20.320   6.212  1.00  0.00    -0.061 A 
HETATM   12  C   UNL     1      43.723 -20.510   7.689  1.00  0.00     0.048 C 
HETATM   13  C   UNL     1      44.668 -21.274   5.475  1.00  0.00     0.009 A 
HETATM   14  C   UNL     1      44.881 -21.135   4.097  1.00  0.00     0.031 A 
HETATM   15  N   UNL     1      44.432 -19.671   2.139  1.00  0.00    -0.321 N 
HETATM   16  H   UNL     1      44.939 -20.175   1.427  1.00  0.00     0.169 HD
HETATM   17  O   UNL     1      43.674 -17.840   0.883  1.00  0.00    -0.266 OA
ENDBRANCH   1   5
BRANCH   2  18
HETATM   18  C   UNL     1      40.572 -15.181   0.913  1.00  0.00     0.058 A 
HETATM   19  C   UNL     1      39.927 -13.971   1.162  1.00  0.00     0.047 A 
HETATM   20  C   UNL     1      39.456 -13.540   2.519  1.00  0.00     0.071 C 
HETATM   21  N   UNL     1      39.687 -13.060   0.174  1.00  0.00    -0.252 NA
HETATM   22  C   UNL     1      40.131 -13.303  -1.074  1.00  0.00     0.067 A 
HETATM   23  C   UNL     1      40.830 -14.479  -1.402  1.00  0.00    -0.006 A 
HETATM   24  C   UNL     1      39.913 -12.371  -2.079  1.00  0.00     0.032 A 
HETATM   25  C   UNL     1      41.040 -15.417  -0.387  1.00  0.00     0.033 A 
HETATM   26  C   UNL     1      41.300 -14.686  -2.711  1.00  0.00     0.014 A 
HETATM   27  C   UNL     1      41.073 -13.730  -3.699  1.00  0.00     0.001 A 
HETATM   28  C   UNL     1      40.375 -12.571  -3.383  1.00  0.00     0.002 A 
ENDBRANCH   2  18
TORSDOF 2
ENDMDL
MODEL 8
REMARK VINA RESULT:      -8.7      1.306      8.837
REMARK  2 active torsions:
REMARK  status: ('A' for Active; 'I' for Inactive)
REMARK    1  A    between atoms: N_8  and  N_9 
REMARK       I    between atoms: N_9  and  C_10 
REMARK    2  A    between atoms: C_10  and  C_11 
ROOT
HETATM    1  N   UNL     1      41.449 -15.496   1.972  1.00  0.00    -0.242 N 
HETATM    2  C   UNL     1      40.074 -15.401   2.110  1.00  0.00     0.273 C 
HETATM    3  O   UNL     1      39.303 -16.359   2.100  1.00  0.00    -0.266 OA
HETATM    4  H   UNL     1      42.062 -14.684   2.032  1.00  0.00     0.192 HD
ENDROOT
BRANCH   1   5
HETATM    5  N   UNL     1      42.018 -16.734   1.864  1.00  0.00    -0.166 NA
HETATM    6  C   UNL     1      42.679 -17.177   2.884  1.00  0.00     0.157 A 
HETATM    7  C   UNL     1      43.329 -18.478   2.968  1.00  0.00     0.027 A 
HETATM    8  C   UNL     1      42.978 -16.475   4.210  1.00  0.00     0.277 A 
HETATM    9  C   UNL     1      43.346 -19.533   2.077  1.00  0.00     0.023 A 
HETATM   10  C   UNL     1      43.978 -18.521   4.200  1.00  0.00     0.048 A 
HETATM   11  C   UNL     1      44.048 -20.685   2.460  1.00  0.00    -0.061 A 
HETATM   12  C   UNL     1      44.109 -21.875   1.545  1.00  0.00     0.048 C 
HETATM   13  C   UNL     1      44.727 -20.718   3.704  1.00  0.00     0.009 A 
HETATM   14  C   UNL     1      44.695 -19.632   4.588  1.00  0.00     0.031 A 
HETATM   15  N   UNL     1      43.779 -17.344   4.917  1.00  0.00    -0.321 N 
HETATM   16  H   UNL     1      44.136 -17.147   5.841  1.00  0.00     0.169 HD
HETATM   17  O   UNL     1      42.557 -15.381   4.523  1.00  0.00    -0.266 OA
ENDBRANCH   1   5
BRANCH   2  18
HETATM   18  C   UNL     1      39.510 -14.051   2.351  1.00  0.00     0.058 A 
HETATM   19  C   UNL     1      38.600 -13.388   1.530  1.00  0.00     0.047 A 
HETATM   20  C   UNL     1      38.029 -13.973   0.273  1.00  0.00     0.071 C 
HETATM   21  N   UNL     1      38.135 -12.139   1.824  1.00  0.00    -0.252 NA
HETATM   22  C   UNL     1      38.519 -11.541   2.968  1.00  0.00     0.067 A 
HETATM   23  C   UNL     1      39.400 -12.158   3.874  1.00  0.00    -0.006 A 
HETATM   24  C   UNL     1      38.031 -10.281   3.286  1.00  0.00     0.032 A 
HETATM   25  C   UNL     1      39.893 -13.424   3.544  1.00  0.00     0.033 A 
HETATM   26  C   UNL     1      39.759 -11.512   5.071  1.00  0.00     0.014 A 
HETATM   27  C   UNL     1      39.249 -10.250   5.369  1.00  0.00     0.001 A 
HETATM   28  C   UNL     1      38.386  -9.631   4.473  1.00  0.00     0.002 A 
ENDBRANCH   2  18
TORSDOF 2
ENDMDL
MODEL 9
REMARK VINA RESULT:      -8.5      2.713      4.232
REMARK  2 active torsions:
REMARK  status: ('A' for Active; 'I' for Inactive)
REMARK    1  A    between atoms: N_8  and  N_9 
REMARK       I    between atoms: N_9  and  C_10 
REMARK    2  A    between atoms: C_10  and  C_11 
ROOT
HETATM    1  N   UNL     1      42.287 -16.291   1.778  1.00  0.00    -0.242 N 
HETATM    2  C   UNL     1      43.485 -16.930   2.050  1.00  0.00     0.273 C 
HETATM    3  O   UNL     1      44.467 -16.920   1.311  1.00  0.00    -0.266 OA
HETATM    4  H   UNL     1      41.510 -16.282   2.437  1.00  0.00     0.192 HD
ENDROOT
BRANCH   1   5
HETATM    5  N   UNL     1      42.180 -15.548   0.635  1.00  0.00    -0.166 NA
HETATM    6  C   UNL     1      41.030 -15.019   0.374  1.00  0.00     0.157 A 
HETATM    7  C   UNL     1      40.730 -14.175  -0.776  1.00  0.00     0.027 A 
HETATM    8  C   UNL     1      39.717 -15.152   1.147  1.00  0.00     0.277 A 
HETATM    9  C   UNL     1      41.552 -13.695  -1.776  1.00  0.00     0.023 A 
HETATM   10  C   UNL     1      39.371 -13.878  -0.710  1.00  0.00     0.048 A 
HETATM   11  C   UNL     1      40.967 -12.869  -2.746  1.00  0.00    -0.061 A 
HETATM   12  C   UNL     1      41.798 -12.306  -3.864  1.00  0.00     0.048 C 
HETATM   13  C   UNL     1      39.579 -12.587  -2.690  1.00  0.00     0.009 A 
HETATM   14  C   UNL     1      38.768 -13.090  -1.664  1.00  0.00     0.031 A 
HETATM   15  N   UNL     1      38.780 -14.460   0.411  1.00  0.00    -0.321 N 
HETATM   16  H   UNL     1      37.812 -14.373   0.680  1.00  0.00     0.169 HD
HETATM   17  O   UNL     1      39.589 -15.749   2.196  1.00  0.00    -0.266 OA
ENDBRANCH   1   5
BRANCH   2  18
HETATM   18  C   UNL     1      43.601 -17.619   3.359  1.00  0.00     0.058 A 
HETATM   19  C   UNL     1      43.893 -18.969   3.548  1.00  0.00     0.047 A 
HETATM   20  C   UNL     1      44.163 -19.929   2.429  1.00  0.00     0.071 C 
HETATM   21  N   UNL     1      43.975 -19.524   4.792  1.00  0.00    -0.252 NA
HETATM   22  C   UNL     1      43.826 -18.743   5.879  1.00  0.00     0.067 A 
HETATM   23  C   UNL     1      43.573 -17.363   5.777  1.00  0.00    -0.006 A 
HETATM   24  C   UNL     1      43.932 -19.297   7.148  1.00  0.00     0.032 A 
HETATM   25  C   UNL     1      43.460 -16.814   4.497  1.00  0.00     0.033 A 
HETATM   26  C   UNL     1      43.447 -16.575   6.936  1.00  0.00     0.014 A 
HETATM   27  C   UNL     1      43.566 -17.155   8.197  1.00  0.00     0.001 A 
HETATM   28  C   UNL     1      43.805 -18.520   8.303  1.00  0.00     0.002 A 
ENDBRANCH   2  18
TORSDOF 2
ENDMDL
MODEL 10
REMARK VINA RESULT:      -8.5      2.327      8.991
REMARK  2 active torsions:
REMARK  status: ('A' for Active; 'I' for Inactive)
REMARK    1  A    between atoms: N_8  and  N_9 
REMARK       I    between atoms: N_9  and  C_10 
REMARK    2  A    between atoms: C_10  and  C_11 
ROOT
HETATM    1  N   UNL     1      41.941 -15.592   0.913  1.00  0.00    -0.242 N 
HETATM    2  C   UNL     1      41.238 -15.327  -0.251  1.00  0.00     0.273 C 
HETATM    3  O   UNL     1      41.108 -16.116  -1.185  1.00  0.00    -0.266 OA
HETATM    4  H   UNL     1      41.987 -14.929   1.686  1.00  0.00     0.192 HD
ENDROOT
BRANCH   1   5
HETATM    5  N   UNL     1      42.498 -16.829   1.081  1.00  0.00    -0.166 NA
HETATM    6  C   UNL     1      42.900 -17.145   2.268  1.00  0.00     0.157 A 
HETATM    7  C   UNL     1      43.490 -18.422   2.647  1.00  0.00     0.027 A 
HETATM    8  C   UNL     1      42.898 -16.293   3.538  1.00  0.00     0.277 A 
HETATM    9  C   UNL     1      43.693 -19.571   1.910  1.00  0.00     0.023 A 
HETATM   10  C   UNL     1      43.839 -18.317   3.992  1.00  0.00     0.048 A 
HETATM   11  C   UNL     1      44.268 -20.665   2.573  1.00  0.00    -0.061 A 
HETATM   12  C   UNL     1      44.517 -21.952   1.838  1.00  0.00     0.048 C 
HETATM   13  C   UNL     1      44.644 -20.549   3.935  1.00  0.00     0.009 A 
HETATM   14  C   UNL     1      44.428 -19.369   4.658  1.00  0.00     0.031 A 
HETATM   15  N   UNL     1      43.500 -17.067   4.505  1.00  0.00    -0.321 N 
HETATM   16  H   UNL     1      43.640 -16.762   5.457  1.00  0.00     0.169 HD
HETATM   17  O   UNL     1      42.436 -15.174   3.620  1.00  0.00    -0.266 OA
ENDBRANCH   1   5
BRANCH   2  18
HETATM   18  C   UNL     1      40.543 -14.020  -0.339  1.00  0.00     0.058 A 
HETATM   19  C   UNL     1      41.058 -12.857  -0.910  1.00  0.00     0.047 A 
HETATM   20  C   UNL     1      42.409 -12.772  -1.554  1.00  0.00     0.071 C 
HETATM   21  N   UNL     1      40.350 -11.691  -0.942  1.00  0.00    -0.252 NA
HETATM   22  C   UNL     1      39.093 -11.664  -0.460  1.00  0.00     0.067 A 
HETATM   23  C   UNL     1      38.481 -12.803   0.093  1.00  0.00    -0.006 A 
HETATM   24  C   UNL     1      38.358 -10.487  -0.512  1.00  0.00     0.032 A 
HETATM   25  C   UNL     1      39.230 -13.982   0.149  1.00  0.00     0.033 A 
HETATM   26  C   UNL     1      37.157 -12.743   0.564  1.00  0.00     0.014 A 
HETATM   27  C   UNL     1      36.440 -11.551   0.493  1.00  0.00     0.001 A 
HETATM   28  C   UNL     1      37.043 -10.419  -0.043  1.00  0.00     0.002 A 
ENDBRANCH   2  18
TORSDOF 2
ENDMDL
