MODEL 1
REMARK VINA RESULT:      -8.2      0.000      0.000
REMARK  4 active torsions:
REMARK  status: ('A' for Active; 'I' for Inactive)
REMARK    1  A    between atoms: C_2  and  C_3 
REMARK    2  A    between atoms: C_11  and  C_12 
REMARK       I    between atoms: C_12  and  N_13 
REMARK    3  A    between atoms: N_13  and  C_14 
REMARK    4  A    between atoms: C_21  and  C_22 
REMARK       I    between atoms: C_22  and  N_23 
ROOT
HETATM    1  C   UNL     1      40.358 -16.565   2.401  1.00  0.00     0.035 A 
HETATM    2  C   UNL     1      40.895 -16.499   3.692  1.00  0.00     0.046 A 
HETATM    3  C   UNL     1      42.116 -17.149   3.977  1.00  0.00     0.030 A 
HETATM    4  C   UNL     1      42.771 -17.831   2.961  1.00  0.00     0.063 A 
HETATM    5  N   UNL     1      43.904 -18.338   3.535  1.00  0.00    -0.277 N 
HETATM    6  H   UNL     1      44.624 -18.893   3.087  1.00  0.00     0.189 HD
HETATM    7  N   UNL     1      44.045 -18.046   4.839  1.00  0.00    -0.168 NA
HETATM    8  C   UNL     1      42.948 -17.310   5.126  1.00  0.00     0.156 A 
HETATM    9  C   UNL     1      42.279 -17.907   1.659  1.00  0.00     0.034 A 
HETATM   10  C   UNL     1      41.063 -17.258   1.405  1.00  0.00     0.032 A 
ENDROOT
BRANCH   1  11
HETATM   11  N   UNL     1      39.160 -15.950   1.994  1.00  0.00    -0.324 N 
HETATM   12  C   UNL     1      38.853 -14.759   1.405  1.00  0.00     0.246 C 
HETATM   13  O   UNL     1      37.694 -14.548   1.050  1.00  0.00    -0.268 OA
HETATM   14  H   UNL     1      38.314 -16.496   2.117  1.00  0.00     0.169 HD
BRANCH  12  15
HETATM   15  C   UNL     1      39.881 -13.708   1.272  1.00  0.00     0.082 C 
HETATM   16  C   UNL     1      40.462 -13.386   0.101  1.00  0.00    -0.043 C 
HETATM   17  C   UNL     1      41.470 -12.279  -0.017  1.00  0.00     0.049 C 
BRANCH  16  18
HETATM   18  C   UNL     1      40.164 -14.106  -1.149  1.00  0.00     0.009 A 
HETATM   19  C   UNL     1      39.061 -13.756  -1.940  1.00  0.00     0.130 A 
HETATM   20  F   UNL     1      38.272 -12.730  -1.586  1.00  0.00    -0.205 F 
HETATM   21  C   UNL     1      38.761 -14.456  -3.104  1.00  0.00     0.085 A 
HETATM   22  C   UNL     1      39.579 -15.510  -3.484  1.00  0.00     0.119 A 
HETATM   23  F   UNL     1      39.302 -16.189  -4.605  1.00  0.00    -0.206 F 
HETATM   24  C   UNL     1      40.687 -15.874  -2.723  1.00  0.00     0.043 A 
HETATM   25  C   UNL     1      40.980 -15.173  -1.552  1.00  0.00     0.018 A 
ENDBRANCH  16  18
ENDBRANCH  12  15
ENDBRANCH   1  11
BRANCH   8  26
HETATM   26  C   UNL     1      42.708 -16.780   6.476  1.00  0.00     0.270 C 
HETATM   27  N   UNL     1      42.796 -15.417   6.564  1.00  0.00    -0.365 N 
HETATM   28  H   UNL     1      43.017 -14.889   5.728  1.00  0.00     0.159 HD
HETATM   29  H   UNL     1      42.655 -14.961   7.452  1.00  0.00     0.159 HD
HETATM   30  O   UNL     1      42.452 -17.470   7.456  1.00  0.00    -0.266 OA
ENDBRANCH   8  26
TORSDOF 4
ENDMDL
MODEL 2
REMARK VINA RESULT:      -8.2      4.293      7.577
REMARK  4 active torsions:
REMARK  status: ('A' for Active; 'I' for Inactive)
REMARK    1  A    between atoms: C_2  and  C_3 
REMARK    2  A    between atoms: C_11  and  C_12 
REMARK       I    between atoms: C_12  and  N_13 
REMARK    3  A    between atoms: N_13  and  C_14 
REMARK    4  A    between atoms: C_21  and  C_22 
REMARK       I    between atoms: C_22  and  N_23 
ROOT
HETATM    1  C   UNL     1      40.925 -16.391   3.194  1.00  0.00     0.035 A 
HETATM    2  C   UNL     1      40.831 -15.070   2.741  1.00  0.00     0.046 A 
HETATM    3  C   UNL     1      41.250 -14.747   1.431  1.00  0.00     0.030 A 
HETATM    4  C   UNL     1      41.734 -15.755   0.609  1.00  0.00     0.063 A 
HETATM    5  N   UNL     1      42.046 -15.142  -0.573  1.00  0.00    -0.277 N 
HETATM    6  H   UNL     1      42.426 -15.574  -1.407  1.00  0.00     0.189 HD
HETATM    7  N   UNL     1      41.808 -13.819  -0.593  1.00  0.00    -0.168 NA
HETATM    8  C   UNL     1      41.314 -13.561   0.639  1.00  0.00     0.156 A 
HETATM    9  C   UNL     1      41.828 -17.085   1.016  1.00  0.00     0.034 A 
HETATM   10  C   UNL     1      41.411 -17.377   2.322  1.00  0.00     0.032 A 
ENDROOT
BRANCH   1  11
HETATM   11  N   UNL     1      40.528 -16.836   4.469  1.00  0.00    -0.324 N 
HETATM   12  C   UNL     1      40.880 -16.506   5.744  1.00  0.00     0.246 C 
HETATM   13  O   UNL     1      40.255 -16.997   6.683  1.00  0.00    -0.268 OA
HETATM   14  H   UNL     1      39.794 -17.536   4.489  1.00  0.00     0.169 HD
BRANCH  12  15
HETATM   15  C   UNL     1      42.046 -15.636   5.994  1.00  0.00     0.082 C 
HETATM   16  C   UNL     1      43.305 -16.101   6.101  1.00  0.00    -0.043 C 
HETATM   17  C   UNL     1      44.482 -15.191   6.306  1.00  0.00     0.049 C 
BRANCH  16  18
HETATM   18  C   UNL     1      43.621 -17.538   6.039  1.00  0.00     0.009 A 
HETATM   19  C   UNL     1      43.533 -18.348   7.180  1.00  0.00     0.130 A 
HETATM   20  F   UNL     1      43.124 -17.830   8.348  1.00  0.00    -0.205 F 
HETATM   21  C   UNL     1      43.862 -19.698   7.130  1.00  0.00     0.085 A 
HETATM   22  C   UNL     1      44.274 -20.245   5.923  1.00  0.00     0.119 A 
HETATM   23  F   UNL     1      44.590 -21.545   5.862  1.00  0.00    -0.206 F 
HETATM   24  C   UNL     1      44.362 -19.467   4.771  1.00  0.00     0.043 A 
HETATM   25  C   UNL     1      44.038 -18.110   4.828  1.00  0.00     0.018 A 
ENDBRANCH  16  18
ENDBRANCH  12  15
ENDBRANCH   1  11
BRANCH   8  26
HETATM   26  C   UNL     1      40.918 -12.203   1.040  1.00  0.00     0.270 C 
HETATM   27  N   UNL     1      41.969 -11.383   1.345  1.00  0.00    -0.365 N 
HETATM   28  H   UNL     1      42.910 -11.754   1.281  1.00  0.00     0.159 HD
HETATM   29  H   UNL     1      41.798 -10.434   1.639  1.00  0.00     0.159 HD
HETATM   30  O   UNL     1      39.758 -11.811   1.108  1.00  0.00    -0.266 OA
ENDBRANCH   8  26
TORSDOF 4
ENDMDL
MODEL 3
REMARK VINA RESULT:      -8.0      3.445      4.903
REMARK  4 active torsions:
REMARK  status: ('A' for Active; 'I' for Inactive)
REMARK    1  A    between atoms: C_2  and  C_3 
REMARK    2  A    between atoms: C_11  and  C_12 
REMARK       I    between atoms: C_12  and  N_13 
REMARK    3  A    between atoms: N_13  and  C_14 
REMARK    4  A    between atoms: C_21  and  C_22 
REMARK       I    between atoms: C_22  and  N_23 
ROOT
HETATM    1  C   UNL     1      43.725 -16.560   2.748  1.00  0.00     0.035 A 
HETATM    2  C   UNL     1      44.029 -17.610   3.622  1.00  0.00     0.046 A 
HETATM    3  C   UNL     1      44.002 -18.943   3.153  1.00  0.00     0.030 A 
HETATM    4  C   UNL     1      43.688 -19.184   1.823  1.00  0.00     0.063 A 
HETATM    5  N   UNL     1      43.749 -20.542   1.675  1.00  0.00    -0.277 N 
HETATM    6  H   UNL     1      43.578 -21.077   0.832  1.00  0.00     0.189 HD
HETATM    7  N   UNL     1      44.076 -21.209   2.796  1.00  0.00    -0.168 NA
HETATM    8  C   UNL     1      44.238 -20.233   3.717  1.00  0.00     0.156 A 
HETATM    9  C   UNL     1      43.394 -18.166   0.917  1.00  0.00     0.034 A 
HETATM   10  C   UNL     1      43.423 -16.854   1.409  1.00  0.00     0.032 A 
ENDROOT
BRANCH   1  11
HETATM   11  N   UNL     1      43.731 -15.197   3.094  1.00  0.00    -0.324 N 
HETATM   12  C   UNL     1      43.331 -14.490   4.189  1.00  0.00     0.246 C 
HETATM   13  O   UNL     1      43.583 -13.287   4.250  1.00  0.00    -0.268 OA
HETATM   14  H   UNL     1      44.149 -14.567   2.417  1.00  0.00     0.169 HD
BRANCH  12  15
HETATM   15  C   UNL     1      42.536 -15.144   5.247  1.00  0.00     0.082 C 
HETATM   16  C   UNL     1      41.216 -15.383   5.139  1.00  0.00    -0.043 C 
HETATM   17  C   UNL     1      40.438 -16.093   6.209  1.00  0.00     0.049 C 
BRANCH  16  18
HETATM   18  C   UNL     1      40.431 -14.951   3.969  1.00  0.00     0.009 A 
HETATM   19  C   UNL     1      40.130 -15.843   2.931  1.00  0.00     0.130 A 
HETATM   20  F   UNL     1      40.524 -17.124   3.002  1.00  0.00    -0.205 F 
HETATM   21  C   UNL     1      39.417 -15.428   1.811  1.00  0.00     0.085 A 
HETATM   22  C   UNL     1      38.994 -14.108   1.735  1.00  0.00     0.119 A 
HETATM   23  F   UNL     1      38.304 -13.698   0.663  1.00  0.00    -0.206 F 
HETATM   24  C   UNL     1      39.271 -13.202   2.756  1.00  0.00     0.043 A 
HETATM   25  C   UNL     1      39.993 -13.622   3.874  1.00  0.00     0.018 A 
ENDBRANCH  16  18
ENDBRANCH  12  15
ENDBRANCH   1  11
BRANCH   8  26
HETATM   26  C   UNL     1      44.605 -20.540   5.107  1.00  0.00     0.270 C 
HETATM   27  N   UNL     1      44.977 -21.840   5.312  1.00  0.00    -0.365 N 
HETATM   28  H   UNL     1      44.968 -22.478   4.525  1.00  0.00     0.159 HD
HETATM   29  H   UNL     1      45.238 -22.149   6.236  1.00  0.00     0.159 HD
HETATM   30  O   UNL     1      44.588 -19.726   6.024  1.00  0.00    -0.266 OA
ENDBRANCH   8  26
TORSDOF 4
ENDMDL
MODEL 4
REMARK VINA RESULT:      -7.9      3.342      6.990
REMARK  4 active torsions:
REMARK  status: ('A' for Active; 'I' for Inactive)
REMARK    1  A    between atoms: C_2  and  C_3 
REMARK    2  A    between atoms: C_11  and  C_12 
REMARK       I    between atoms: C_12  and  N_13 
REMARK    3  A    between atoms: N_13  and  C_14 
REMARK    4  A    between atoms: C_21  and  C_22 
REMARK       I    between atoms: C_22  and  N_23 
ROOT
HETATM    1  C   UNL     1      41.457 -13.488   1.241  1.00  0.00     0.035 A 
HETATM    2  C   UNL     1      41.342 -14.062  -0.031  1.00  0.00     0.046 A 
HETATM    3  C   UNL     1      40.088 -14.080  -0.682  1.00  0.00     0.030 A 
HETATM    4  C   UNL     1      38.992 -13.511  -0.049  1.00  0.00     0.063 A 
HETATM    5  N   UNL     1      37.946 -13.677  -0.915  1.00  0.00    -0.277 N 
HETATM    6  H   UNL     1      36.986 -13.380  -0.783  1.00  0.00     0.189 HD
HETATM    7  N   UNL     1      38.266 -14.306  -2.059  1.00  0.00    -0.168 NA
HETATM    8  C   UNL     1      39.588 -14.559  -1.930  1.00  0.00     0.156 A 
HETATM    9  C   UNL     1      39.067 -12.916   1.209  1.00  0.00     0.034 A 
HETATM   10  C   UNL     1      40.321 -12.916   1.834  1.00  0.00     0.032 A 
ENDROOT
BRANCH   1  11
HETATM   11  N   UNL     1      42.650 -13.399   1.980  1.00  0.00    -0.324 N 
HETATM   12  C   UNL     1      43.014 -13.748   3.247  1.00  0.00     0.246 C 
HETATM   13  O   UNL     1      44.195 -13.655   3.578  1.00  0.00    -0.268 OA
HETATM   14  H   UNL     1      43.455 -13.029   1.486  1.00  0.00     0.169 HD
BRANCH  12  15
HETATM   15  C   UNL     1      41.989 -14.152   4.231  1.00  0.00     0.082 C 
HETATM   16  C   UNL     1      41.613 -15.430   4.425  1.00  0.00    -0.043 C 
HETATM   17  C   UNL     1      40.605 -15.821   5.466  1.00  0.00     0.049 C 
BRANCH  16  18
HETATM   18  C   UNL     1      42.152 -16.539   3.619  1.00  0.00     0.009 A 
HETATM   19  C   UNL     1      41.468 -17.014   2.492  1.00  0.00     0.130 A 
HETATM   20  F   UNL     1      40.318 -16.440   2.106  1.00  0.00    -0.205 F 
HETATM   21  C   UNL     1      41.961 -18.083   1.750  1.00  0.00     0.085 A 
HETATM   22  C   UNL     1      43.155 -18.674   2.135  1.00  0.00     0.119 A 
HETATM   23  F   UNL     1      43.641 -19.701   1.425  1.00  0.00    -0.206 F 
HETATM   24  C   UNL     1      43.862 -18.217   3.244  1.00  0.00     0.043 A 
HETATM   25  C   UNL     1      43.360 -17.149   3.990  1.00  0.00     0.018 A 
ENDBRANCH  16  18
ENDBRANCH  12  15
ENDBRANCH   1  11
BRANCH   8  26
HETATM   26  C   UNL     1      40.345 -15.251  -2.982  1.00  0.00     0.270 C 
HETATM   27  N   UNL     1      39.837 -16.473  -3.325  1.00  0.00    -0.365 N 
HETATM   28  H   UNL     1      39.009 -16.808  -2.844  1.00  0.00     0.159 HD
HETATM   29  H   UNL     1      40.293 -17.028  -4.032  1.00  0.00     0.159 HD
HETATM   30  O   UNL     1      41.349 -14.800  -3.524  1.00  0.00    -0.266 OA
ENDBRANCH   8  26
TORSDOF 4
ENDMDL
MODEL 5
REMARK VINA RESULT:      -7.8      4.184      7.196
REMARK  4 active torsions:
REMARK  status: ('A' for Active; 'I' for Inactive)
REMARK    1  A    between atoms: C_2  and  C_3 
REMARK    2  A    between atoms: C_11  and  C_12 
REMARK       I    between atoms: C_12  and  N_13 
REMARK    3  A    between atoms: N_13  and  C_14 
REMARK    4  A    between atoms: C_21  and  C_22 
REMARK       I    between atoms: C_22  and  N_23 
ROOT
HETATM    1  C   UNL     1      41.016 -15.213  -0.718  1.00  0.00     0.035 A 
HETATM    2  C   UNL     1      41.444 -13.885  -0.614  1.00  0.00     0.046 A 
HETATM    3  C   UNL     1      41.817 -13.176  -1.778  1.00  0.00     0.030 A 
HETATM    4  C   UNL     1      41.737 -13.810  -3.009  1.00  0.00     0.063 A 
HETATM    5  N   UNL     1      42.152 -12.882  -3.924  1.00  0.00    -0.277 N 
HETATM    6  H   UNL     1      42.220 -12.998  -4.929  1.00  0.00     0.189 HD
HETATM    7  N   UNL     1      42.496 -11.696  -3.395  1.00  0.00    -0.168 NA
HETATM    8  C   UNL     1      42.293 -11.861  -2.069  1.00  0.00     0.156 A 
HETATM    9  C   UNL     1      41.300 -15.125  -3.157  1.00  0.00     0.034 A 
HETATM   10  C   UNL     1      40.941 -15.808  -1.987  1.00  0.00     0.032 A 
ENDROOT
BRANCH   1  11
HETATM   11  N   UNL     1      40.607 -16.015   0.364  1.00  0.00    -0.324 N 
HETATM   12  C   UNL     1      40.758 -15.938   1.717  1.00  0.00     0.246 C 
HETATM   13  O   UNL     1      40.168 -16.747   2.432  1.00  0.00    -0.268 OA
HETATM   14  H   UNL     1      40.041 -16.824   0.130  1.00  0.00     0.169 HD
BRANCH  12  15
HETATM   15  C   UNL     1      41.682 -14.950   2.308  1.00  0.00     0.082 C 
HETATM   16  C   UNL     1      42.839 -15.286   2.909  1.00  0.00    -0.043 C 
HETATM   17  C   UNL     1      43.786 -14.259   3.459  1.00  0.00     0.049 C 
BRANCH  16  18
HETATM   18  C   UNL     1      43.255 -16.688   3.085  1.00  0.00     0.009 A 
HETATM   19  C   UNL     1      43.736 -17.441   2.005  1.00  0.00     0.130 A 
HETATM   20  F   UNL     1      43.859 -16.883   0.791  1.00  0.00    -0.205 F 
HETATM   21  C   UNL     1      44.099 -18.775   2.164  1.00  0.00     0.085 A 
HETATM   22  C   UNL     1      43.988 -19.357   3.419  1.00  0.00     0.119 A 
HETATM   23  F   UNL     1      44.337 -20.639   3.585  1.00  0.00    -0.206 F 
HETATM   24  C   UNL     1      43.522 -18.630   4.512  1.00  0.00     0.043 A 
HETATM   25  C   UNL     1      43.151 -17.294   4.346  1.00  0.00     0.018 A 
ENDBRANCH  16  18
ENDBRANCH  12  15
ENDBRANCH   1  11
BRANCH   8  26
HETATM   26  C   UNL     1      42.557 -10.780  -1.109  1.00  0.00     0.270 C 
HETATM   27  N   UNL     1      41.778  -9.671  -1.290  1.00  0.00    -0.365 N 
HETATM   28  H   UNL     1      41.104  -9.668  -2.047  1.00  0.00     0.159 HD
HETATM   29  H   UNL     1      41.891  -8.872  -0.685  1.00  0.00     0.159 HD
HETATM   30  O   UNL     1      43.394 -10.837  -0.215  1.00  0.00    -0.266 OA
ENDBRANCH   8  26
TORSDOF 4
ENDMDL
MODEL 6
REMARK VINA RESULT:      -7.8      2.344      2.908
REMARK  4 active torsions:
REMARK  status: ('A' for Active; 'I' for Inactive)
REMARK    1  A    between atoms: C_2  and  C_3 
REMARK    2  A    between atoms: C_11  and  C_12 
REMARK       I    between atoms: C_12  and  N_13 
REMARK    3  A    between atoms: N_13  and  C_14 
REMARK    4  A    between atoms: C_21  and  C_22 
REMARK       I    between atoms: C_22  and  N_23 
ROOT
HETATM    1  C   UNL     1      43.515 -16.016   2.864  1.00  0.00     0.035 A 
HETATM    2  C   UNL     1      43.350 -16.386   4.204  1.00  0.00     0.046 A 
HETATM    3  C   UNL     1      43.539 -17.732   4.589  1.00  0.00     0.030 A 
HETATM    4  C   UNL     1      43.902 -18.664   3.627  1.00  0.00     0.063 A 
HETATM    5  N   UNL     1      44.014 -19.852   4.295  1.00  0.00    -0.277 N 
HETATM    6  H   UNL     1      44.266 -20.753   3.908  1.00  0.00     0.189 HD
HETATM    7  N   UNL     1      43.754 -19.775   5.612  1.00  0.00    -0.168 NA
HETATM    8  C   UNL     1      43.461 -18.470   5.809  1.00  0.00     0.156 A 
HETATM    9  C   UNL     1      44.092 -18.334   2.286  1.00  0.00     0.034 A 
HETATM   10  C   UNL     1      43.893 -16.993   1.931  1.00  0.00     0.032 A 
ENDROOT
BRANCH   1  11
HETATM   11  N   UNL     1      43.367 -14.710   2.364  1.00  0.00    -0.324 N 
HETATM   12  C   UNL     1      42.319 -13.844   2.257  1.00  0.00     0.246 C 
HETATM   13  O   UNL     1      42.530 -12.693   1.876  1.00  0.00    -0.268 OA
HETATM   14  H   UNL     1      44.214 -14.262   2.030  1.00  0.00     0.169 HD
BRANCH  12  15
HETATM   15  C   UNL     1      40.941 -14.307   2.515  1.00  0.00     0.082 C 
HETATM   16  C   UNL     1      40.071 -14.618   1.536  1.00  0.00    -0.043 C 
HETATM   17  C   UNL     1      38.690 -15.134   1.825  1.00  0.00     0.049 C 
BRANCH  16  18
HETATM   18  C   UNL     1      40.402 -14.461   0.110  1.00  0.00     0.009 A 
HETATM   19  C   UNL     1      41.010 -15.498  -0.611  1.00  0.00     0.130 A 
HETATM   20  F   UNL     1      41.272 -16.672  -0.017  1.00  0.00    -0.205 F 
HETATM   21  C   UNL     1      41.352 -15.339  -1.949  1.00  0.00     0.085 A 
HETATM   22  C   UNL     1      41.073 -14.132  -2.575  1.00  0.00     0.119 A 
HETATM   23  F   UNL     1      41.394 -13.969  -3.865  1.00  0.00    -0.206 F 
HETATM   24  C   UNL     1      40.460 -13.088  -1.888  1.00  0.00     0.043 A 
HETATM   25  C   UNL     1      40.126 -13.250  -0.541  1.00  0.00     0.018 A 
ENDBRANCH  16  18
ENDBRANCH  12  15
ENDBRANCH   1  11
BRANCH   8  26
HETATM   26  C   UNL     1      43.110 -17.952   7.138  1.00  0.00     0.270 C 
HETATM   27  N   UNL     1      43.778 -18.556   8.167  1.00  0.00    -0.365 N 
HETATM   28  H   UNL     1      44.438 -19.294   7.951  1.00  0.00     0.159 HD
HETATM   29  H   UNL     1      43.598 -18.275   9.119  1.00  0.00     0.159 HD
HETATM   30  O   UNL     1      42.293 -17.059   7.341  1.00  0.00    -0.266 OA
ENDBRANCH   8  26
TORSDOF 4
ENDMDL
MODEL 7
REMARK VINA RESULT:      -7.7      4.256      7.393
REMARK  4 active torsions:
REMARK  status: ('A' for Active; 'I' for Inactive)
REMARK    1  A    between atoms: C_2  and  C_3 
REMARK    2  A    between atoms: C_11  and  C_12 
REMARK       I    between atoms: C_12  and  N_13 
REMARK    3  A    between atoms: N_13  and  C_14 
REMARK    4  A    between atoms: C_21  and  C_22 
REMARK       I    between atoms: C_22  and  N_23 
ROOT
HETATM    1  C   UNL     1      40.777 -14.836  -0.647  1.00  0.00     0.035 A 
HETATM    2  C   UNL     1      41.325 -13.552  -0.548  1.00  0.00     0.046 A 
HETATM    3  C   UNL     1      41.847 -12.921  -1.700  1.00  0.00     0.030 A 
HETATM    4  C   UNL     1      41.792 -13.587  -2.916  1.00  0.00     0.063 A 
HETATM    5  N   UNL     1      42.359 -12.734  -3.823  1.00  0.00    -0.277 N 
HETATM    6  H   UNL     1      42.487 -12.889  -4.816  1.00  0.00     0.189 HD
HETATM    7  N   UNL     1      42.779 -11.568  -3.301  1.00  0.00    -0.168 NA
HETATM    8  C   UNL     1      42.468 -11.669  -1.990  1.00  0.00     0.156 A 
HETATM    9  C   UNL     1      41.241 -14.859  -3.060  1.00  0.00     0.034 A 
HETATM   10  C   UNL     1      40.735 -15.463  -1.902  1.00  0.00     0.032 A 
ENDROOT
BRANCH   1  11
HETATM   11  N   UNL     1      40.217 -15.558   0.422  1.00  0.00    -0.324 N 
HETATM   12  C   UNL     1      40.684 -16.518   1.272  1.00  0.00     0.246 C 
HETATM   13  O   UNL     1      39.976 -16.882   2.210  1.00  0.00    -0.268 OA
HETATM   14  H   UNL     1      39.264 -15.317   0.673  1.00  0.00     0.169 HD
BRANCH  12  15
HETATM   15  C   UNL     1      41.984 -17.168   1.018  1.00  0.00     0.082 C 
HETATM   16  C   UNL     1      43.077 -16.956   1.774  1.00  0.00    -0.043 C 
HETATM   17  C   UNL     1      44.376 -17.667   1.525  1.00  0.00     0.049 C 
BRANCH  16  18
HETATM   18  C   UNL     1      43.085 -16.000   2.894  1.00  0.00     0.009 A 
HETATM   19  C   UNL     1      42.839 -16.421   4.208  1.00  0.00     0.130 A 
HETATM   20  F   UNL     1      42.624 -17.719   4.474  1.00  0.00    -0.205 F 
HETATM   21  C   UNL     1      42.815 -15.514   5.261  1.00  0.00     0.085 A 
HETATM   22  C   UNL     1      43.049 -14.172   4.998  1.00  0.00     0.119 A 
HETATM   23  F   UNL     1      43.031 -13.289   6.005  1.00  0.00    -0.206 F 
HETATM   24  C   UNL     1      43.306 -13.725   3.704  1.00  0.00     0.043 A 
HETATM   25  C   UNL     1      43.321 -14.639   2.648  1.00  0.00     0.018 A 
ENDBRANCH  16  18
ENDBRANCH  12  15
ENDBRANCH   1  11
BRANCH   8  26
HETATM   26  C   UNL     1      42.766 -10.586  -1.042  1.00  0.00     0.270 C 
HETATM   27  N   UNL     1      41.661  -9.914  -0.596  1.00  0.00    -0.365 N 
HETATM   28  H   UNL     1      40.750 -10.195  -0.940  1.00  0.00     0.159 HD
HETATM   29  H   UNL     1      41.766  -9.148   0.052  1.00  0.00     0.159 HD
HETATM   30  O   UNL     1      43.894 -10.285  -0.667  1.00  0.00    -0.266 OA
ENDBRANCH   8  26
TORSDOF 4
ENDMDL
MODEL 8
REMARK VINA RESULT:      -7.7      3.697      6.973
REMARK  4 active torsions:
REMARK  status: ('A' for Active; 'I' for Inactive)
REMARK    1  A    between atoms: C_2  and  C_3 
REMARK    2  A    between atoms: C_11  and  C_12 
REMARK       I    between atoms: C_12  and  N_13 
REMARK    3  A    between atoms: N_13  and  C_14 
REMARK    4  A    between atoms: C_21  and  C_22 
REMARK       I    between atoms: C_22  and  N_23 
ROOT
HETATM    1  C   UNL     1      39.685 -14.595   1.949  1.00  0.00     0.035 A 
HETATM    2  C   UNL     1      40.188 -14.875   0.674  1.00  0.00     0.046 A 
HETATM    3  C   UNL     1      39.985 -13.953  -0.378  1.00  0.00     0.030 A 
HETATM    4  C   UNL     1      39.299 -12.775  -0.119  1.00  0.00     0.063 A 
HETATM    5  N   UNL     1      39.270 -12.102  -1.309  1.00  0.00    -0.277 N 
HETATM    6  H   UNL     1      38.850 -11.198  -1.494  1.00  0.00     0.189 HD
HETATM    7  N   UNL     1      39.878 -12.741  -2.324  1.00  0.00    -0.168 NA
HETATM    8  C   UNL     1      40.326 -13.886  -1.763  1.00  0.00     0.156 A 
HETATM    9  C   UNL     1      38.797 -12.451   1.140  1.00  0.00     0.034 A 
HETATM   10  C   UNL     1      39.008 -13.385   2.164  1.00  0.00     0.032 A 
ENDROOT
BRANCH   1  11
HETATM   11  N   UNL     1      39.835 -15.426   3.075  1.00  0.00    -0.324 N 
HETATM   12  C   UNL     1      40.699 -15.454   4.129  1.00  0.00     0.246 C 
HETATM   13  O   UNL     1      40.499 -16.250   5.045  1.00  0.00    -0.268 OA
HETATM   14  H   UNL     1      39.144 -16.161   3.182  1.00  0.00     0.169 HD
BRANCH  12  15
HETATM   15  C   UNL     1      41.903 -14.599   4.129  1.00  0.00     0.082 C 
HETATM   16  C   UNL     1      43.092 -14.995   3.638  1.00  0.00    -0.043 C 
HETATM   17  C   UNL     1      44.289 -14.089   3.604  1.00  0.00     0.049 C 
BRANCH  16  18
HETATM   18  C   UNL     1      43.311 -16.353   3.111  1.00  0.00     0.009 A 
HETATM   19  C   UNL     1      43.608 -17.423   3.966  1.00  0.00     0.130 A 
HETATM   20  F   UNL     1      43.663 -17.233   5.294  1.00  0.00    -0.205 F 
HETATM   21  C   UNL     1      43.847 -18.698   3.466  1.00  0.00     0.085 A 
HETATM   22  C   UNL     1      43.779 -18.907   2.096  1.00  0.00     0.119 A 
HETATM   23  F   UNL     1      44.004 -20.132   1.603  1.00  0.00    -0.206 F 
HETATM   24  C   UNL     1      43.477 -17.865   1.223  1.00  0.00     0.043 A 
HETATM   25  C   UNL     1      43.246 -16.584   1.729  1.00  0.00     0.018 A 
ENDBRANCH  16  18
ENDBRANCH  12  15
ENDBRANCH   1  11
BRANCH   8  26
HETATM   26  C   UNL     1      41.060 -14.890  -2.545  1.00  0.00     0.270 C 
HETATM   27  N   UNL     1      42.172 -14.404  -3.175  1.00  0.00    -0.365 N 
HETATM   28  H   UNL     1      42.401 -13.422  -3.068  1.00  0.00     0.159 HD
HETATM   29  H   UNL     1      42.737 -15.016  -3.743  1.00  0.00     0.159 HD
HETATM   30  O   UNL     1      40.730 -16.067  -2.645  1.00  0.00    -0.266 OA
ENDBRANCH   8  26
TORSDOF 4
ENDMDL
MODEL 9
REMARK VINA RESULT:      -7.7      3.946      5.765
REMARK  4 active torsions:
REMARK  status: ('A' for Active; 'I' for Inactive)
REMARK    1  A    between atoms: C_2  and  C_3 
REMARK    2  A    between atoms: C_11  and  C_12 
REMARK       I    between atoms: C_12  and  N_13 
REMARK    3  A    between atoms: N_13  and  C_14 
REMARK    4  A    between atoms: C_21  and  C_22 
REMARK       I    between atoms: C_22  and  N_23 
ROOT
HETATM    1  C   UNL     1      43.418 -15.062   3.679  1.00  0.00     0.035 A 
HETATM    2  C   UNL     1      43.482 -16.378   3.208  1.00  0.00     0.046 A 
HETATM    3  C   UNL     1      43.603 -17.446   4.124  1.00  0.00     0.030 A 
HETATM    4  C   UNL     1      43.641 -17.168   5.483  1.00  0.00     0.063 A 
HETATM    5  N   UNL     1      43.754 -18.383   6.101  1.00  0.00    -0.277 N 
HETATM    6  H   UNL     1      43.808 -18.564   7.096  1.00  0.00     0.189 HD
HETATM    7  N   UNL     1      43.794 -19.431   5.260  1.00  0.00    -0.168 NA
HETATM    8  C   UNL     1      43.700 -18.868   4.035  1.00  0.00     0.156 A 
HETATM    9  C   UNL     1      43.563 -15.873   5.994  1.00  0.00     0.034 A 
HETATM   10  C   UNL     1      43.449 -14.832   5.063  1.00  0.00     0.032 A 
ENDROOT
BRANCH   1  11
HETATM   11  N   UNL     1      43.284 -13.921   2.867  1.00  0.00    -0.324 N 
HETATM   12  C   UNL     1      42.319 -13.463   2.019  1.00  0.00     0.246 C 
HETATM   13  O   UNL     1      42.436 -12.340   1.530  1.00  0.00    -0.268 OA
HETATM   14  H   UNL     1      44.038 -13.244   2.921  1.00  0.00     0.169 HD
BRANCH  12  15
HETATM   15  C   UNL     1      41.194 -14.337   1.631  1.00  0.00     0.082 C 
HETATM   16  C   UNL     1      40.042 -14.410   2.322  1.00  0.00    -0.043 C 
HETATM   17  C   UNL     1      38.893 -15.269   1.879  1.00  0.00     0.049 C 
BRANCH  16  18
HETATM   18  C   UNL     1      39.827 -13.664   3.574  1.00  0.00     0.009 A 
HETATM   19  C   UNL     1      39.981 -14.283   4.821  1.00  0.00     0.130 A 
HETATM   20  F   UNL     1      40.363 -15.567   4.898  1.00  0.00    -0.205 F 
HETATM   21  C   UNL     1      39.747 -13.588   6.003  1.00  0.00     0.085 A 
HETATM   22  C   UNL     1      39.364 -12.256   5.934  1.00  0.00     0.119 A 
HETATM   23  F   UNL     1      39.139 -11.575   7.066  1.00  0.00    -0.206 F 
HETATM   24  C   UNL     1      39.212 -11.612   4.709  1.00  0.00     0.043 A 
HETATM   25  C   UNL     1      39.441 -12.316   3.525  1.00  0.00     0.018 A 
ENDBRANCH  16  18
ENDBRANCH  12  15
ENDBRANCH   1  11
BRANCH   8  26
HETATM   26  C   UNL     1      43.708 -19.682   2.811  1.00  0.00     0.270 C 
HETATM   27  N   UNL     1      44.750 -20.564   2.735  1.00  0.00    -0.365 N 
HETATM   28  H   UNL     1      45.421 -20.592   3.494  1.00  0.00     0.159 HD
HETATM   29  H   UNL     1      44.846 -21.161   1.927  1.00  0.00     0.159 HD
HETATM   30  O   UNL     1      42.871 -19.599   1.919  1.00  0.00    -0.266 OA
ENDBRANCH   8  26
TORSDOF 4
ENDMDL
MODEL 10
REMARK VINA RESULT:      -7.6      3.405      7.152
REMARK  4 active torsions:
REMARK  status: ('A' for Active; 'I' for Inactive)
REMARK    1  A    between atoms: C_2  and  C_3 
REMARK    2  A    between atoms: C_11  and  C_12 
REMARK       I    between atoms: C_12  and  N_13 
REMARK    3  A    between atoms: N_13  and  C_14 
REMARK    4  A    between atoms: C_21  and  C_22 
REMARK       I    between atoms: C_22  and  N_23 
ROOT
HETATM    1  C   UNL     1      41.626 -13.893   2.345  1.00  0.00     0.035 A 
HETATM    2  C   UNL     1      41.767 -14.021   0.958  1.00  0.00     0.046 A 
HETATM    3  C   UNL     1      40.617 -14.110   0.141  1.00  0.00     0.030 A 
HETATM    4  C   UNL     1      39.363 -14.053   0.733  1.00  0.00     0.063 A 
HETATM    5  N   UNL     1      38.470 -14.157  -0.297  1.00  0.00    -0.277 N 
HETATM    6  H   UNL     1      37.458 -14.151  -0.236  1.00  0.00     0.189 HD
HETATM    7  N   UNL     1      39.034 -14.278  -1.511  1.00  0.00    -0.168 NA
HETATM    8  C   UNL     1      40.361 -14.248  -1.256  1.00  0.00     0.156 A 
HETATM    9  C   UNL     1      39.180 -13.910   2.107  1.00  0.00     0.034 A 
HETATM   10  C   UNL     1      40.336 -13.829   2.895  1.00  0.00     0.032 A 
ENDROOT
BRANCH   1  11
HETATM   11  N   UNL     1      42.691 -13.782   3.257  1.00  0.00    -0.324 N 
HETATM   12  C   UNL     1      42.918 -14.249   4.518  1.00  0.00     0.246 C 
HETATM   13  O   UNL     1      44.026 -14.085   5.026  1.00  0.00    -0.268 OA
HETATM   14  H   UNL     1      43.508 -13.278   2.929  1.00  0.00     0.169 HD
BRANCH  12  15
HETATM   15  C   UNL     1      41.823 -14.868   5.290  1.00  0.00     0.082 C 
HETATM   16  C   UNL     1      41.600 -16.196   5.324  1.00  0.00    -0.043 C 
HETATM   17  C   UNL     1      40.510 -16.806   6.157  1.00  0.00     0.049 C 
BRANCH  16  18
HETATM   18  C   UNL     1      42.401 -17.148   4.536  1.00  0.00     0.009 A 
HETATM   19  C   UNL     1      41.994 -17.550   3.256  1.00  0.00     0.130 A 
HETATM   20  F   UNL     1      40.878 -17.044   2.710  1.00  0.00    -0.205 F 
HETATM   21  C   UNL     1      42.733 -18.473   2.524  1.00  0.00     0.085 A 
HETATM   22  C   UNL     1      43.896 -18.992   3.076  1.00  0.00     0.119 A 
HETATM   23  F   UNL     1      44.618 -19.879   2.379  1.00  0.00    -0.206 F 
HETATM   24  C   UNL     1      44.330 -18.604   4.341  1.00  0.00     0.043 A 
HETATM   25  C   UNL     1      43.581 -17.682   5.075  1.00  0.00     0.018 A 
ENDBRANCH  16  18
ENDBRANCH  12  15
ENDBRANCH   1  11
BRANCH   8  26
HETATM   26  C   UNL     1      41.355 -14.356  -2.334  1.00  0.00     0.270 C 
HETATM   27  N   UNL     1      41.486 -15.616  -2.848  1.00  0.00    -0.365 N 
HETATM   28  H   UNL     1      40.916 -16.361  -2.463  1.00  0.00     0.159 HD
HETATM   29  H   UNL     1      42.150 -15.792  -3.587  1.00  0.00     0.159 HD
HETATM   30  O   UNL     1      42.024 -13.419  -2.755  1.00  0.00    -0.266 OA
ENDBRANCH   8  26
TORSDOF 4
ENDMDL
