MODEL 1
REMARK VINA RESULT:     -10.2      0.000      0.000
REMARK  3 active torsions:
REMARK  status: ('A' for Active; 'I' for Inactive)
REMARK    1  A    between atoms: C_5  and  C_6 
REMARK    2  A    between atoms: C_10  and  N_11 
REMARK    3  A    between atoms: N_11  and  N_12 
ROOT
HETATM    1  N   UNL     1      40.880 -16.121   0.165  1.00  0.00    -0.261 N 
HETATM    2  H   UNL     1      40.434 -15.399   0.737  1.00  0.00     0.191 HD
ENDROOT
BRANCH   1   3
HETATM    3  C   UNL     1      41.857 -16.873   0.733  1.00  0.00     0.140 A 
HETATM    4  N   UNL     1      43.174 -16.544   0.607  1.00  0.00    -0.261 N 
HETATM    5  N   UNL     1      44.015 -17.378   1.233  1.00  0.00    -0.172 NA
HETATM    6  H   UNL     1      43.573 -15.764   0.101  1.00  0.00     0.191 HD
HETATM    7  C   UNL     1      43.217 -18.301   1.803  1.00  0.00     0.090 A 
HETATM    8  C   UNL     1      41.851 -18.019   1.498  1.00  0.00     0.085 A 
BRANCH   7   9
HETATM    9  C   UNL     1      43.783 -19.385   2.625  1.00  0.00    -0.006 A 
HETATM   10  C   UNL     1      44.174 -19.134   3.952  1.00  0.00     0.014 A 
HETATM   11  C   UNL     1      44.657 -20.157   4.774  1.00  0.00     0.007 A 
HETATM   12  C   UNL     1      44.768 -21.462   4.288  1.00  0.00    -0.062 A 
HETATM   13  C   UNL     1      45.236 -22.577   5.177  1.00  0.00     0.048 C 
HETATM   14  C   UNL     1      44.403 -21.719   2.961  1.00  0.00     0.007 A 
HETATM   15  C   UNL     1      43.918 -20.692   2.138  1.00  0.00     0.014 A 
ENDBRANCH   7   9
ENDBRANCH   1   3
BRANCH   1  16
HETATM   16  N   UNL     1      40.860 -15.922  -1.188  1.00  0.00    -0.166 NA
HETATM   17  C   UNL     1      41.035 -14.714  -1.647  1.00  0.00     0.169 C 
HETATM   18  C   UNL     1      41.126 -14.484  -3.144  1.00  0.00     0.278 C 
HETATM   19  C   UNL     1      41.130 -13.512  -0.775  1.00  0.00     0.067 C 
HETATM   20  O   UNL     1      40.760 -15.361  -3.921  1.00  0.00    -0.265 OA
HETATM   21  N   UNL     1      41.543 -13.265  -3.646  1.00  0.00    -0.319 N 
HETATM   22  C   UNL     1      42.072 -12.088  -3.053  1.00  0.00     0.064 A 
HETATM   23  H   UNL     1      41.454 -13.253  -4.656  1.00  0.00     0.169 HD
HETATM   24  C   UNL     1      42.434 -11.933  -1.693  1.00  0.00     0.084 A 
HETATM   25  C   UNL     1      42.253 -11.000  -3.924  1.00  0.00     0.032 A 
HETATM   26  C   UNL     1      42.993 -10.724  -1.259  1.00  0.00     0.034 A 
HETATM   27  N   UNL     1      42.302 -12.966  -0.749  1.00  0.00    -0.249 NA
HETATM   28  C   UNL     1      43.162  -9.657  -2.139  1.00  0.00     0.002 A 
HETATM   29  C   UNL     1      42.785  -9.792  -3.470  1.00  0.00     0.002 A 
HETATM   30  C   UNL     1      39.845 -12.810  -0.451  1.00  0.00     0.073 C 
ENDBRANCH   1  16
TORSDOF 3
ENDMDL
MODEL 2
REMARK VINA RESULT:      -9.2      2.460      3.783
REMARK  3 active torsions:
REMARK  status: ('A' for Active; 'I' for Inactive)
REMARK    1  A    between atoms: C_5  and  C_6 
REMARK    2  A    between atoms: C_10  and  N_11 
REMARK    3  A    between atoms: N_11  and  N_12 
ROOT
HETATM    1  N   UNL     1      42.611 -13.595   2.449  1.00  0.00    -0.261 N 
HETATM    2  H   UNL     1      43.294 -13.103   1.868  1.00  0.00     0.191 HD
ENDROOT
BRANCH   1   3
HETATM    3  C   UNL     1      42.941 -14.827   2.917  1.00  0.00     0.140 A 
HETATM    4  N   UNL     1      42.987 -15.094   4.253  1.00  0.00    -0.261 N 
HETATM    5  N   UNL     1      43.319 -16.356   4.553  1.00  0.00    -0.172 NA
HETATM    6  H   UNL     1      42.809 -14.457   5.019  1.00  0.00     0.191 HD
HETATM    7  C   UNL     1      43.497 -16.954   3.361  1.00  0.00     0.090 A 
HETATM    8  C   UNL     1      43.279 -16.016   2.307  1.00  0.00     0.085 A 
BRANCH   7   9
HETATM    9  C   UNL     1      43.841 -18.385   3.277  1.00  0.00    -0.006 A 
HETATM   10  C   UNL     1      44.444 -19.031   4.370  1.00  0.00     0.014 A 
HETATM   11  C   UNL     1      44.725 -20.401   4.342  1.00  0.00     0.007 A 
HETATM   12  C   UNL     1      44.416 -21.162   3.213  1.00  0.00    -0.062 A 
HETATM   13  C   UNL     1      44.666 -22.642   3.190  1.00  0.00     0.048 C 
HETATM   14  C   UNL     1      43.837 -20.525   2.109  1.00  0.00     0.007 A 
HETATM   15  C   UNL     1      43.554 -19.151   2.139  1.00  0.00     0.014 A 
ENDBRANCH   7   9
ENDBRANCH   1   3
BRANCH   1  16
HETATM   16  N   UNL     1      41.299 -13.255   2.269  1.00  0.00    -0.166 NA
HETATM   17  C   UNL     1      40.778 -13.377   1.079  1.00  0.00     0.169 C 
HETATM   18  C   UNL     1      39.298 -13.110   0.876  1.00  0.00     0.278 C 
HETATM   19  C   UNL     1      41.566 -13.749  -0.126  1.00  0.00     0.067 C 
HETATM   20  O   UNL     1      38.659 -12.517   1.739  1.00  0.00    -0.265 OA
HETATM   21  N   UNL     1      38.676 -13.456  -0.310  1.00  0.00    -0.319 N 
HETATM   22  C   UNL     1      39.088 -14.178  -1.461  1.00  0.00     0.064 A 
HETATM   23  H   UNL     1      37.718 -13.123  -0.313  1.00  0.00     0.169 HD
HETATM   24  C   UNL     1      40.313 -14.872  -1.612  1.00  0.00     0.084 A 
HETATM   25  C   UNL     1      38.169 -14.200  -2.523  1.00  0.00     0.032 A 
HETATM   26  C   UNL     1      40.564 -15.586  -2.791  1.00  0.00     0.034 A 
HETATM   27  N   UNL     1      41.289 -14.920  -0.602  1.00  0.00    -0.249 NA
HETATM   28  C   UNL     1      39.640 -15.592  -3.834  1.00  0.00     0.002 A 
HETATM   29  C   UNL     1      38.446 -14.892  -3.704  1.00  0.00     0.002 A 
HETATM   30  C   UNL     1      42.175 -12.624  -0.909  1.00  0.00     0.073 C 
ENDBRANCH   1  16
TORSDOF 3
ENDMDL
MODEL 3
REMARK VINA RESULT:      -9.2      9.403     10.981
REMARK  3 active torsions:
REMARK  status: ('A' for Active; 'I' for Inactive)
REMARK    1  A    between atoms: C_5  and  C_6 
REMARK    2  A    between atoms: C_10  and  N_11 
REMARK    3  A    between atoms: N_11  and  N_12 
ROOT
HETATM    1  N   UNL     1      42.089 -11.622   7.337  1.00  0.00    -0.261 N 
HETATM    2  H   UNL     1      41.213 -11.253   7.715  1.00  0.00     0.191 HD
ENDROOT
BRANCH   1   3
HETATM    3  C   UNL     1      42.035 -12.756   6.590  1.00  0.00     0.140 A 
HETATM    4  N   UNL     1      40.850 -13.366   6.306  1.00  0.00    -0.261 N 
HETATM    5  N   UNL     1      40.962 -14.467   5.551  1.00  0.00    -0.172 NA
HETATM    6  H   UNL     1      39.922 -13.088   6.600  1.00  0.00     0.191 HD
HETATM    7  C   UNL     1      42.283 -14.590   5.322  1.00  0.00     0.090 A 
HETATM    8  C   UNL     1      42.990 -13.534   5.973  1.00  0.00     0.085 A 
BRANCH   7   9
HETATM    9  C   UNL     1      42.806 -15.682   4.483  1.00  0.00    -0.006 A 
HETATM   10  C   UNL     1      42.873 -16.991   4.991  1.00  0.00     0.014 A 
HETATM   11  C   UNL     1      43.308 -18.058   4.197  1.00  0.00     0.007 A 
HETATM   12  C   UNL     1      43.694 -17.842   2.873  1.00  0.00    -0.062 A 
HETATM   13  C   UNL     1      44.113 -18.986   1.996  1.00  0.00     0.048 C 
HETATM   14  C   UNL     1      43.654 -16.538   2.363  1.00  0.00     0.007 A 
HETATM   15  C   UNL     1      43.217 -15.470   3.160  1.00  0.00     0.014 A 
ENDBRANCH   7   9
ENDBRANCH   1   3
BRANCH   1  16
HETATM   16  N   UNL     1      43.229 -11.298   8.018  1.00  0.00    -0.166 NA
HETATM   17  C   UNL     1      43.122 -10.786   9.213  1.00  0.00     0.169 C 
HETATM   18  C   UNL     1      44.371 -10.519  10.032  1.00  0.00     0.278 C 
HETATM   19  C   UNL     1      41.821 -10.414   9.831  1.00  0.00     0.067 C 
HETATM   20  O   UNL     1      45.471 -10.513   9.486  1.00  0.00    -0.265 OA
HETATM   21  N   UNL     1      44.279 -10.202  11.374  1.00  0.00    -0.319 N 
HETATM   22  C   UNL     1      43.207 -10.172  12.305  1.00  0.00     0.064 A 
HETATM   23  H   UNL     1      45.194  -9.963  11.741  1.00  0.00     0.169 HD
HETATM   24  C   UNL     1      41.885 -10.618  12.065  1.00  0.00     0.084 A 
HETATM   25  C   UNL     1      43.523  -9.660  13.575  1.00  0.00     0.032 A 
HETATM   26  C   UNL     1      40.941 -10.574  13.098  1.00  0.00     0.034 A 
HETATM   27  N   UNL     1      41.478 -11.157  10.833  1.00  0.00    -0.249 NA
HETATM   28  C   UNL     1      41.273 -10.061  14.351  1.00  0.00     0.002 A 
HETATM   29  C   UNL     1      42.562  -9.596  14.587  1.00  0.00     0.002 A 
HETATM   30  C   UNL     1      41.330  -9.019   9.585  1.00  0.00     0.073 C 
ENDBRANCH   1  16
TORSDOF 3
ENDMDL
MODEL 4
REMARK VINA RESULT:      -9.0      2.344      2.773
REMARK  3 active torsions:
REMARK  status: ('A' for Active; 'I' for Inactive)
REMARK    1  A    between atoms: C_5  and  C_6 
REMARK    2  A    between atoms: C_10  and  N_11 
REMARK    3  A    between atoms: N_11  and  N_12 
ROOT
HETATM    1  N   UNL     1      41.703 -15.185  -0.570  1.00  0.00    -0.261 N 
HETATM    2  H   UNL     1      42.367 -14.410  -0.497  1.00  0.00     0.191 HD
ENDROOT
BRANCH   1   3
HETATM    3  C   UNL     1      41.866 -16.244   0.264  1.00  0.00     0.140 A 
HETATM    4  N   UNL     1      40.805 -16.990   0.686  1.00  0.00    -0.261 N 
HETATM    5  N   UNL     1      41.130 -18.006   1.496  1.00  0.00    -0.172 NA
HETATM    6  H   UNL     1      39.827 -16.858   0.463  1.00  0.00     0.191 HD
HETATM    7  C   UNL     1      42.469 -17.932   1.614  1.00  0.00     0.090 A 
HETATM    8  C   UNL     1      42.965 -16.826   0.860  1.00  0.00     0.085 A 
BRANCH   7   9
HETATM    9  C   UNL     1      43.213 -18.922   2.412  1.00  0.00    -0.006 A 
HETATM   10  C   UNL     1      43.589 -18.624   3.734  1.00  0.00     0.014 A 
HETATM   11  C   UNL     1      44.242 -19.567   4.535  1.00  0.00     0.007 A 
HETATM   12  C   UNL     1      44.542 -20.835   4.032  1.00  0.00    -0.062 A 
HETATM   13  C   UNL     1      45.196 -21.871   4.899  1.00  0.00     0.048 C 
HETATM   14  C   UNL     1      44.194 -21.135   2.710  1.00  0.00     0.007 A 
HETATM   15  C   UNL     1      43.539 -20.188   1.908  1.00  0.00     0.014 A 
ENDBRANCH   7   9
ENDBRANCH   1   3
BRANCH   1  16
HETATM   16  N   UNL     1      41.087 -15.347  -1.779  1.00  0.00    -0.166 NA
HETATM   17  C   UNL     1      40.098 -14.555  -2.090  1.00  0.00     0.169 C 
HETATM   18  C   UNL     1      39.469 -14.644  -3.468  1.00  0.00     0.278 C 
HETATM   19  C   UNL     1      39.515 -13.563  -1.148  1.00  0.00     0.067 C 
HETATM   20  O   UNL     1      39.685 -15.621  -4.178  1.00  0.00    -0.265 OA
HETATM   21  N   UNL     1      38.588 -13.671  -3.904  1.00  0.00    -0.319 N 
HETATM   22  C   UNL     1      38.167 -12.420  -3.379  1.00  0.00     0.064 A 
HETATM   23  H   UNL     1      38.193 -13.933  -4.801  1.00  0.00     0.169 HD
HETATM   24  C   UNL     1      38.700 -11.778  -2.236  1.00  0.00     0.084 A 
HETATM   25  C   UNL     1      37.137 -11.782  -4.089  1.00  0.00     0.032 A 
HETATM   26  C   UNL     1      38.219 -10.516  -1.863  1.00  0.00     0.034 A 
HETATM   27  N   UNL     1      39.740 -12.330  -1.469  1.00  0.00    -0.249 NA
HETATM   28  C   UNL     1      37.194  -9.901  -2.580  1.00  0.00     0.002 A 
HETATM   29  C   UNL     1      36.647 -10.537  -3.689  1.00  0.00     0.002 A 
HETATM   30  C   UNL     1      38.386 -14.035  -0.282  1.00  0.00     0.073 C 
ENDBRANCH   1  16
TORSDOF 3
ENDMDL
MODEL 5
REMARK VINA RESULT:      -8.9      2.939      4.349
REMARK  3 active torsions:
REMARK  status: ('A' for Active; 'I' for Inactive)
REMARK    1  A    between atoms: C_5  and  C_6 
REMARK    2  A    between atoms: C_10  and  N_11 
REMARK    3  A    between atoms: N_11  and  N_12 
ROOT
HETATM    1  N   UNL     1      40.984 -16.265  -0.090  1.00  0.00    -0.261 N 
HETATM    2  H   UNL     1      40.038 -16.654  -0.129  1.00  0.00     0.191 HD
ENDROOT
BRANCH   1   3
HETATM    3  C   UNL     1      41.941 -16.980   0.557  1.00  0.00     0.140 A 
HETATM    4  N   UNL     1      43.239 -16.565   0.591  1.00  0.00    -0.261 N 
HETATM    5  N   UNL     1      44.059 -17.372   1.277  1.00  0.00    -0.172 NA
HETATM    6  H   UNL     1      43.638 -15.740   0.161  1.00  0.00     0.191 HD
HETATM    7  C   UNL     1      43.267 -18.366   1.720  1.00  0.00     0.090 A 
HETATM    8  C   UNL     1      41.927 -18.156   1.274  1.00  0.00     0.085 A 
BRANCH   7   9
HETATM    9  C   UNL     1      43.810 -19.447   2.560  1.00  0.00    -0.006 A 
HETATM   10  C   UNL     1      44.212 -19.181   3.881  1.00  0.00     0.014 A 
HETATM   11  C   UNL     1      44.673 -20.199   4.721  1.00  0.00     0.007 A 
HETATM   12  C   UNL     1      44.751 -21.515   4.260  1.00  0.00    -0.062 A 
HETATM   13  C   UNL     1      45.195 -22.624   5.168  1.00  0.00     0.048 C 
HETATM   14  C   UNL     1      44.375 -21.789   2.939  1.00  0.00     0.007 A 
HETATM   15  C   UNL     1      43.912 -20.766   2.098  1.00  0.00     0.014 A 
ENDBRANCH   7   9
ENDBRANCH   1   3
BRANCH   1  16
HETATM   16  N   UNL     1      41.088 -14.906  -0.192  1.00  0.00    -0.166 NA
HETATM   17  C   UNL     1      40.581 -14.165   0.755  1.00  0.00     0.169 C 
HETATM   18  C   UNL     1      40.779 -12.661   0.719  1.00  0.00     0.278 C 
HETATM   19  C   UNL     1      39.781 -14.712   1.882  1.00  0.00     0.067 C 
HETATM   20  O   UNL     1      41.155 -12.117  -0.314  1.00  0.00    -0.265 OA
HETATM   21  N   UNL     1      40.461 -11.883   1.818  1.00  0.00    -0.319 N 
HETATM   22  C   UNL     1      40.064 -12.178   3.148  1.00  0.00     0.064 A 
HETATM   23  H   UNL     1      40.563 -10.900   1.591  1.00  0.00     0.169 HD
HETATM   24  C   UNL     1      40.014 -13.466   3.734  1.00  0.00     0.084 A 
HETATM   25  C   UNL     1      39.708 -11.069   3.934  1.00  0.00     0.032 A 
HETATM   26  C   UNL     1      39.650 -13.602   5.080  1.00  0.00     0.034 A 
HETATM   27  N   UNL     1      40.365 -14.634   3.034  1.00  0.00    -0.249 NA
HETATM   28  C   UNL     1      39.298 -12.488   5.842  1.00  0.00     0.002 A 
HETATM   29  C   UNL     1      39.319 -11.223   5.266  1.00  0.00     0.002 A 
HETATM   30  C   UNL     1      38.300 -14.816   1.672  1.00  0.00     0.073 C 
ENDBRANCH   1  16
TORSDOF 3
ENDMDL
MODEL 6
REMARK VINA RESULT:      -8.9      2.643      9.253
REMARK  3 active torsions:
REMARK  status: ('A' for Active; 'I' for Inactive)
REMARK    1  A    between atoms: C_5  and  C_6 
REMARK    2  A    between atoms: C_10  and  N_11 
REMARK    3  A    between atoms: N_11  and  N_12 
ROOT
HETATM    1  N   UNL     1      40.799 -16.680   1.112  1.00  0.00    -0.261 N 
HETATM    2  H   UNL     1      39.838 -16.787   1.444  1.00  0.00     0.191 HD
ENDROOT
BRANCH   1   3
HETATM    3  C   UNL     1      41.023 -15.844   0.065  1.00  0.00     0.140 A 
HETATM    4  N   UNL     1      40.745 -16.217  -1.217  1.00  0.00    -0.261 N 
HETATM    5  N   UNL     1      41.011 -15.279  -2.135  1.00  0.00    -0.172 NA
HETATM    6  H   UNL     1      40.376 -17.102  -1.539  1.00  0.00     0.191 HD
HETATM    7  C   UNL     1      41.483 -14.235  -1.429  1.00  0.00     0.090 A 
HETATM    8  C   UNL     1      41.516 -14.561  -0.039  1.00  0.00     0.085 A 
BRANCH   7   9
HETATM    9  C   UNL     1      41.857 -12.977  -2.098  1.00  0.00    -0.006 A 
HETATM   10  C   UNL     1      41.619 -12.812  -3.474  1.00  0.00     0.014 A 
HETATM   11  C   UNL     1      41.907 -11.607  -4.123  1.00  0.00     0.007 A 
HETATM   12  C   UNL     1      42.448 -10.533  -3.413  1.00  0.00    -0.062 A 
HETATM   13  C   UNL     1      42.713  -9.219  -4.088  1.00  0.00     0.048 C 
HETATM   14  C   UNL     1      42.712 -10.694  -2.047  1.00  0.00     0.007 A 
HETATM   15  C   UNL     1      42.422 -11.903  -1.397  1.00  0.00     0.014 A 
ENDBRANCH   7   9
ENDBRANCH   1   3
BRANCH   1  16
HETATM   16  N   UNL     1      41.647 -17.725   1.354  1.00  0.00    -0.166 NA
HETATM   17  C   UNL     1      42.278 -17.770   2.495  1.00  0.00     0.169 C 
HETATM   18  C   UNL     1      43.139 -18.973   2.831  1.00  0.00     0.278 C 
HETATM   19  C   UNL     1      42.224 -16.678   3.503  1.00  0.00     0.067 C 
HETATM   20  O   UNL     1      43.470 -19.755   1.946  1.00  0.00    -0.265 OA
HETATM   21  N   UNL     1      43.624 -19.156   4.113  1.00  0.00    -0.319 N 
HETATM   22  C   UNL     1      43.402 -18.496   5.351  1.00  0.00     0.064 A 
HETATM   23  H   UNL     1      44.253 -19.951   4.139  1.00  0.00     0.169 HD
HETATM   24  C   UNL     1      42.450 -17.475   5.589  1.00  0.00     0.084 A 
HETATM   25  C   UNL     1      44.206 -18.926   6.419  1.00  0.00     0.032 A 
HETATM   26  C   UNL     1      42.307 -16.949   6.879  1.00  0.00     0.034 A 
HETATM   27  N   UNL     1      41.592 -16.988   4.588  1.00  0.00    -0.249 NA
HETATM   28  C   UNL     1      43.117 -17.388   7.925  1.00  0.00     0.002 A 
HETATM   29  C   UNL     1      44.072 -18.372   7.694  1.00  0.00     0.002 A 
HETATM   30  C   UNL     1      43.261 -15.601   3.389  1.00  0.00     0.073 C 
ENDBRANCH   1  16
TORSDOF 3
ENDMDL
MODEL 7
REMARK VINA RESULT:      -8.8      2.074      2.787
REMARK  3 active torsions:
REMARK  status: ('A' for Active; 'I' for Inactive)
REMARK    1  A    between atoms: C_5  and  C_6 
REMARK    2  A    between atoms: C_10  and  N_11 
REMARK    3  A    between atoms: N_11  and  N_12 
ROOT
HETATM    1  N   UNL     1      41.280 -15.095   1.418  1.00  0.00    -0.261 N 
HETATM    2  H   UNL     1      40.472 -14.978   2.034  1.00  0.00     0.191 HD
ENDROOT
BRANCH   1   3
HETATM    3  C   UNL     1      42.050 -16.202   1.581  1.00  0.00     0.140 A 
HETATM    4  N   UNL     1      42.890 -16.637   0.599  1.00  0.00    -0.261 N 
HETATM    5  N   UNL     1      43.588 -17.736   0.915  1.00  0.00    -0.172 NA
HETATM    6  H   UNL     1      43.032 -16.235  -0.319  1.00  0.00     0.191 HD
HETATM    7  C   UNL     1      43.196 -18.040   2.166  1.00  0.00     0.090 A 
HETATM    8  C   UNL     1      42.218 -17.100   2.613  1.00  0.00     0.085 A 
BRANCH   7   9
HETATM    9  C   UNL     1      43.781 -19.186   2.884  1.00  0.00    -0.006 A 
HETATM   10  C   UNL     1      44.132 -19.065   4.240  1.00  0.00     0.014 A 
HETATM   11  C   UNL     1      44.632 -20.153   4.963  1.00  0.00     0.007 A 
HETATM   12  C   UNL     1      44.801 -21.394   4.345  1.00  0.00    -0.062 A 
HETATM   13  C   UNL     1      45.288 -22.581   5.123  1.00  0.00     0.048 C 
HETATM   14  C   UNL     1      44.477 -21.521   2.989  1.00  0.00     0.007 A 
HETATM   15  C   UNL     1      43.975 -20.428   2.265  1.00  0.00     0.014 A 
ENDBRANCH   7   9
ENDBRANCH   1   3
BRANCH   1  16
HETATM   16  N   UNL     1      41.817 -13.953   0.893  1.00  0.00    -0.166 NA
HETATM   17  C   UNL     1      41.318 -13.478  -0.215  1.00  0.00     0.169 C 
HETATM   18  C   UNL     1      41.823 -12.154  -0.760  1.00  0.00     0.278 C 
HETATM   19  C   UNL     1      40.278 -14.181  -1.013  1.00  0.00     0.067 C 
HETATM   20  O   UNL     1      42.869 -11.676  -0.333  1.00  0.00    -0.265 OA
HETATM   21  N   UNL     1      41.157 -11.518  -1.791  1.00  0.00    -0.319 N 
HETATM   22  C   UNL     1      39.929 -11.756  -2.462  1.00  0.00     0.064 A 
HETATM   23  H   UNL     1      41.679 -10.701  -2.093  1.00  0.00     0.169 HD
HETATM   24  C   UNL     1      38.963 -12.728  -2.108  1.00  0.00     0.084 A 
HETATM   25  C   UNL     1      39.671 -10.925  -3.566  1.00  0.00     0.032 A 
HETATM   26  C   UNL     1      37.769 -12.816  -2.835  1.00  0.00     0.034 A 
HETATM   27  N   UNL     1      39.125 -13.595  -1.013  1.00  0.00    -0.249 NA
HETATM   28  C   UNL     1      37.534 -11.984  -3.928  1.00  0.00     0.002 A 
HETATM   29  C   UNL     1      38.489 -11.044  -4.299  1.00  0.00     0.002 A 
HETATM   30  C   UNL     1      40.762 -15.132  -2.066  1.00  0.00     0.073 C 
ENDBRANCH   1  16
TORSDOF 3
ENDMDL
MODEL 8
REMARK VINA RESULT:      -8.7      1.605      2.169
REMARK  3 active torsions:
REMARK  status: ('A' for Active; 'I' for Inactive)
REMARK    1  A    between atoms: C_5  and  C_6 
REMARK    2  A    between atoms: C_10  and  N_11 
REMARK    3  A    between atoms: N_11  and  N_12 
ROOT
HETATM    1  N   UNL     1      41.961 -14.584   1.500  1.00  0.00    -0.261 N 
HETATM    2  H   UNL     1      42.610 -13.794   1.456  1.00  0.00     0.191 HD
ENDROOT
BRANCH   1   3
HETATM    3  C   UNL     1      42.480 -15.827   1.667  1.00  0.00     0.140 A 
HETATM    4  N   UNL     1      42.954 -16.549   0.612  1.00  0.00    -0.261 N 
HETATM    5  N   UNL     1      43.442 -17.753   0.941  1.00  0.00    -0.172 NA
HETATM    6  H   UNL     1      42.970 -16.284  -0.364  1.00  0.00     0.191 HD
HETATM    7  C   UNL     1      43.287 -17.830   2.276  1.00  0.00     0.090 A 
HETATM    8  C   UNL     1      42.672 -16.638   2.765  1.00  0.00     0.085 A 
BRANCH   7   9
HETATM    9  C   UNL     1      43.749 -19.013   3.023  1.00  0.00    -0.006 A 
HETATM   10  C   UNL     1      43.978 -20.226   2.351  1.00  0.00     0.014 A 
HETATM   11  C   UNL     1      44.474 -21.349   3.023  1.00  0.00     0.007 A 
HETATM   12  C   UNL     1      44.750 -21.288   4.391  1.00  0.00    -0.062 A 
HETATM   13  C   UNL     1      45.331 -22.469   5.112  1.00  0.00     0.048 C 
HETATM   14  C   UNL     1      44.503 -20.092   5.076  1.00  0.00     0.007 A 
HETATM   15  C   UNL     1      44.006 -18.967   4.400  1.00  0.00     0.014 A 
ENDBRANCH   7   9
ENDBRANCH   1   3
BRANCH   1  16
HETATM   16  N   UNL     1      40.756 -14.417   0.876  1.00  0.00    -0.166 NA
HETATM   17  C   UNL     1      40.676 -13.577  -0.120  1.00  0.00     0.169 C 
HETATM   18  C   UNL     1      39.379 -13.454  -0.898  1.00  0.00     0.278 C 
HETATM   19  C   UNL     1      41.797 -12.692  -0.536  1.00  0.00     0.067 C 
HETATM   20  O   UNL     1      38.341 -13.916  -0.434  1.00  0.00    -0.265 OA
HETATM   21  N   UNL     1      39.337 -12.756  -2.091  1.00  0.00    -0.319 N 
HETATM   22  C   UNL     1      40.327 -12.160  -2.916  1.00  0.00     0.064 A 
HETATM   23  H   UNL     1      38.382 -12.692  -2.425  1.00  0.00     0.169 HD
HETATM   24  C   UNL     1      41.728 -12.262  -2.738  1.00  0.00     0.084 A 
HETATM   25  C   UNL     1      39.841 -11.420  -4.006  1.00  0.00     0.032 A 
HETATM   26  C   UNL     1      42.589 -11.660  -3.664  1.00  0.00     0.034 A 
HETATM   27  N   UNL     1      42.310 -12.991  -1.686  1.00  0.00    -0.249 NA
HETATM   28  C   UNL     1      42.087 -10.928  -4.739  1.00  0.00     0.002 A 
HETATM   29  C   UNL     1      40.712 -10.801  -4.905  1.00  0.00     0.002 A 
HETATM   30  C   UNL     1      41.873 -11.345   0.117  1.00  0.00     0.073 C 
ENDBRANCH   1  16
TORSDOF 3
ENDMDL
MODEL 9
REMARK VINA RESULT:      -8.4      1.643      2.126
REMARK  3 active torsions:
REMARK  status: ('A' for Active; 'I' for Inactive)
REMARK    1  A    between atoms: C_5  and  C_6 
REMARK    2  A    between atoms: C_10  and  N_11 
REMARK    3  A    between atoms: N_11  and  N_12 
ROOT
HETATM    1  N   UNL     1      40.541 -16.004  -0.032  1.00  0.00    -0.261 N 
HETATM    2  H   UNL     1      39.689 -15.526   0.273  1.00  0.00     0.191 HD
ENDROOT
BRANCH   1   3
HETATM    3  C   UNL     1      41.395 -16.456   0.922  1.00  0.00     0.140 A 
HETATM    4  N   UNL     1      42.723 -16.625   0.667  1.00  0.00    -0.261 N 
HETATM    5  N   UNL     1      43.435 -17.068   1.712  1.00  0.00    -0.172 NA
HETATM    6  H   UNL     1      43.214 -16.463  -0.203  1.00  0.00     0.191 HD
HETATM    7  C   UNL     1      42.536 -17.195   2.707  1.00  0.00     0.090 A 
HETATM    8  C   UNL     1      41.238 -16.829   2.240  1.00  0.00     0.085 A 
BRANCH   7   9
HETATM    9  C   UNL     1      42.953 -17.632   4.051  1.00  0.00    -0.006 A 
HETATM   10  C   UNL     1      44.192 -18.271   4.232  1.00  0.00     0.014 A 
HETATM   11  C   UNL     1      44.641 -18.642   5.504  1.00  0.00     0.007 A 
HETATM   12  C   UNL     1      43.858 -18.387   6.632  1.00  0.00    -0.062 A 
HETATM   13  C   UNL     1      44.351 -18.734   8.006  1.00  0.00     0.048 C 
HETATM   14  C   UNL     1      42.611 -17.772   6.461  1.00  0.00     0.007 A 
HETATM   15  C   UNL     1      42.163 -17.401   5.184  1.00  0.00     0.014 A 
ENDBRANCH   7   9
ENDBRANCH   1   3
BRANCH   1  16
HETATM   16  N   UNL     1      41.004 -15.685  -1.278  1.00  0.00    -0.166 NA
HETATM   17  C   UNL     1      41.240 -14.433  -1.558  1.00  0.00     0.169 C 
HETATM   18  C   UNL     1      41.856 -14.065  -2.895  1.00  0.00     0.278 C 
HETATM   19  C   UNL     1      40.913 -13.312  -0.637  1.00  0.00     0.067 C 
HETATM   20  O   UNL     1      41.872 -14.885  -3.808  1.00  0.00    -0.265 OA
HETATM   21  N   UNL     1      42.331 -12.786  -3.124  1.00  0.00    -0.319 N 
HETATM   22  C   UNL     1      42.511 -11.644  -2.300  1.00  0.00     0.064 A 
HETATM   23  H   UNL     1      42.619 -12.688  -4.091  1.00  0.00     0.169 HD
HETATM   24  C   UNL     1      42.334 -11.595  -0.897  1.00  0.00     0.084 A 
HETATM   25  C   UNL     1      42.913 -10.474  -2.967  1.00  0.00     0.032 A 
HETATM   26  C   UNL     1      42.598 -10.405  -0.206  1.00  0.00     0.034 A 
HETATM   27  N   UNL     1      41.947 -12.714  -0.140  1.00  0.00    -0.249 NA
HETATM   28  C   UNL     1      42.994  -9.255  -0.887  1.00  0.00     0.002 A 
HETATM   29  C   UNL     1      43.145  -9.287  -2.269  1.00  0.00     0.002 A 
HETATM   30  C   UNL     1      39.548 -12.705  -0.769  1.00  0.00     0.073 C 
ENDBRANCH   1  16
TORSDOF 3
ENDMDL
MODEL 10
REMARK VINA RESULT:      -8.3      7.716      9.762
REMARK  3 active torsions:
REMARK  status: ('A' for Active; 'I' for Inactive)
REMARK    1  A    between atoms: C_5  and  C_6 
REMARK    2  A    between atoms: C_10  and  N_11 
REMARK    3  A    between atoms: N_11  and  N_12 
ROOT
HETATM    1  N   UNL     1      40.628 -12.180   5.412  1.00  0.00    -0.261 N 
HETATM    2  H   UNL     1      39.618 -12.348   5.402  1.00  0.00     0.191 HD
ENDROOT
BRANCH   1   3
HETATM    3  C   UNL     1      41.136 -11.402   6.402  1.00  0.00     0.140 A 
HETATM    4  N   UNL     1      41.420 -10.084   6.198  1.00  0.00    -0.261 N 
HETATM    5  N   UNL     1      41.905  -9.451   7.274  1.00  0.00    -0.172 NA
HETATM    6  H   UNL     1      41.312  -9.551   5.345  1.00  0.00     0.191 HD
HETATM    7  C   UNL     1      41.941 -10.392   8.235  1.00  0.00     0.090 A 
HETATM    8  C   UNL     1      41.474 -11.637   7.717  1.00  0.00     0.085 A 
BRANCH   7   9
HETATM    9  C   UNL     1      42.392 -10.062   9.599  1.00  0.00    -0.006 A 
HETATM   10  C   UNL     1      41.678  -9.129  10.371  1.00  0.00     0.014 A 
HETATM   11  C   UNL     1      42.046  -8.841  11.690  1.00  0.00     0.007 A 
HETATM   12  C   UNL     1      43.145  -9.477  12.271  1.00  0.00    -0.062 A 
HETATM   13  C   UNL     1      43.518  -9.216  13.701  1.00  0.00     0.048 C 
HETATM   14  C   UNL     1      43.878 -10.391  11.504  1.00  0.00     0.007 A 
HETATM   15  C   UNL     1      43.506 -10.679  10.182  1.00  0.00     0.014 A 
ENDBRANCH   7   9
ENDBRANCH   1   3
BRANCH   1  16
HETATM   16  N   UNL     1      41.271 -12.275   4.209  1.00  0.00    -0.166 NA
HETATM   17  C   UNL     1      41.936 -13.364   3.938  1.00  0.00     0.169 C 
HETATM   18  C   UNL     1      42.568 -13.538   2.569  1.00  0.00     0.278 C 
HETATM   19  C   UNL     1      42.141 -14.464   4.918  1.00  0.00     0.067 C 
HETATM   20  O   UNL     1      42.700 -12.569   1.828  1.00  0.00    -0.265 OA
HETATM   21  N   UNL     1      43.070 -14.765   2.176  1.00  0.00    -0.319 N 
HETATM   22  C   UNL     1      43.039 -16.067   2.743  1.00  0.00     0.064 A 
HETATM   23  H   UNL     1      43.537 -14.681   1.280  1.00  0.00     0.169 HD
HETATM   24  C   UNL     1      42.312 -16.454   3.894  1.00  0.00     0.084 A 
HETATM   25  C   UNL     1      43.797 -17.039   2.069  1.00  0.00     0.032 A 
HETATM   26  C   UNL     1      42.335 -17.791   4.311  1.00  0.00     0.034 A 
HETATM   27  N   UNL     1      41.514 -15.558   4.627  1.00  0.00    -0.249 NA
HETATM   28  C   UNL     1      43.095 -18.740   3.629  1.00  0.00     0.002 A 
HETATM   29  C   UNL     1      43.833 -18.362   2.513  1.00  0.00     0.002 A 
HETATM   30  C   UNL     1      43.358 -14.374   5.790  1.00  0.00     0.073 C 
ENDBRANCH   1  16
TORSDOF 3
ENDMDL
