MODEL 1
REMARK VINA RESULT:      -7.7      0.000      0.000
REMARK  6 active torsions:
REMARK  status: ('A' for Active; 'I' for Inactive)
REMARK    1  A    between atoms: C_4  and  C_5 
REMARK    2  A    between atoms: C_10  and  C_11 
REMARK    3  A    between atoms: C_11  and  N_12 
REMARK    4  A    between atoms: N_12  and  C_14 
REMARK    5  A    between atoms: C_14  and  C_15 
REMARK       I    between atoms: C_15  and  N_16 
REMARK    6  A    between atoms: N_16  and  C_17 
ROOT
HETATM    1  N   UNL     1      41.867 -16.335   5.399  1.00  0.00    -0.063 N 
HETATM    2  H   UNL     1      42.705 -16.270   4.801  1.00  0.00     0.280 HD
HETATM    3  C   UNL     1      41.244 -17.672   5.112  1.00  0.00     0.270 C 
ENDROOT
BRANCH   1   4
HETATM    4  C   UNL     1      40.941 -15.209   5.022  1.00  0.00     0.277 C 
BRANCH   4   5
HETATM    5  C   UNL     1      41.582 -14.139   4.223  1.00  0.00     0.018 A 
HETATM    6  C   UNL     1      42.244 -14.258   2.969  1.00  0.00     0.120 A 
HETATM    7  N   UNL     1      42.710 -13.079   2.544  1.00  0.00    -0.172 NA
HETATM    8  N   UNL     1      42.387 -12.216   3.515  1.00  0.00    -0.288 N 
HETATM    9  H   UNL     1      42.673 -11.244   3.413  1.00  0.00     0.188 HD
HETATM   10  C   UNL     1      41.685 -12.796   4.533  1.00  0.00     0.120 A 
BRANCH   6  11
HETATM   11  C   UNL     1      42.401 -15.506   2.161  1.00  0.00     0.106 A 
HETATM   12  O   UNL     1      43.153 -16.588   2.537  1.00  0.00    -0.313 OA
HETATM   13  C   UNL     1      43.067 -17.511   1.537  1.00  0.00     0.050 A 
HETATM   14  C   UNL     1      43.842 -18.758   1.705  1.00  0.00     0.076 C 
HETATM   15  C   UNL     1      42.248 -17.047   0.533  1.00  0.00     0.035 A 
HETATM   16  C   UNL     1      41.814 -15.762   0.938  1.00  0.00     0.042 A 
ENDBRANCH   6  11
ENDBRANCH   4   5
ENDBRANCH   1   4
BRANCH   1  17
HETATM   17  C   UNL     1      42.412 -16.243   6.835  1.00  0.00     0.337 C 
BRANCH  17  18
HETATM   18  C   UNL     1      43.936 -16.121   6.831  1.00  0.00     0.248 C 
HETATM   19  N   UNL     1      44.742 -17.173   6.517  1.00  0.00    -0.326 N 
HETATM   20  H   UNL     1      45.707 -16.880   6.367  1.00  0.00     0.169 HD
HETATM   21  O   UNL     1      44.442 -15.013   7.044  1.00  0.00    -0.271 OA
BRANCH  19  22
HETATM   22  C   UNL     1      44.496 -18.552   6.394  1.00  0.00     0.040 A 
HETATM   23  C   UNL     1      44.921 -19.163   5.207  1.00  0.00     0.072 A 
HETATM   24  C   UNL     1      44.733 -20.531   5.010  1.00  0.00     0.121 A 
HETATM   25  F   UNL     1      45.127 -21.085   3.856  1.00  0.00    -0.206 F 
HETATM   26  C   UNL     1      44.147 -21.321   5.982  1.00  0.00     0.084 A 
HETATM   27  C   UNL     1      43.751 -20.719   7.165  1.00  0.00     0.121 A 
HETATM   28  F   UNL     1      43.208 -21.466   8.135  1.00  0.00    -0.206 F 
HETATM   29  C   UNL     1      43.919 -19.349   7.382  1.00  0.00     0.072 A 
ENDBRANCH  19  22
ENDBRANCH  17  18
ENDBRANCH   1  17
TORSDOF 6
ENDMDL
MODEL 2
REMARK VINA RESULT:      -7.6      4.188      6.677
REMARK  6 active torsions:
REMARK  status: ('A' for Active; 'I' for Inactive)
REMARK    1  A    between atoms: C_4  and  C_5 
REMARK    2  A    between atoms: C_10  and  C_11 
REMARK    3  A    between atoms: C_11  and  N_12 
REMARK    4  A    between atoms: N_12  and  C_14 
REMARK    5  A    between atoms: C_14  and  C_15 
REMARK       I    between atoms: C_15  and  N_16 
REMARK    6  A    between atoms: N_16  and  C_17 
ROOT
HETATM    1  N   UNL     1      44.299 -14.621   6.587  1.00  0.00    -0.063 N 
HETATM    2  H   UNL     1      44.984 -14.178   5.955  1.00  0.00     0.280 HD
HETATM    3  C   UNL     1      42.954 -14.452   5.940  1.00  0.00     0.270 C 
ENDROOT
BRANCH   1   4
HETATM    4  C   UNL     1      44.362 -13.909   7.911  1.00  0.00     0.277 C 
BRANCH   4   5
HETATM    5  C   UNL     1      45.437 -12.894   8.002  1.00  0.00     0.018 A 
HETATM    6  C   UNL     1      45.492 -11.748   8.844  1.00  0.00     0.120 A 
HETATM    7  N   UNL     1      46.615 -11.049   8.653  1.00  0.00    -0.172 NA
HETATM    8  N   UNL     1      47.264 -11.706   7.684  1.00  0.00    -0.288 N 
HETATM    9  H   UNL     1      48.150 -11.329   7.353  1.00  0.00     0.188 HD
HETATM   10  C   UNL     1      46.613 -12.836   7.277  1.00  0.00     0.120 A 
BRANCH   6  11
HETATM   11  C   UNL     1      44.474 -11.341   9.861  1.00  0.00     0.106 A 
HETATM   12  O   UNL     1      43.127 -11.255   9.623  1.00  0.00    -0.313 OA
HETATM   13  C   UNL     1      42.536 -10.835  10.778  1.00  0.00     0.050 A 
HETATM   14  C   UNL     1      41.073 -10.627  10.746  1.00  0.00     0.076 C 
HETATM   15  C   UNL     1      43.483 -10.674  11.764  1.00  0.00     0.035 A 
HETATM   16  C   UNL     1      44.727 -11.008  11.177  1.00  0.00     0.042 A 
ENDBRANCH   6  11
ENDBRANCH   4   5
ENDBRANCH   1   4
BRANCH   1  17
HETATM   17  C   UNL     1      44.734 -16.097   6.648  1.00  0.00     0.337 C 
BRANCH  17  18
HETATM   18  C   UNL     1      43.594 -16.978   7.159  1.00  0.00     0.248 C 
HETATM   19  N   UNL     1      43.027 -17.944   6.384  1.00  0.00    -0.326 N 
HETATM   20  H   UNL     1      42.428 -18.564   6.928  1.00  0.00     0.169 HD
HETATM   21  O   UNL     1      43.232 -16.856   8.336  1.00  0.00    -0.271 OA
BRANCH  19  22
HETATM   22  C   UNL     1      43.094 -18.213   5.005  1.00  0.00     0.040 A 
HETATM   23  C   UNL     1      44.072 -19.127   4.591  1.00  0.00     0.072 A 
HETATM   24  C   UNL     1      44.196 -19.465   3.243  1.00  0.00     0.121 A 
HETATM   25  F   UNL     1      45.155 -20.322   2.871  1.00  0.00    -0.206 F 
HETATM   26  C   UNL     1      43.348 -18.931   2.289  1.00  0.00     0.084 A 
HETATM   27  C   UNL     1      42.365 -18.049   2.706  1.00  0.00     0.121 A 
HETATM   28  F   UNL     1      41.513 -17.540   1.808  1.00  0.00    -0.206 F 
HETATM   29  C   UNL     1      42.228 -17.686   4.048  1.00  0.00     0.072 A 
ENDBRANCH  19  22
ENDBRANCH  17  18
ENDBRANCH   1  17
TORSDOF 6
ENDMDL
MODEL 3
REMARK VINA RESULT:      -7.6      2.001      3.842
REMARK  6 active torsions:
REMARK  status: ('A' for Active; 'I' for Inactive)
REMARK    1  A    between atoms: C_4  and  C_5 
REMARK    2  A    between atoms: C_10  and  C_11 
REMARK    3  A    between atoms: C_11  and  N_12 
REMARK    4  A    between atoms: N_12  and  C_14 
REMARK    5  A    between atoms: C_14  and  C_15 
REMARK       I    between atoms: C_15  and  N_16 
REMARK    6  A    between atoms: N_16  and  C_17 
ROOT
HETATM    1  N   UNL     1      41.009 -16.214   2.852  1.00  0.00    -0.063 N 
HETATM    2  H   UNL     1      41.625 -15.507   2.422  1.00  0.00     0.280 HD
HETATM    3  C   UNL     1      39.959 -16.541   1.827  1.00  0.00     0.270 C 
ENDROOT
BRANCH   1   4
HETATM    4  C   UNL     1      40.396 -15.608   4.086  1.00  0.00     0.277 C 
BRANCH   4   5
HETATM    5  C   UNL     1      41.185 -14.498   4.670  1.00  0.00     0.018 A 
HETATM    6  C   UNL     1      42.230 -14.577   5.633  1.00  0.00     0.120 A 
HETATM    7  N   UNL     1      42.713 -13.367   5.936  1.00  0.00    -0.172 NA
HETATM    8  N   UNL     1      41.978 -12.516   5.211  1.00  0.00    -0.288 N 
HETATM    9  H   UNL     1      42.159 -11.519   5.306  1.00  0.00     0.188 HD
HETATM   10  C   UNL     1      41.064 -13.145   4.413  1.00  0.00     0.120 A 
BRANCH   6  11
HETATM   11  C   UNL     1      42.788 -15.824   6.240  1.00  0.00     0.106 A 
HETATM   12  O   UNL     1      44.094 -16.226   6.131  1.00  0.00    -0.313 OA
HETATM   13  C   UNL     1      44.211 -17.412   6.794  1.00  0.00     0.050 A 
HETATM   14  C   UNL     1      45.537 -18.064   6.774  1.00  0.00     0.076 C 
HETATM   15  C   UNL     1      43.003 -17.766   7.349  1.00  0.00     0.035 A 
HETATM   16  C   UNL     1      42.091 -16.741   7.000  1.00  0.00     0.042 A 
ENDBRANCH   6  11
ENDBRANCH   4   5
ENDBRANCH   1   4
BRANCH   1  17
HETATM   17  C   UNL     1      41.936 -17.409   3.136  1.00  0.00     0.337 C 
BRANCH  17  18
HETATM   18  C   UNL     1      43.382 -17.074   2.766  1.00  0.00     0.248 C 
HETATM   19  N   UNL     1      44.312 -18.044   2.546  1.00  0.00    -0.326 N 
HETATM   20  H   UNL     1      45.159 -17.668   2.121  1.00  0.00     0.169 HD
HETATM   21  O   UNL     1      43.688 -15.889   2.588  1.00  0.00    -0.271 OA
BRANCH  19  22
HETATM   22  C   UNL     1      44.326 -19.424   2.818  1.00  0.00     0.040 A 
HETATM   23  C   UNL     1      44.042 -20.279   1.745  1.00  0.00     0.072 A 
HETATM   24  C   UNL     1      44.052 -21.662   1.922  1.00  0.00     0.121 A 
HETATM   25  F   UNL     1      43.754 -22.456   0.886  1.00  0.00    -0.206 F 
HETATM   26  C   UNL     1      44.363 -22.226   3.148  1.00  0.00     0.084 A 
HETATM   27  C   UNL     1      44.668 -21.379   4.200  1.00  0.00     0.121 A 
HETATM   28  F   UNL     1      45.001 -21.897   5.388  1.00  0.00    -0.206 F 
HETATM   29  C   UNL     1      44.654 -19.989   4.050  1.00  0.00     0.072 A 
ENDBRANCH  19  22
ENDBRANCH  17  18
ENDBRANCH   1  17
TORSDOF 6
ENDMDL
MODEL 4
REMARK VINA RESULT:      -7.6      2.589      5.736
REMARK  6 active torsions:
REMARK  status: ('A' for Active; 'I' for Inactive)
REMARK    1  A    between atoms: C_4  and  C_5 
REMARK    2  A    between atoms: C_10  and  C_11 
REMARK    3  A    between atoms: C_11  and  N_12 
REMARK    4  A    between atoms: N_12  and  C_14 
REMARK    5  A    between atoms: C_14  and  C_15 
REMARK       I    between atoms: C_15  and  N_16 
REMARK    6  A    between atoms: N_16  and  C_17 
ROOT
HETATM    1  N   UNL     1      41.938 -15.617   6.212  1.00  0.00    -0.063 N 
HETATM    2  H   UNL     1      42.085 -15.244   7.163  1.00  0.00     0.280 HD
HETATM    3  C   UNL     1      40.602 -16.304   6.228  1.00  0.00     0.270 C 
ENDROOT
BRANCH   1   4
HETATM    4  C   UNL     1      43.049 -16.591   5.920  1.00  0.00     0.277 C 
BRANCH   4   5
HETATM    5  C   UNL     1      43.462 -17.405   7.087  1.00  0.00     0.018 A 
HETATM    6  C   UNL     1      43.991 -18.727   7.090  1.00  0.00     0.120 A 
HETATM    7  N   UNL     1      44.246 -19.152   8.332  1.00  0.00    -0.172 NA
HETATM    8  N   UNL     1      43.862 -18.143   9.123  1.00  0.00    -0.288 N 
HETATM    9  H   UNL     1      43.943 -18.261  10.131  1.00  0.00     0.188 HD
HETATM   10  C   UNL     1      43.409 -17.060   8.424  1.00  0.00     0.120 A 
BRANCH   6  11
HETATM   11  C   UNL     1      44.283 -19.571   5.892  1.00  0.00     0.106 A 
HETATM   12  O   UNL     1      44.314 -20.941   5.894  1.00  0.00    -0.313 OA
HETATM   13  C   UNL     1      44.634 -21.343   4.630  1.00  0.00     0.050 A 
HETATM   14  C   UNL     1      44.768 -22.797   4.401  1.00  0.00     0.076 C 
HETATM   15  C   UNL     1      44.783 -20.249   3.809  1.00  0.00     0.035 A 
HETATM   16  C   UNL     1      44.550 -19.111   4.618  1.00  0.00     0.042 A 
ENDBRANCH   6  11
ENDBRANCH   4   5
ENDBRANCH   1   4
BRANCH   1  17
HETATM   17  C   UNL     1      41.942 -14.373   5.306  1.00  0.00     0.337 C 
BRANCH  17  18
HETATM   18  C   UNL     1      43.350 -14.086   4.784  1.00  0.00     0.248 C 
HETATM   19  N   UNL     1      43.710 -14.354   3.498  1.00  0.00    -0.326 N 
HETATM   20  H   UNL     1      44.604 -13.928   3.258  1.00  0.00     0.169 HD
HETATM   21  O   UNL     1      44.157 -13.524   5.534  1.00  0.00    -0.271 OA
BRANCH  19  22
HETATM   22  C   UNL     1      43.102 -15.113   2.482  1.00  0.00     0.040 A 
HETATM   23  C   UNL     1      43.621 -16.394   2.259  1.00  0.00     0.072 A 
HETATM   24  C   UNL     1      43.067 -17.222   1.283  1.00  0.00     0.121 A 
HETATM   25  F   UNL     1      43.598 -18.433   1.073  1.00  0.00    -0.206 F 
HETATM   26  C   UNL     1      41.981 -16.812   0.528  1.00  0.00     0.084 A 
HETATM   27  C   UNL     1      41.453 -15.555   0.769  1.00  0.00     0.121 A 
HETATM   28  F   UNL     1      40.385 -15.144   0.075  1.00  0.00    -0.206 F 
HETATM   29  C   UNL     1      41.998 -14.704   1.734  1.00  0.00     0.072 A 
ENDBRANCH  19  22
ENDBRANCH  17  18
ENDBRANCH   1  17
TORSDOF 6
ENDMDL
MODEL 5
REMARK VINA RESULT:      -7.6      2.961      5.955
REMARK  6 active torsions:
REMARK  status: ('A' for Active; 'I' for Inactive)
REMARK    1  A    between atoms: C_4  and  C_5 
REMARK    2  A    between atoms: C_10  and  C_11 
REMARK    3  A    between atoms: C_11  and  N_12 
REMARK    4  A    between atoms: N_12  and  C_14 
REMARK    5  A    between atoms: C_14  and  C_15 
REMARK       I    between atoms: C_15  and  N_16 
REMARK    6  A    between atoms: N_16  and  C_17 
ROOT
HETATM    1  N   UNL     1      42.057 -15.599   6.143  1.00  0.00    -0.063 N 
HETATM    2  H   UNL     1      42.032 -15.233   7.107  1.00  0.00     0.280 HD
HETATM    3  C   UNL     1      40.950 -16.611   6.045  1.00  0.00     0.270 C 
ENDROOT
BRANCH   1   4
HETATM    4  C   UNL     1      43.402 -16.239   5.925  1.00  0.00     0.277 C 
BRANCH   4   5
HETATM    5  C   UNL     1      43.592 -17.513   6.657  1.00  0.00     0.018 A 
HETATM    6  C   UNL     1      43.775 -18.817   6.115  1.00  0.00     0.120 A 
HETATM    7  N   UNL     1      43.909 -19.736   7.077  1.00  0.00    -0.172 NA
HETATM    8  N   UNL     1      43.783 -19.052   8.221  1.00  0.00    -0.288 N 
HETATM    9  H   UNL     1      43.826 -19.565   9.099  1.00  0.00     0.188 HD
HETATM   10  C   UNL     1      43.618 -17.710   8.025  1.00  0.00     0.120 A 
BRANCH   6  11
HETATM   11  C   UNL     1      43.854 -19.175   4.666  1.00  0.00     0.106 A 
HETATM   12  O   UNL     1      44.189 -20.415   4.188  1.00  0.00    -0.313 OA
HETATM   13  C   UNL     1      44.174 -20.343   2.826  1.00  0.00     0.050 A 
HETATM   14  C   UNL     1      44.550 -21.565   2.085  1.00  0.00     0.076 C 
HETATM   15  C   UNL     1      43.810 -19.079   2.422  1.00  0.00     0.035 A 
HETATM   16  C   UNL     1      43.597 -18.330   3.604  1.00  0.00     0.042 A 
ENDBRANCH   6  11
ENDBRANCH   4   5
ENDBRANCH   1   4
BRANCH   1  17
HETATM   17  C   UNL     1      41.799 -14.367   5.258  1.00  0.00     0.337 C 
BRANCH  17  18
HETATM   18  C   UNL     1      40.314 -14.246   4.915  1.00  0.00     0.248 C 
HETATM   19  N   UNL     1      39.800 -14.735   3.754  1.00  0.00    -0.326 N 
HETATM   20  H   UNL     1      38.781 -14.752   3.767  1.00  0.00     0.169 HD
HETATM   21  O   UNL     1      39.550 -13.756   5.757  1.00  0.00    -0.271 OA
BRANCH  19  22
HETATM   22  C   UNL     1      40.403 -15.181   2.564  1.00  0.00     0.040 A 
HETATM   23  C   UNL     1      40.366 -16.560   2.319  1.00  0.00     0.072 A 
HETATM   24  C   UNL     1      40.924 -17.085   1.154  1.00  0.00     0.121 A 
HETATM   25  F   UNL     1      40.897 -18.409   0.956  1.00  0.00    -0.206 F 
HETATM   26  C   UNL     1      41.506 -16.264   0.204  1.00  0.00     0.084 A 
HETATM   27  C   UNL     1      41.518 -14.899   0.437  1.00  0.00     0.121 A 
HETATM   28  F   UNL     1      42.048 -14.079  -0.479  1.00  0.00    -0.206 F 
HETATM   29  C   UNL     1      40.975 -14.350   1.601  1.00  0.00     0.072 A 
ENDBRANCH  19  22
ENDBRANCH  17  18
ENDBRANCH   1  17
TORSDOF 6
ENDMDL
MODEL 6
REMARK VINA RESULT:      -7.6      2.960      5.829
REMARK  6 active torsions:
REMARK  status: ('A' for Active; 'I' for Inactive)
REMARK    1  A    between atoms: C_4  and  C_5 
REMARK    2  A    between atoms: C_10  and  C_11 
REMARK    3  A    between atoms: C_11  and  N_12 
REMARK    4  A    between atoms: N_12  and  C_14 
REMARK    5  A    between atoms: C_14  and  C_15 
REMARK       I    between atoms: C_15  and  N_16 
REMARK    6  A    between atoms: N_16  and  C_17 
ROOT
HETATM    1  N   UNL     1      42.013 -15.392   6.236  1.00  0.00    -0.063 N 
HETATM    2  H   UNL     1      41.917 -14.950   7.164  1.00  0.00     0.280 HD
HETATM    3  C   UNL     1      40.963 -16.464   6.167  1.00  0.00     0.270 C 
ENDROOT
BRANCH   1   4
HETATM    4  C   UNL     1      43.397 -15.976   6.142  1.00  0.00     0.277 C 
BRANCH   4   5
HETATM    5  C   UNL     1      43.567 -17.251   6.878  1.00  0.00     0.018 A 
HETATM    6  C   UNL     1      43.759 -18.555   6.341  1.00  0.00     0.120 A 
HETATM    7  N   UNL     1      43.869 -19.474   7.306  1.00  0.00    -0.172 NA
HETATM    8  N   UNL     1      43.720 -18.789   8.447  1.00  0.00    -0.288 N 
HETATM    9  H   UNL     1      43.742 -19.303   9.325  1.00  0.00     0.188 HD
HETATM   10  C   UNL     1      43.564 -17.447   8.247  1.00  0.00     0.120 A 
BRANCH   6  11
HETATM   11  C   UNL     1      43.869 -18.913   4.894  1.00  0.00     0.106 A 
HETATM   12  O   UNL     1      44.165 -20.165   4.423  1.00  0.00    -0.313 OA
HETATM   13  C   UNL     1      44.197 -20.091   3.061  1.00  0.00     0.050 A 
HETATM   14  C   UNL     1      44.544 -21.327   2.329  1.00  0.00     0.076 C 
HETATM   15  C   UNL     1      43.899 -18.812   2.650  1.00  0.00     0.035 A 
HETATM   16  C   UNL     1      43.680 -18.057   3.827  1.00  0.00     0.042 A 
ENDBRANCH   6  11
ENDBRANCH   4   5
ENDBRANCH   1   4
BRANCH   1  17
HETATM   17  C   UNL     1      41.746 -14.251   5.238  1.00  0.00     0.337 C 
BRANCH  17  18
HETATM   18  C   UNL     1      40.254 -14.145   4.921  1.00  0.00     0.248 C 
HETATM   19  N   UNL     1      39.709 -14.727   3.817  1.00  0.00    -0.326 N 
HETATM   20  H   UNL     1      38.691 -14.733   3.855  1.00  0.00     0.169 HD
HETATM   21  O   UNL     1      39.514 -13.578   5.734  1.00  0.00    -0.271 OA
BRANCH  19  22
HETATM   22  C   UNL     1      40.281 -15.278   2.656  1.00  0.00     0.040 A 
HETATM   23  C   UNL     1      40.844 -14.376   1.744  1.00  0.00     0.072 A 
HETATM   24  C   UNL     1      41.448 -14.839   0.575  1.00  0.00     0.121 A 
HETATM   25  F   UNL     1      41.957 -13.954  -0.292  1.00  0.00    -0.206 F 
HETATM   26  C   UNL     1      41.528 -16.192   0.296  1.00  0.00     0.084 A 
HETATM   27  C   UNL     1      40.993 -17.082   1.212  1.00  0.00     0.121 A 
HETATM   28  F   UNL     1      41.083 -18.398   0.982  1.00  0.00    -0.206 F 
HETATM   29  C   UNL     1      40.374 -16.643   2.385  1.00  0.00     0.072 A 
ENDBRANCH  19  22
ENDBRANCH  17  18
ENDBRANCH   1  17
TORSDOF 6
ENDMDL
MODEL 7
REMARK VINA RESULT:      -7.6      2.419      3.490
REMARK  6 active torsions:
REMARK  status: ('A' for Active; 'I' for Inactive)
REMARK    1  A    between atoms: C_4  and  C_5 
REMARK    2  A    between atoms: C_10  and  C_11 
REMARK    3  A    between atoms: C_11  and  N_12 
REMARK    4  A    between atoms: N_12  and  C_14 
REMARK    5  A    between atoms: C_14  and  C_15 
REMARK       I    between atoms: C_15  and  N_16 
REMARK    6  A    between atoms: N_16  and  C_17 
ROOT
HETATM    1  N   UNL     1      41.630 -16.861   2.603  1.00  0.00    -0.063 N 
HETATM    2  H   UNL     1      42.548 -16.439   2.395  1.00  0.00     0.280 HD
HETATM    3  C   UNL     1      41.238 -17.647   1.384  1.00  0.00     0.270 C 
ENDROOT
BRANCH   1   4
HETATM    4  C   UNL     1      40.656 -15.744   2.869  1.00  0.00     0.277 C 
BRANCH   4   5
HETATM    5  C   UNL     1      41.232 -14.389   2.713  1.00  0.00     0.018 A 
HETATM    6  C   UNL     1      41.282 -13.587   1.538  1.00  0.00     0.120 A 
HETATM    7  N   UNL     1      41.885 -12.416   1.766  1.00  0.00    -0.172 NA
HETATM    8  N   UNL     1      42.250 -12.465   3.053  1.00  0.00    -0.288 N 
HETATM    9  H   UNL     1      42.759 -11.674   3.442  1.00  0.00     0.188 HD
HETATM   10  C   UNL     1      41.858 -13.617   3.675  1.00  0.00     0.120 A 
BRANCH   6  11
HETATM   11  C   UNL     1      40.718 -13.936   0.198  1.00  0.00     0.106 A 
HETATM   12  O   UNL     1      41.310 -14.787  -0.698  1.00  0.00    -0.313 OA
HETATM   13  C   UNL     1      40.511 -14.834  -1.803  1.00  0.00     0.050 A 
HETATM   14  C   UNL     1      40.976 -15.666  -2.932  1.00  0.00     0.076 C 
HETATM   15  C   UNL     1      39.400 -14.043  -1.618  1.00  0.00     0.035 A 
HETATM   16  C   UNL     1      39.529 -13.473  -0.329  1.00  0.00     0.042 A 
ENDBRANCH   6  11
ENDBRANCH   4   5
ENDBRANCH   1   4
BRANCH   1  17
HETATM   17  C   UNL     1      41.891 -17.767   3.820  1.00  0.00     0.337 C 
BRANCH  17  18
HETATM   18  C   UNL     1      43.252 -17.456   4.446  1.00  0.00     0.248 C 
HETATM   19  N   UNL     1      44.307 -18.308   4.335  1.00  0.00    -0.326 N 
HETATM   20  H   UNL     1      45.180 -17.872   4.629  1.00  0.00     0.169 HD
HETATM   21  O   UNL     1      43.412 -16.363   5.002  1.00  0.00    -0.271 OA
BRANCH  19  22
HETATM   22  C   UNL     1      44.403 -19.651   3.926  1.00  0.00     0.040 A 
HETATM   23  C   UNL     1      44.738 -20.586   4.914  1.00  0.00     0.072 A 
HETATM   24  C   UNL     1      44.837 -21.941   4.600  1.00  0.00     0.121 A 
HETATM   25  F   UNL     1      45.184 -22.810   5.557  1.00  0.00    -0.206 F 
HETATM   26  C   UNL     1      44.586 -22.400   3.318  1.00  0.00     0.084 A 
HETATM   27  C   UNL     1      44.228 -21.477   2.350  1.00  0.00     0.121 A 
HETATM   28  F   UNL     1      43.951 -21.896   1.110  1.00  0.00    -0.206 F 
HETATM   29  C   UNL     1      44.133 -20.113   2.638  1.00  0.00     0.072 A 
ENDBRANCH  19  22
ENDBRANCH  17  18
ENDBRANCH   1  17
TORSDOF 6
ENDMDL
MODEL 8
REMARK VINA RESULT:      -7.5      3.041      6.027
REMARK  6 active torsions:
REMARK  status: ('A' for Active; 'I' for Inactive)
REMARK    1  A    between atoms: C_4  and  C_5 
REMARK    2  A    between atoms: C_10  and  C_11 
REMARK    3  A    between atoms: C_11  and  N_12 
REMARK    4  A    between atoms: N_12  and  C_14 
REMARK    5  A    between atoms: C_14  and  C_15 
REMARK       I    between atoms: C_15  and  N_16 
REMARK    6  A    between atoms: N_16  and  C_17 
ROOT
HETATM    1  N   UNL     1      42.077 -15.075   6.285  1.00  0.00    -0.063 N 
HETATM    2  H   UNL     1      42.225 -14.976   7.301  1.00  0.00     0.280 HD
HETATM    3  C   UNL     1      40.644 -15.488   6.103  1.00  0.00     0.270 C 
ENDROOT
BRANCH   1   4
HETATM    4  C   UNL     1      43.019 -16.136   5.781  1.00  0.00     0.277 C 
BRANCH   4   5
HETATM    5  C   UNL     1      43.375 -17.159   6.791  1.00  0.00     0.018 A 
HETATM    6  C   UNL     1      43.806 -18.497   6.570  1.00  0.00     0.120 A 
HETATM    7  N   UNL     1      44.034 -19.138   7.721  1.00  0.00    -0.172 NA
HETATM    8  N   UNL     1      43.728 -18.248   8.673  1.00  0.00    -0.288 N 
HETATM    9  H   UNL     1      43.803 -18.535   9.646  1.00  0.00     0.188 HD
HETATM   10  C   UNL     1      43.353 -17.035   8.168  1.00  0.00     0.120 A 
BRANCH   6  11
HETATM   11  C   UNL     1      44.030 -19.152   5.245  1.00  0.00     0.106 A 
HETATM   12  O   UNL     1      43.489 -18.722   4.062  1.00  0.00    -0.313 OA
HETATM   13  C   UNL     1      43.903 -19.582   3.088  1.00  0.00     0.050 A 
HETATM   14  C   UNL     1      43.402 -19.337   1.719  1.00  0.00     0.076 C 
HETATM   15  C   UNL     1      44.725 -20.546   3.626  1.00  0.00     0.035 A 
HETATM   16  C   UNL     1      44.813 -20.265   5.010  1.00  0.00     0.042 A 
ENDBRANCH   6  11
ENDBRANCH   4   5
ENDBRANCH   1   4
BRANCH   1  17
HETATM   17  C   UNL     1      42.355 -13.671   5.718  1.00  0.00     0.337 C 
BRANCH  17  18
HETATM   18  C   UNL     1      43.281 -13.749   4.504  1.00  0.00     0.248 C 
HETATM   19  N   UNL     1      42.800 -13.906   3.241  1.00  0.00    -0.326 N 
HETATM   20  H   UNL     1      43.519 -13.741   2.537  1.00  0.00     0.169 HD
HETATM   21  O   UNL     1      44.495 -13.587   4.675  1.00  0.00    -0.271 OA
BRANCH  19  22
HETATM   22  C   UNL     1      41.535 -14.273   2.746  1.00  0.00     0.040 A 
HETATM   23  C   UNL     1      41.331 -15.635   2.489  1.00  0.00     0.072 A 
HETATM   24  C   UNL     1      40.101 -16.087   2.014  1.00  0.00     0.121 A 
HETATM   25  F   UNL     1      39.940 -17.391   1.754  1.00  0.00    -0.206 F 
HETATM   26  C   UNL     1      39.047 -15.215   1.807  1.00  0.00     0.084 A 
HETATM   27  C   UNL     1      39.243 -13.873   2.087  1.00  0.00     0.121 A 
HETATM   28  F   UNL     1      38.232 -13.011   1.924  1.00  0.00    -0.206 F 
HETATM   29  C   UNL     1      40.470 -13.393   2.553  1.00  0.00     0.072 A 
ENDBRANCH  19  22
ENDBRANCH  17  18
ENDBRANCH   1  17
TORSDOF 6
ENDMDL
MODEL 9
REMARK VINA RESULT:      -7.2      3.441      5.837
REMARK  6 active torsions:
REMARK  status: ('A' for Active; 'I' for Inactive)
REMARK    1  A    between atoms: C_4  and  C_5 
REMARK    2  A    between atoms: C_10  and  C_11 
REMARK    3  A    between atoms: C_11  and  N_12 
REMARK    4  A    between atoms: N_12  and  C_14 
REMARK    5  A    between atoms: C_14  and  C_15 
REMARK       I    between atoms: C_15  and  N_16 
REMARK    6  A    between atoms: N_16  and  C_17 
ROOT
HETATM    1  N   UNL     1      43.788 -16.829   5.686  1.00  0.00    -0.063 N 
HETATM    2  H   UNL     1      44.340 -16.152   5.138  1.00  0.00     0.280 HD
HETATM    3  C   UNL     1      44.778 -17.736   6.360  1.00  0.00     0.270 C 
ENDROOT
BRANCH   1   4
HETATM    4  C   UNL     1      42.910 -17.593   4.730  1.00  0.00     0.277 C 
BRANCH   4   5
HETATM    5  C   UNL     1      43.293 -17.445   3.307  1.00  0.00     0.018 A 
HETATM    6  C   UNL     1      43.830 -18.434   2.436  1.00  0.00     0.120 A 
HETATM    7  N   UNL     1      44.064 -17.941   1.215  1.00  0.00    -0.172 NA
HETATM    8  N   UNL     1      43.717 -16.651   1.297  1.00  0.00    -0.288 N 
HETATM    9  H   UNL     1      43.839 -16.064   0.474  1.00  0.00     0.188 HD
HETATM   10  C   UNL     1      43.222 -16.308   2.523  1.00  0.00     0.120 A 
BRANCH   6  11
HETATM   11  C   UNL     1      44.089 -19.868   2.770  1.00  0.00     0.106 A 
HETATM   12  O   UNL     1      44.527 -20.316   3.989  1.00  0.00    -0.313 OA
HETATM   13  C   UNL     1      44.665 -21.670   3.899  1.00  0.00     0.050 A 
HETATM   14  C   UNL     1      45.173 -22.374   5.095  1.00  0.00     0.076 C 
HETATM   15  C   UNL     1      44.297 -22.101   2.645  1.00  0.00     0.035 A 
HETATM   16  C   UNL     1      43.919 -20.944   1.923  1.00  0.00     0.042 A 
ENDBRANCH   6  11
ENDBRANCH   4   5
ENDBRANCH   1   4
BRANCH   1  17
HETATM   17  C   UNL     1      43.011 -15.964   6.695  1.00  0.00     0.337 C 
BRANCH  17  18
HETATM   18  C   UNL     1      43.739 -14.645   6.953  1.00  0.00     0.248 C 
HETATM   19  N   UNL     1      43.278 -13.460   6.467  1.00  0.00    -0.326 N 
HETATM   20  H   UNL     1      43.758 -12.665   6.887  1.00  0.00     0.169 HD
HETATM   21  O   UNL     1      44.733 -14.652   7.691  1.00  0.00    -0.271 OA
BRANCH  19  22
HETATM   22  C   UNL     1      42.310 -13.146   5.497  1.00  0.00     0.040 A 
HETATM   23  C   UNL     1      42.741 -13.119   4.164  1.00  0.00     0.072 A 
HETATM   24  C   UNL     1      41.842 -12.834   3.136  1.00  0.00     0.121 A 
HETATM   25  F   UNL     1      42.286 -12.791   1.874  1.00  0.00    -0.206 F 
HETATM   26  C   UNL     1      40.505 -12.595   3.399  1.00  0.00     0.084 A 
HETATM   27  C   UNL     1      40.076 -12.648   4.715  1.00  0.00     0.121 A 
HETATM   28  F   UNL     1      38.782 -12.449   4.996  1.00  0.00    -0.206 F 
HETATM   29  C   UNL     1      40.960 -12.921   5.763  1.00  0.00     0.072 A 
ENDBRANCH  19  22
ENDBRANCH  17  18
ENDBRANCH   1  17
TORSDOF 6
ENDMDL
MODEL 10
REMARK VINA RESULT:      -7.2      2.455      3.853
REMARK  6 active torsions:
REMARK  status: ('A' for Active; 'I' for Inactive)
REMARK    1  A    between atoms: C_4  and  C_5 
REMARK    2  A    between atoms: C_10  and  C_11 
REMARK    3  A    between atoms: C_11  and  N_12 
REMARK    4  A    between atoms: N_12  and  C_14 
REMARK    5  A    between atoms: C_14  and  C_15 
REMARK       I    between atoms: C_15  and  N_16 
REMARK    6  A    between atoms: N_16  and  C_17 
ROOT
HETATM    1  N   UNL     1      43.724 -14.701   6.764  1.00  0.00    -0.063 N 
HETATM    2  H   UNL     1      42.932 -14.858   7.407  1.00  0.00     0.280 HD
HETATM    3  C   UNL     1      44.598 -13.666   7.413  1.00  0.00     0.270 C 
ENDROOT
BRANCH   1   4
HETATM    4  C   UNL     1      43.168 -14.204   5.456  1.00  0.00     0.277 C 
BRANCH   4   5
HETATM    5  C   UNL     1      41.719 -14.458   5.279  1.00  0.00     0.018 A 
HETATM    6  C   UNL     1      40.923 -14.225   4.123  1.00  0.00     0.120 A 
HETATM    7  N   UNL     1      39.647 -14.568   4.325  1.00  0.00    -0.172 NA
HETATM    8  N   UNL     1      39.604 -14.986   5.596  1.00  0.00    -0.288 N 
HETATM    9  H   UNL     1      38.708 -15.276   5.981  1.00  0.00     0.188 HD
HETATM   10  C   UNL     1      40.827 -14.966   6.206  1.00  0.00     0.120 A 
BRANCH   6  11
HETATM   11  C   UNL     1      41.399 -13.699   2.806  1.00  0.00     0.106 A 
HETATM   12  O   UNL     1      41.415 -12.374   2.457  1.00  0.00    -0.313 OA
HETATM   13  C   UNL     1      41.892 -12.296   1.181  1.00  0.00     0.050 A 
HETATM   14  C   UNL     1      41.959 -10.952   0.571  1.00  0.00     0.076 C 
HETATM   15  C   UNL     1      42.207 -13.552   0.715  1.00  0.00     0.035 A 
HETATM   16  C   UNL     1      41.897 -14.453   1.762  1.00  0.00     0.042 A 
ENDBRANCH   6  11
ENDBRANCH   4   5
ENDBRANCH   1   4
BRANCH   1  17
HETATM   17  C   UNL     1      44.418 -16.072   6.669  1.00  0.00     0.337 C 
BRANCH  17  18
HETATM   18  C   UNL     1      43.531 -17.171   7.255  1.00  0.00     0.248 C 
HETATM   19  N   UNL     1      43.154 -18.258   6.526  1.00  0.00    -0.326 N 
HETATM   20  H   UNL     1      42.738 -18.982   7.111  1.00  0.00     0.169 HD
HETATM   21  O   UNL     1      43.213 -17.103   8.449  1.00  0.00    -0.271 OA
BRANCH  19  22
HETATM   22  C   UNL     1      43.207 -18.541   5.150  1.00  0.00     0.040 A 
HETATM   23  C   UNL     1      42.224 -17.947   4.348  1.00  0.00     0.072 A 
HETATM   24  C   UNL     1      42.213 -18.160   2.969  1.00  0.00     0.121 A 
HETATM   25  F   UNL     1      41.248 -17.600   2.229  1.00  0.00    -0.206 F 
HETATM   26  C   UNL     1      43.179 -18.938   2.356  1.00  0.00     0.084 A 
HETATM   27  C   UNL     1      44.165 -19.502   3.148  1.00  0.00     0.121 A 
HETATM   28  F   UNL     1      45.129 -20.236   2.578  1.00  0.00    -0.206 F 
HETATM   29  C   UNL     1      44.191 -19.313   4.533  1.00  0.00     0.072 A 
ENDBRANCH  19  22
ENDBRANCH  17  18
ENDBRANCH   1  17
TORSDOF 6
ENDMDL
