MODEL 1
REMARK VINA RESULT:      -9.1      0.000      0.000
REMARK  3 active torsions:
REMARK  status: ('A' for Active; 'I' for Inactive)
REMARK    1  A    between atoms: C_8  and  C_9 
REMARK       I    between atoms: C_9  and  N_10 
REMARK    2  A    between atoms: C_13  and  O_14 
REMARK    3  A    between atoms: C_13  and  C_15 
ROOT
HETATM    1  C   UNL     1      40.932 -15.336   2.392  1.00  0.00     0.259 C 
HETATM    2  N   UNL     1      41.770 -16.127   3.198  1.00  0.00    -0.348 N 
HETATM    3  C   UNL     1      43.229 -16.117   3.122  1.00  0.00     0.129 C 
HETATM    4  C   UNL     1      43.914 -16.618   4.392  1.00  0.00     0.063 C 
HETATM    5  C   UNL     1      43.352 -17.969   4.874  1.00  0.00     0.088 C 
HETATM    6  C   UNL     1      41.846 -17.735   5.097  1.00  0.00     0.063 C 
HETATM    7  C   UNL     1      41.153 -17.302   3.812  1.00  0.00     0.129 C 
HETATM    8  O   UNL     1      39.706 -15.453   2.456  1.00  0.00    -0.267 OA
ENDROOT
BRANCH   1   9
HETATM    9  C   UNL     1      41.476 -14.304   1.521  1.00  0.00     0.099 A 
HETATM   10  C   UNL     1      41.495 -14.182   0.141  1.00  0.00     0.168 A 
HETATM   11  N   UNL     1      41.060 -15.001  -0.868  1.00  0.00    -0.233 NA
HETATM   12  N   UNL     1      42.077 -12.932  -0.136  1.00  0.00    -0.219 N 
HETATM   13  C   UNL     1      41.248 -14.592  -2.088  1.00  0.00     0.035 A 
HETATM   14  C   UNL     1      40.802 -15.484  -3.220  1.00  0.00     0.070 C 
HETATM   15  C   UNL     1      41.867 -13.287  -2.470  1.00  0.00     0.053 A 
HETATM   16  C   UNL     1      42.257 -12.495  -1.457  1.00  0.00     0.036 A 
HETATM   17  C   UNL     1      42.875 -11.148  -1.674  1.00  0.00     0.070 C 
HETATM   18  N   UNL     1      42.401 -12.268   1.001  1.00  0.00    -0.177 NA
HETATM   19  C   UNL     1      42.004 -13.078   1.979  1.00  0.00     0.160 A 
ENDBRANCH   1   9
BRANCH   5  20
HETATM   20  O   UNL     1      43.936 -18.216   6.164  1.00  0.00    -0.385 OA
HETATM   21  H   UNL     1      43.234 -18.142   6.834  1.00  0.00     0.211 HD
ENDBRANCH   5  20
BRANCH   5  22
HETATM   22  C   UNL     1      43.671 -19.189   4.000  1.00  0.00    -0.024 A 
HETATM   23  C   UNL     1      43.272 -19.284   2.655  1.00  0.00     0.010 A 
HETATM   24  C   UNL     1      43.583 -20.408   1.881  1.00  0.00     0.001 A 
HETATM   25  C   UNL     1      44.319 -21.453   2.428  1.00  0.00     0.000 A 
HETATM   26  C   UNL     1      44.759 -21.368   3.743  1.00  0.00     0.001 A 
HETATM   27  C   UNL     1      44.449 -20.245   4.514  1.00  0.00     0.010 A 
ENDBRANCH   5  22
TORSDOF 3
ENDMDL
MODEL 2
REMARK VINA RESULT:      -8.5      3.314      7.428
REMARK  3 active torsions:
REMARK  status: ('A' for Active; 'I' for Inactive)
REMARK    1  A    between atoms: C_8  and  C_9 
REMARK       I    between atoms: C_9  and  N_10 
REMARK    2  A    between atoms: C_13  and  O_14 
REMARK    3  A    between atoms: C_13  and  C_15 
ROOT
HETATM    1  C   UNL     1      43.732 -15.317   6.129  1.00  0.00     0.259 C 
HETATM    2  N   UNL     1      42.462 -14.742   5.940  1.00  0.00    -0.348 N 
HETATM    3  C   UNL     1      41.306 -15.461   5.409  1.00  0.00     0.129 C 
HETATM    4  C   UNL     1      39.966 -14.830   5.781  1.00  0.00     0.063 C 
HETATM    5  C   UNL     1      39.918 -13.320   5.478  1.00  0.00     0.088 C 
HETATM    6  C   UNL     1      41.079 -12.700   6.278  1.00  0.00     0.063 C 
HETATM    7  C   UNL     1      42.421 -13.282   5.856  1.00  0.00     0.129 C 
HETATM    8  O   UNL     1      44.682 -14.629   6.507  1.00  0.00    -0.267 OA
ENDROOT
BRANCH   1   9
HETATM    9  C   UNL     1      43.944 -16.747   5.963  1.00  0.00     0.099 A 
HETATM   10  C   UNL     1      43.993 -17.545   4.831  1.00  0.00     0.168 A 
HETATM   11  N   UNL     1      43.808 -17.276   3.500  1.00  0.00    -0.233 NA
HETATM   12  N   UNL     1      44.319 -18.839   5.274  1.00  0.00    -0.219 N 
HETATM   13  C   UNL     1      43.905 -18.276   2.673  1.00  0.00     0.035 A 
HETATM   14  C   UNL     1      43.683 -18.015   1.205  1.00  0.00     0.070 C 
HETATM   15  C   UNL     1      44.236 -19.680   3.060  1.00  0.00     0.053 A 
HETATM   16  C   UNL     1      44.439 -19.904   4.370  1.00  0.00     0.036 A 
HETATM   17  C   UNL     1      44.799 -21.253   4.914  1.00  0.00     0.070 C 
HETATM   18  N   UNL     1      44.493 -18.878   6.618  1.00  0.00    -0.177 NA
HETATM   19  C   UNL     1      44.306 -17.622   7.011  1.00  0.00     0.160 A 
ENDBRANCH   1   9
BRANCH   5  20
HETATM   20  O   UNL     1      38.696 -12.828   6.054  1.00  0.00    -0.385 OA
HETATM   21  H   UNL     1      38.435 -12.025   5.569  1.00  0.00     0.211 HD
ENDBRANCH   5  20
BRANCH   5  22
HETATM   22  C   UNL     1      39.902 -12.925   3.994  1.00  0.00    -0.024 A 
HETATM   23  C   UNL     1      39.550 -13.825   2.974  1.00  0.00     0.010 A 
HETATM   24  C   UNL     1      39.539 -13.434   1.630  1.00  0.00     0.001 A 
HETATM   25  C   UNL     1      39.859 -12.128   1.278  1.00  0.00     0.000 A 
HETATM   26  C   UNL     1      40.174 -11.207   2.270  1.00  0.00     0.001 A 
HETATM   27  C   UNL     1      40.183 -11.598   3.611  1.00  0.00     0.010 A 
ENDBRANCH   5  22
TORSDOF 3
ENDMDL
MODEL 3
REMARK VINA RESULT:      -8.4      3.269      7.754
REMARK  3 active torsions:
REMARK  status: ('A' for Active; 'I' for Inactive)
REMARK    1  A    between atoms: C_8  and  C_9 
REMARK       I    between atoms: C_9  and  N_10 
REMARK    2  A    between atoms: C_13  and  O_14 
REMARK    3  A    between atoms: C_13  and  C_15 
ROOT
HETATM    1  C   UNL     1      43.374 -14.934   6.196  1.00  0.00     0.259 C 
HETATM    2  N   UNL     1      42.179 -14.300   5.812  1.00  0.00    -0.348 N 
HETATM    3  C   UNL     1      40.926 -15.003   5.548  1.00  0.00     0.129 C 
HETATM    4  C   UNL     1      39.687 -14.117   5.671  1.00  0.00     0.063 C 
HETATM    5  C   UNL     1      39.815 -12.808   4.870  1.00  0.00     0.088 C 
HETATM    6  C   UNL     1      41.070 -12.106   5.421  1.00  0.00     0.063 C 
HETATM    7  C   UNL     1      42.315 -12.963   5.235  1.00  0.00     0.129 C 
HETATM    8  O   UNL     1      44.415 -14.286   6.325  1.00  0.00    -0.267 OA
ENDROOT
BRANCH   1   9
HETATM    9  C   UNL     1      43.404 -16.350   6.531  1.00  0.00     0.099 A 
HETATM   10  C   UNL     1      43.639 -17.474   5.754  1.00  0.00     0.168 A 
HETATM   11  N   UNL     1      43.870 -17.642   4.414  1.00  0.00    -0.233 NA
HETATM   12  N   UNL     1      43.630 -18.570   6.634  1.00  0.00    -0.219 N 
HETATM   13  C   UNL     1      44.037 -18.859   3.987  1.00  0.00     0.035 A 
HETATM   14  C   UNL     1      44.269 -19.077   2.514  1.00  0.00     0.070 C 
HETATM   15  C   UNL     1      44.031 -20.078   4.850  1.00  0.00     0.053 A 
HETATM   16  C   UNL     1      43.830 -19.876   6.164  1.00  0.00     0.036 A 
HETATM   17  C   UNL     1      43.816 -20.994   7.162  1.00  0.00     0.070 C 
HETATM   18  N   UNL     1      43.420 -18.181   7.916  1.00  0.00    -0.177 NA
HETATM   19  C   UNL     1      43.326 -16.856   7.846  1.00  0.00     0.160 A 
ENDBRANCH   1   9
BRANCH   5  20
HETATM   20  O   UNL     1      38.684 -11.997   5.233  1.00  0.00    -0.385 OA
HETATM   21  H   UNL     1      37.940 -12.237   4.653  1.00  0.00     0.211 HD
ENDBRANCH   5  20
BRANCH   5  22
HETATM   22  C   UNL     1      39.795 -12.940   3.341  1.00  0.00    -0.024 A 
HETATM   23  C   UNL     1      40.223 -11.910   2.485  1.00  0.00     0.010 A 
HETATM   24  C   UNL     1      40.198 -12.062   1.094  1.00  0.00     0.001 A 
HETATM   25  C   UNL     1      39.765 -13.256   0.527  1.00  0.00     0.000 A 
HETATM   26  C   UNL     1      39.373 -14.304   1.351  1.00  0.00     0.001 A 
HETATM   27  C   UNL     1      39.400 -14.151   2.739  1.00  0.00     0.010 A 
ENDBRANCH   5  22
TORSDOF 3
ENDMDL
MODEL 4
REMARK VINA RESULT:      -8.2      2.811      7.735
REMARK  3 active torsions:
REMARK  status: ('A' for Active; 'I' for Inactive)
REMARK    1  A    between atoms: C_8  and  C_9 
REMARK       I    between atoms: C_9  and  N_10 
REMARK    2  A    between atoms: C_13  and  O_14 
REMARK    3  A    between atoms: C_13  and  C_15 
ROOT
HETATM    1  C   UNL     1      41.222 -16.952   2.250  1.00  0.00     0.259 C 
HETATM    2  N   UNL     1      41.414 -15.560   2.330  1.00  0.00    -0.348 N 
HETATM    3  C   UNL     1      42.535 -14.926   3.020  1.00  0.00     0.129 C 
HETATM    4  C   UNL     1      42.825 -13.504   2.542  1.00  0.00     0.063 C 
HETATM    5  C   UNL     1      41.564 -12.620   2.517  1.00  0.00     0.088 C 
HETATM    6  C   UNL     1      40.572 -13.340   1.584  1.00  0.00     0.063 C 
HETATM    7  C   UNL     1      40.232 -14.731   2.100  1.00  0.00     0.129 C 
HETATM    8  O   UNL     1      40.211 -17.415   1.719  1.00  0.00    -0.267 OA
ENDROOT
BRANCH   1   9
HETATM    9  C   UNL     1      42.239 -17.882   2.714  1.00  0.00     0.099 A 
HETATM   10  C   UNL     1      42.713 -18.169   3.985  1.00  0.00     0.168 A 
HETATM   11  N   UNL     1      42.427 -17.647   5.219  1.00  0.00    -0.233 NA
HETATM   12  N   UNL     1      43.634 -19.220   3.835  1.00  0.00    -0.219 N 
HETATM   13  C   UNL     1      43.076 -18.135   6.236  1.00  0.00     0.035 A 
HETATM   14  C   UNL     1      42.800 -17.563   7.603  1.00  0.00     0.070 C 
HETATM   15  C   UNL     1      44.077 -19.241   6.163  1.00  0.00     0.053 A 
HETATM   16  C   UNL     1      44.313 -19.750   4.942  1.00  0.00     0.036 A 
HETATM   17  C   UNL     1      45.273 -20.876   4.706  1.00  0.00     0.070 C 
HETATM   18  N   UNL     1      43.741 -19.610   2.541  1.00  0.00    -0.177 NA
HETATM   19  C   UNL     1      42.879 -18.834   1.891  1.00  0.00     0.160 A 
ENDBRANCH   1   9
BRANCH   5  20
HETATM   20  O   UNL     1      41.940 -11.393   1.867  1.00  0.00    -0.385 OA
HETATM   21  H   UNL     1      42.891 -11.251   2.015  1.00  0.00     0.211 HD
ENDBRANCH   5  20
BRANCH   5  22
HETATM   22  C   UNL     1      40.973 -12.238   3.881  1.00  0.00    -0.024 A 
HETATM   23  C   UNL     1      41.739 -12.216   5.060  1.00  0.00     0.010 A 
HETATM   24  C   UNL     1      41.173 -11.858   6.288  1.00  0.00     0.001 A 
HETATM   25  C   UNL     1      39.834 -11.492   6.363  1.00  0.00     0.000 A 
HETATM   26  C   UNL     1      39.063 -11.468   5.207  1.00  0.00     0.001 A 
HETATM   27  C   UNL     1      39.630 -11.825   3.981  1.00  0.00     0.010 A 
ENDBRANCH   5  22
TORSDOF 3
ENDMDL
MODEL 5
REMARK VINA RESULT:      -8.2      3.280      7.707
REMARK  3 active torsions:
REMARK  status: ('A' for Active; 'I' for Inactive)
REMARK    1  A    between atoms: C_8  and  C_9 
REMARK       I    between atoms: C_9  and  N_10 
REMARK    2  A    between atoms: C_13  and  O_14 
REMARK    3  A    between atoms: C_13  and  C_15 
ROOT
HETATM    1  C   UNL     1      43.265 -14.430   3.438  1.00  0.00     0.259 C 
HETATM    2  N   UNL     1      42.064 -13.921   3.965  1.00  0.00    -0.348 N 
HETATM    3  C   UNL     1      40.785 -14.627   3.922  1.00  0.00     0.129 C 
HETATM    4  C   UNL     1      39.787 -14.154   4.977  1.00  0.00     0.063 C 
HETATM    5  C   UNL     1      39.621 -12.623   4.991  1.00  0.00     0.088 C 
HETATM    6  C   UNL     1      41.030 -12.057   5.249  1.00  0.00     0.063 C 
HETATM    7  C   UNL     1      42.007 -12.473   4.158  1.00  0.00     0.129 C 
HETATM    8  O   UNL     1      44.290 -13.746   3.439  1.00  0.00    -0.267 OA
ENDROOT
BRANCH   1   9
HETATM    9  C   UNL     1      43.355 -15.799   2.954  1.00  0.00     0.099 A 
HETATM   10  C   UNL     1      43.615 -16.992   3.610  1.00  0.00     0.168 A 
HETATM   11  N   UNL     1      43.922 -17.284   4.913  1.00  0.00    -0.233 NA
HETATM   12  N   UNL     1      43.487 -18.008   2.647  1.00  0.00    -0.219 N 
HETATM   13  C   UNL     1      44.132 -18.534   5.208  1.00  0.00     0.035 A 
HETATM   14  C   UNL     1      44.496 -18.883   6.629  1.00  0.00     0.070 C 
HETATM   15  C   UNL     1      44.029 -19.671   4.246  1.00  0.00     0.053 A 
HETATM   16  C   UNL     1      43.698 -19.353   2.983  1.00  0.00     0.036 A 
HETATM   17  C   UNL     1      43.534 -20.382   1.906  1.00  0.00     0.070 C 
HETATM   18  N   UNL     1      43.145 -17.508   1.434  1.00  0.00    -0.177 NA
HETATM   19  C   UNL     1      43.031 -16.199   1.639  1.00  0.00     0.160 A 
ENDBRANCH   1   9
BRANCH   5  20
HETATM   20  O   UNL     1      38.822 -12.310   6.145  1.00  0.00    -0.385 OA
HETATM   21  H   UNL     1      39.050 -11.410   6.436  1.00  0.00     0.211 HD
ENDBRANCH   5  20
BRANCH   5  22
HETATM   22  C   UNL     1      38.913 -12.004   3.778  1.00  0.00    -0.024 A 
HETATM   23  C   UNL     1      38.729 -12.700   2.570  1.00  0.00     0.010 A 
HETATM   24  C   UNL     1      38.074 -12.111   1.483  1.00  0.00     0.001 A 
HETATM   25  C   UNL     1      37.568 -10.820   1.586  1.00  0.00     0.000 A 
HETATM   26  C   UNL     1      37.702 -10.123   2.780  1.00  0.00     0.001 A 
HETATM   27  C   UNL     1      38.355 -10.713   3.865  1.00  0.00     0.010 A 
ENDBRANCH   5  22
TORSDOF 3
ENDMDL
MODEL 6
REMARK VINA RESULT:      -8.1      1.287      2.503
REMARK  3 active torsions:
REMARK  status: ('A' for Active; 'I' for Inactive)
REMARK    1  A    between atoms: C_8  and  C_9 
REMARK       I    between atoms: C_9  and  N_10 
REMARK    2  A    between atoms: C_13  and  O_14 
REMARK    3  A    between atoms: C_13  and  C_15 
ROOT
HETATM    1  C   UNL     1      40.365 -15.537   1.550  1.00  0.00     0.259 C 
HETATM    2  N   UNL     1      41.360 -16.022   2.418  1.00  0.00    -0.348 N 
HETATM    3  C   UNL     1      42.795 -15.904   2.169  1.00  0.00     0.129 C 
HETATM    4  C   UNL     1      43.648 -16.007   3.432  1.00  0.00     0.063 C 
HETATM    5  C   UNL     1      43.292 -17.237   4.288  1.00  0.00     0.088 C 
HETATM    6  C   UNL     1      41.797 -17.087   4.625  1.00  0.00     0.063 C 
HETATM    7  C   UNL     1      40.942 -17.055   3.366  1.00  0.00     0.129 C 
HETATM    8  O   UNL     1      39.173 -15.741   1.786  1.00  0.00    -0.267 OA
ENDROOT
BRANCH   1   9
HETATM    9  C   UNL     1      40.705 -14.715   0.399  1.00  0.00     0.099 A 
HETATM   10  C   UNL     1      40.894 -13.347   0.268  1.00  0.00     0.168 A 
HETATM   11  N   UNL     1      40.780 -12.308   1.154  1.00  0.00    -0.233 NA
HETATM   12  N   UNL     1      41.294 -13.130  -1.062  1.00  0.00    -0.219 N 
HETATM   13  C   UNL     1      41.014 -11.112   0.699  1.00  0.00     0.035 A 
HETATM   14  C   UNL     1      40.872  -9.946   1.644  1.00  0.00     0.070 C 
HETATM   15  C   UNL     1      41.431 -10.792  -0.699  1.00  0.00     0.053 A 
HETATM   16  C   UNL     1      41.562 -11.837  -1.534  1.00  0.00     0.036 A 
HETATM   17  C   UNL     1      41.992 -11.684  -2.961  1.00  0.00     0.070 C 
HETATM   18  N   UNL     1      41.379 -14.292  -1.755  1.00  0.00    -0.177 NA
HETATM   19  C   UNL     1      41.064 -15.230  -0.866  1.00  0.00     0.160 A 
ENDBRANCH   1   9
BRANCH   5  20
HETATM   20  O   UNL     1      44.019 -17.098   5.522  1.00  0.00    -0.385 OA
HETATM   21  H   UNL     1      44.650 -17.835   5.585  1.00  0.00     0.211 HD
ENDBRANCH   5  20
BRANCH   5  22
HETATM   22  C   UNL     1      43.666 -18.605   3.703  1.00  0.00    -0.024 A 
HETATM   23  C   UNL     1      44.402 -19.563   4.423  1.00  0.00     0.010 A 
HETATM   24  C   UNL     1      44.723 -20.805   3.864  1.00  0.00     0.001 A 
HETATM   25  C   UNL     1      44.298 -21.126   2.580  1.00  0.00     0.000 A 
HETATM   26  C   UNL     1      43.536 -20.214   1.860  1.00  0.00     0.001 A 
HETATM   27  C   UNL     1      43.215 -18.975   2.420  1.00  0.00     0.010 A 
ENDBRANCH   5  22
TORSDOF 3
ENDMDL
MODEL 7
REMARK VINA RESULT:      -8.1      2.228      7.673
REMARK  3 active torsions:
REMARK  status: ('A' for Active; 'I' for Inactive)
REMARK    1  A    between atoms: C_8  and  C_9 
REMARK       I    between atoms: C_9  and  N_10 
REMARK    2  A    between atoms: C_13  and  O_14 
REMARK    3  A    between atoms: C_13  and  C_15 
ROOT
HETATM    1  C   UNL     1      42.901 -14.826   2.594  1.00  0.00     0.259 C 
HETATM    2  N   UNL     1      41.601 -14.621   2.098  1.00  0.00    -0.348 N 
HETATM    3  C   UNL     1      40.723 -15.692   1.631  1.00  0.00     0.129 C 
HETATM    4  C   UNL     1      39.241 -15.321   1.647  1.00  0.00     0.063 C 
HETATM    5  C   UNL     1      38.960 -13.975   0.952  1.00  0.00     0.088 C 
HETATM    6  C   UNL     1      39.812 -12.936   1.704  1.00  0.00     0.063 C 
HETATM    7  C   UNL     1      41.296 -13.271   1.628  1.00  0.00     0.129 C 
HETATM    8  O   UNL     1      43.615 -13.868   2.897  1.00  0.00    -0.267 OA
ENDROOT
BRANCH   1   9
HETATM    9  C   UNL     1      43.412 -16.166   2.841  1.00  0.00     0.099 A 
HETATM   10  C   UNL     1      43.421 -16.952   3.983  1.00  0.00     0.168 A 
HETATM   11  N   UNL     1      43.004 -16.722   5.268  1.00  0.00    -0.233 NA
HETATM   12  N   UNL     1      43.966 -18.191   3.605  1.00  0.00    -0.219 N 
HETATM   13  C   UNL     1      43.175 -17.682   6.129  1.00  0.00     0.035 A 
HETATM   14  C   UNL     1      42.748 -17.449   7.556  1.00  0.00     0.070 C 
HETATM   15  C   UNL     1      43.755 -19.022   5.815  1.00  0.00     0.053 A 
HETATM   16  C   UNL     1      44.127 -19.225   4.539  1.00  0.00     0.036 A 
HETATM   17  C   UNL     1      44.706 -20.522   4.062  1.00  0.00     0.070 C 
HETATM   18  N   UNL     1      44.277 -18.220   2.286  1.00  0.00    -0.177 NA
HETATM   19  C   UNL     1      43.908 -17.024   1.835  1.00  0.00     0.160 A 
ENDBRANCH   1   9
BRANCH   5  20
HETATM   20  O   UNL     1      37.582 -13.661   1.215  1.00  0.00    -0.385 OA
HETATM   21  H   UNL     1      37.493 -12.693   1.251  1.00  0.00     0.211 HD
ENDBRANCH   5  20
BRANCH   5  22
HETATM   22  C   UNL     1      39.141 -13.946  -0.572  1.00  0.00    -0.024 A 
HETATM   23  C   UNL     1      40.320 -14.376  -1.204  1.00  0.00     0.010 A 
HETATM   24  C   UNL     1      40.453 -14.342  -2.597  1.00  0.00     0.001 A 
HETATM   25  C   UNL     1      39.402 -13.897  -3.391  1.00  0.00     0.000 A 
HETATM   26  C   UNL     1      38.211 -13.502  -2.794  1.00  0.00     0.001 A 
HETATM   27  C   UNL     1      38.079 -13.538  -1.403  1.00  0.00     0.010 A 
ENDBRANCH   5  22
TORSDOF 3
ENDMDL
MODEL 8
REMARK VINA RESULT:      -8.1      2.373      7.233
REMARK  3 active torsions:
REMARK  status: ('A' for Active; 'I' for Inactive)
REMARK    1  A    between atoms: C_8  and  C_9 
REMARK       I    between atoms: C_9  and  N_10 
REMARK    2  A    between atoms: C_13  and  O_14 
REMARK    3  A    between atoms: C_13  and  C_15 
ROOT
HETATM    1  C   UNL     1      43.134 -14.467   4.376  1.00  0.00     0.259 C 
HETATM    2  N   UNL     1      42.015 -14.208   3.563  1.00  0.00    -0.348 N 
HETATM    3  C   UNL     1      40.926 -15.156   3.340  1.00  0.00     0.129 C 
HETATM    4  C   UNL     1      39.623 -14.499   2.889  1.00  0.00     0.063 C 
HETATM    5  C   UNL     1      39.825 -13.536   1.704  1.00  0.00     0.088 C 
HETATM    6  C   UNL     1      40.847 -12.492   2.189  1.00  0.00     0.063 C 
HETATM    7  C   UNL     1      42.169 -13.142   2.573  1.00  0.00     0.129 C 
HETATM    8  O   UNL     1      44.053 -13.650   4.455  1.00  0.00    -0.267 OA
ENDROOT
BRANCH   1   9
HETATM    9  C   UNL     1      43.204 -15.660   5.205  1.00  0.00     0.099 A 
HETATM   10  C   UNL     1      43.497 -16.979   4.897  1.00  0.00     0.168 A 
HETATM   11  N   UNL     1      43.767 -17.615   3.713  1.00  0.00    -0.233 NA
HETATM   12  N   UNL     1      43.504 -17.677   6.117  1.00  0.00    -0.219 N 
HETATM   13  C   UNL     1      43.987 -18.896   3.764  1.00  0.00     0.035 A 
HETATM   14  C   UNL     1      44.263 -19.628   2.475  1.00  0.00     0.070 C 
HETATM   15  C   UNL     1      44.001 -19.715   5.014  1.00  0.00     0.053 A 
HETATM   16  C   UNL     1      43.760 -19.056   6.160  1.00  0.00     0.036 A 
HETATM   17  C   UNL     1      43.761 -19.731   7.497  1.00  0.00     0.070 C 
HETATM   18  N   UNL     1      43.248 -16.856   7.165  1.00  0.00    -0.177 NA
HETATM   19  C   UNL     1      43.110 -15.653   6.614  1.00  0.00     0.160 A 
ENDBRANCH   1   9
BRANCH   5  20
HETATM   20  O   UNL     1      38.575 -12.850   1.519  1.00  0.00    -0.385 OA
HETATM   21  H   UNL     1      38.722 -11.903   1.688  1.00  0.00     0.211 HD
ENDBRANCH   5  20
BRANCH   5  22
HETATM   22  C   UNL     1      40.183 -14.180   0.357  1.00  0.00    -0.024 A 
HETATM   23  C   UNL     1      40.932 -15.366   0.259  1.00  0.00     0.010 A 
HETATM   24  C   UNL     1      41.237 -15.933  -0.984  1.00  0.00     0.001 A 
HETATM   25  C   UNL     1      40.783 -15.339  -2.156  1.00  0.00     0.000 A 
HETATM   26  C   UNL     1      40.008 -14.187  -2.086  1.00  0.00     0.001 A 
HETATM   27  C   UNL     1      39.703 -13.623  -0.845  1.00  0.00     0.010 A 
ENDBRANCH   5  22
TORSDOF 3
ENDMDL
MODEL 9
REMARK VINA RESULT:      -8.1      2.161      7.903
REMARK  3 active torsions:
REMARK  status: ('A' for Active; 'I' for Inactive)
REMARK    1  A    between atoms: C_8  and  C_9 
REMARK       I    between atoms: C_9  and  N_10 
REMARK    2  A    between atoms: C_13  and  O_14 
REMARK    3  A    between atoms: C_13  and  C_15 
ROOT
HETATM    1  C   UNL     1      43.222 -16.840   3.991  1.00  0.00     0.259 C 
HETATM    2  N   UNL     1      42.123 -16.340   3.269  1.00  0.00    -0.348 N 
HETATM    3  C   UNL     1      41.519 -17.015   2.123  1.00  0.00     0.129 C 
HETATM    4  C   UNL     1      40.078 -16.588   1.849  1.00  0.00     0.063 C 
HETATM    5  C   UNL     1      39.915 -15.058   1.792  1.00  0.00     0.088 C 
HETATM    6  C   UNL     1      40.411 -14.538   3.154  1.00  0.00     0.063 C 
HETATM    7  C   UNL     1      41.868 -14.905   3.394  1.00  0.00     0.129 C 
HETATM    8  O   UNL     1      43.730 -16.178   4.899  1.00  0.00    -0.267 OA
ENDROOT
BRANCH   1   9
HETATM    9  C   UNL     1      43.739 -18.178   3.747  1.00  0.00     0.099 A 
HETATM   10  C   UNL     1      43.877 -19.277   4.581  1.00  0.00     0.168 A 
HETATM   11  N   UNL     1      43.625 -19.465   5.915  1.00  0.00    -0.233 NA
HETATM   12  N   UNL     1      44.352 -20.326   3.774  1.00  0.00    -0.219 N 
HETATM   13  C   UNL     1      43.886 -20.640   6.409  1.00  0.00     0.035 A 
HETATM   14  C   UNL     1      43.643 -20.870   7.879  1.00  0.00     0.070 C 
HETATM   15  C   UNL     1      44.403 -21.804   5.627  1.00  0.00     0.053 A 
HETATM   16  C   UNL     1      44.612 -21.594   4.316  1.00  0.00     0.036 A 
HETATM   17  C   UNL     1      45.108 -22.665   3.394  1.00  0.00     0.070 C 
HETATM   18  N   UNL     1      44.499 -19.939   2.484  1.00  0.00    -0.177 NA
HETATM   19  C   UNL     1      44.094 -18.671   2.473  1.00  0.00     0.160 A 
ENDBRANCH   1   9
BRANCH   5  20
HETATM   20  O   UNL     1      38.502 -14.801   1.730  1.00  0.00    -0.385 OA
HETATM   21  H   UNL     1      38.207 -14.947   0.814  1.00  0.00     0.211 HD
ENDBRANCH   5  20
BRANCH   5  22
HETATM   22  C   UNL     1      40.549 -14.351   0.586  1.00  0.00    -0.024 A 
HETATM   23  C   UNL     1      40.771 -14.998  -0.642  1.00  0.00     0.010 A 
HETATM   24  C   UNL     1      41.346 -14.326  -1.727  1.00  0.00     0.001 A 
HETATM   25  C   UNL     1      41.693 -12.984  -1.615  1.00  0.00     0.000 A 
HETATM   26  C   UNL     1      41.450 -12.309  -0.424  1.00  0.00     0.001 A 
HETATM   27  C   UNL     1      40.874 -12.981   0.657  1.00  0.00     0.010 A 
ENDBRANCH   5  22
TORSDOF 3
ENDMDL
MODEL 10
REMARK VINA RESULT:      -8.0      2.530      7.576
REMARK  3 active torsions:
REMARK  status: ('A' for Active; 'I' for Inactive)
REMARK    1  A    between atoms: C_8  and  C_9 
REMARK       I    between atoms: C_9  and  N_10 
REMARK    2  A    between atoms: C_13  and  O_14 
REMARK    3  A    between atoms: C_13  and  C_15 
ROOT
HETATM    1  C   UNL     1      39.226 -14.621   1.290  1.00  0.00     0.259 C 
HETATM    2  N   UNL     1      39.988 -14.567   0.109  1.00  0.00    -0.348 N 
HETATM    3  C   UNL     1      41.445 -14.672   0.068  1.00  0.00     0.129 C 
HETATM    4  C   UNL     1      41.991 -15.113  -1.289  1.00  0.00     0.063 C 
HETATM    5  C   UNL     1      41.421 -14.281  -2.454  1.00  0.00     0.088 C 
HETATM    6  C   UNL     1      39.893 -14.451  -2.375  1.00  0.00     0.063 C 
HETATM    7  C   UNL     1      39.343 -13.948  -1.048  1.00  0.00     0.129 C 
HETATM    8  O   UNL     1      38.006 -14.446   1.257  1.00  0.00    -0.267 OA
ENDROOT
BRANCH   1   9
HETATM    9  C   UNL     1      39.834 -14.963   2.566  1.00  0.00     0.099 A 
HETATM   10  C   UNL     1      40.719 -15.969   2.924  1.00  0.00     0.168 A 
HETATM   11  N   UNL     1      41.277 -17.004   2.220  1.00  0.00    -0.233 NA
HETATM   12  N   UNL     1      41.033 -15.756   4.277  1.00  0.00    -0.219 N 
HETATM   13  C   UNL     1      42.073 -17.803   2.869  1.00  0.00     0.035 A 
HETATM   14  C   UNL     1      42.683 -18.965   2.127  1.00  0.00     0.070 C 
HETATM   15  C   UNL     1      42.449 -17.655   4.307  1.00  0.00     0.053 A 
HETATM   16  C   UNL     1      41.907 -16.614   4.960  1.00  0.00     0.036 A 
HETATM   17  C   UNL     1      42.202 -16.319   6.399  1.00  0.00     0.070 C 
HETATM   18  N   UNL     1      40.403 -14.661   4.771  1.00  0.00    -0.177 NA
HETATM   19  C   UNL     1      39.725 -14.177   3.734  1.00  0.00     0.160 A 
ENDBRANCH   1   9
BRANCH   5  20
HETATM   20  O   UNL     1      41.856 -14.924  -3.664  1.00  0.00    -0.385 OA
HETATM   21  H   UNL     1      41.250 -15.662  -3.850  1.00  0.00     0.211 HD
ENDBRANCH   5  20
BRANCH   5  22
HETATM   22  C   UNL     1      41.883 -12.819  -2.536  1.00  0.00    -0.024 A 
HETATM   23  C   UNL     1      42.671 -12.216  -1.540  1.00  0.00     0.010 A 
HETATM   24  C   UNL     1      43.081 -10.882  -1.645  1.00  0.00     0.001 A 
HETATM   25  C   UNL     1      42.731 -10.127  -2.759  1.00  0.00     0.000 A 
HETATM   26  C   UNL     1      41.985 -10.710  -3.776  1.00  0.00     0.001 A 
HETATM   27  C   UNL     1      41.577 -12.042  -3.671  1.00  0.00     0.010 A 
ENDBRANCH   5  22
TORSDOF 3
ENDMDL
