MODEL 1
REMARK VINA RESULT:      -9.0      0.000      0.000
REMARK  3 active torsions:
REMARK  status: ('A' for Active; 'I' for Inactive)
REMARK    1  A    between atoms: N_12  and  C_13 
REMARK    2  A    between atoms: C_13  and  C_14 
REMARK       I    between atoms: C_14  and  N_15 
REMARK    3  A    between atoms: N_15  and  C_16 
ROOT
HETATM    1  C   UNL     1      45.232 -22.659   4.987  1.00  0.00     0.048 C 
HETATM    2  C   UNL     1      44.620 -21.301   5.166  1.00  0.00    -0.061 A 
HETATM    3  C   UNL     1      44.501 -20.424   4.073  1.00  0.00     0.021 A 
HETATM    4  C   UNL     1      43.926 -19.149   4.258  1.00  0.00     0.005 A 
HETATM    5  C   UNL     1      43.498 -18.783   5.539  1.00  0.00     0.044 A 
HETATM    6  N   UNL     1      42.970 -17.511   5.453  1.00  0.00    -0.350 N 
HETATM    7  H   UNL     1      42.569 -16.986   6.219  1.00  0.00     0.166 HD
HETATM    8  C   UNL     1      43.047 -17.072   4.162  1.00  0.00     0.116 A 
HETATM    9  C   UNL     1      43.638 -18.053   3.406  1.00  0.00     0.028 A 
HETATM   10  C   UNL     1      42.588 -15.828   3.619  1.00  0.00     0.291 A 
HETATM   11  O   UNL     1      42.052 -14.962   4.302  1.00  0.00    -0.264 OA
HETATM   12  N   UNL     1      42.828 -15.714   2.235  1.00  0.00    -0.224 N 
HETATM   13  N   UNL     1      43.432 -16.716   1.446  1.00  0.00    -0.180 NA
HETATM   14  C   UNL     1      43.822 -17.828   2.002  1.00  0.00     0.153 A 
HETATM   15  C   UNL     1      43.621 -19.632   6.644  1.00  0.00     0.031 A 
HETATM   16  C   UNL     1      44.190 -20.893   6.433  1.00  0.00     0.009 A 
ENDROOT
BRANCH  12  17
HETATM   17  C   UNL     1      42.262 -14.587   1.511  1.00  0.00     0.258 C 
BRANCH  17  18
HETATM   18  C   UNL     1      41.109 -14.654   0.485  1.00  0.00     0.244 C 
HETATM   19  N   UNL     1      41.124 -13.959  -0.730  1.00  0.00    -0.321 N 
HETATM   20  C   UNL     1      42.217 -13.086  -1.138  1.00  0.00     0.159 C 
HETATM   21  O   UNL     1      40.145 -15.354   0.838  1.00  0.00    -0.271 OA
BRANCH  19  22
HETATM   22  C   UNL     1      39.994 -14.028  -1.627  1.00  0.00     0.037 A 
HETATM   23  C   UNL     1      39.911 -15.000  -2.636  1.00  0.00     0.037 A 
HETATM   24  C   UNL     1      38.817 -15.071  -3.521  1.00  0.00    -0.054 A 
HETATM   25  C   UNL     1      38.801 -16.145  -4.574  1.00  0.00     0.049 C 
HETATM   26  C   UNL     1      37.780 -14.128  -3.414  1.00  0.00    -0.056 A 
HETATM   27  C   UNL     1      36.570 -14.170  -4.305  1.00  0.00     0.049 C 
HETATM   28  C   UNL     1      37.850 -13.161  -2.403  1.00  0.00     0.009 A 
HETATM   29  C   UNL     1      38.942 -13.109  -1.529  1.00  0.00     0.030 A 
ENDBRANCH  19  22
ENDBRANCH  17  18
ENDBRANCH  12  17
TORSDOF 3
ENDMDL
MODEL 2
REMARK VINA RESULT:      -9.0      1.774      2.152
REMARK  3 active torsions:
REMARK  status: ('A' for Active; 'I' for Inactive)
REMARK    1  A    between atoms: N_12  and  C_13 
REMARK    2  A    between atoms: C_13  and  C_14 
REMARK       I    between atoms: C_14  and  N_15 
REMARK    3  A    between atoms: N_15  and  C_16 
ROOT
HETATM    1  C   UNL     1      44.724 -22.191   2.106  1.00  0.00     0.048 C 
HETATM    2  C   UNL     1      44.269 -20.928   2.777  1.00  0.00    -0.061 A 
HETATM    3  C   UNL     1      43.395 -20.046   2.118  1.00  0.00     0.021 A 
HETATM    4  C   UNL     1      42.980 -18.861   2.761  1.00  0.00     0.005 A 
HETATM    5  C   UNL     1      43.463 -18.587   4.045  1.00  0.00     0.044 A 
HETATM    6  N   UNL     1      42.906 -17.392   4.452  1.00  0.00    -0.350 N 
HETATM    7  H   UNL     1      43.061 -16.944   5.346  1.00  0.00     0.166 HD
HETATM    8  C   UNL     1      42.086 -16.914   3.471  1.00  0.00     0.116 A 
HETATM    9  C   UNL     1      42.118 -17.790   2.416  1.00  0.00     0.028 A 
HETATM   10  C   UNL     1      41.284 -15.725   3.485  1.00  0.00     0.291 A 
HETATM   11  O   UNL     1      41.256 -14.954   4.437  1.00  0.00    -0.264 OA
HETATM   12  N   UNL     1      40.553 -15.545   2.294  1.00  0.00    -0.224 N 
HETATM   13  N   UNL     1      40.574 -16.441   1.203  1.00  0.00    -0.180 NA
HETATM   14  C   UNL     1      41.321 -17.507   1.257  1.00  0.00     0.153 A 
HETATM   15  C   UNL     1      44.346 -19.441   4.714  1.00  0.00     0.031 A 
HETATM   16  C   UNL     1      44.740 -20.612   4.056  1.00  0.00     0.009 A 
ENDROOT
BRANCH  12  17
HETATM   17  C   UNL     1      39.563 -14.483   2.228  1.00  0.00     0.258 C 
BRANCH  17  18
HETATM   18  C   UNL     1      38.725 -14.097   0.989  1.00  0.00     0.244 C 
HETATM   19  N   UNL     1      39.256 -13.421  -0.115  1.00  0.00    -0.321 N 
HETATM   20  C   UNL     1      40.647 -12.993  -0.196  1.00  0.00     0.159 C 
HETATM   21  O   UNL     1      37.524 -14.409   1.062  1.00  0.00    -0.271 OA
BRANCH  19  22
HETATM   22  C   UNL     1      38.408 -13.049  -1.224  1.00  0.00     0.037 A 
HETATM   23  C   UNL     1      38.049 -13.971  -2.219  1.00  0.00     0.037 A 
HETATM   24  C   UNL     1      37.229 -13.617  -3.309  1.00  0.00    -0.054 A 
HETATM   25  C   UNL     1      36.887 -14.664  -4.333  1.00  0.00     0.049 C 
HETATM   26  C   UNL     1      36.770 -12.293  -3.425  1.00  0.00    -0.056 A 
HETATM   27  C   UNL     1      35.866 -11.860  -4.545  1.00  0.00     0.049 C 
HETATM   28  C   UNL     1      37.115 -11.370  -2.431  1.00  0.00     0.009 A 
HETATM   29  C   UNL     1      37.927 -11.741  -1.352  1.00  0.00     0.030 A 
ENDBRANCH  19  22
ENDBRANCH  17  18
ENDBRANCH  12  17
TORSDOF 3
ENDMDL
MODEL 3
REMARK VINA RESULT:      -8.9      2.357      9.220
REMARK  3 active torsions:
REMARK  status: ('A' for Active; 'I' for Inactive)
REMARK    1  A    between atoms: N_12  and  C_13 
REMARK    2  A    between atoms: C_13  and  C_14 
REMARK       I    between atoms: C_14  and  N_15 
REMARK    3  A    between atoms: N_15  and  C_16 
ROOT
HETATM    1  C   UNL     1      42.727  -9.278  -3.363  1.00  0.00     0.048 C 
HETATM    2  C   UNL     1      42.397 -10.682  -2.949  1.00  0.00    -0.061 A 
HETATM    3  C   UNL     1      42.376 -11.038  -1.589  1.00  0.00     0.021 A 
HETATM    4  C   UNL     1      42.067 -12.363  -1.218  1.00  0.00     0.005 A 
HETATM    5  C   UNL     1      41.800 -13.300  -2.222  1.00  0.00     0.044 A 
HETATM    6  N   UNL     1      41.519 -14.502  -1.605  1.00  0.00    -0.350 N 
HETATM    7  H   UNL     1      41.275 -15.363  -2.077  1.00  0.00     0.166 HD
HETATM    8  C   UNL     1      41.594 -14.348  -0.251  1.00  0.00     0.116 A 
HETATM    9  C   UNL     1      41.938 -13.047   0.018  1.00  0.00     0.028 A 
HETATM   10  C   UNL     1      41.345 -15.324   0.769  1.00  0.00     0.291 A 
HETATM   11  O   UNL     1      41.029 -16.482   0.517  1.00  0.00    -0.264 OA
HETATM   12  N   UNL     1      41.512 -14.810   2.070  1.00  0.00    -0.224 N 
HETATM   13  N   UNL     1      41.862 -13.474   2.360  1.00  0.00    -0.180 NA
HETATM   14  C   UNL     1      42.069 -12.635   1.385  1.00  0.00     0.153 A 
HETATM   15  C   UNL     1      41.831 -12.973  -3.582  1.00  0.00     0.031 A 
HETATM   16  C   UNL     1      42.136 -11.650  -3.925  1.00  0.00     0.009 A 
ENDROOT
BRANCH  12  17
HETATM   17  C   UNL     1      41.124 -15.629   3.207  1.00  0.00     0.258 C 
BRANCH  17  18
HETATM   18  C   UNL     1      41.790 -16.953   3.642  1.00  0.00     0.244 C 
HETATM   19  N   UNL     1      43.103 -17.299   3.303  1.00  0.00    -0.321 N 
HETATM   20  C   UNL     1      43.966 -16.455   2.485  1.00  0.00     0.159 C 
HETATM   21  O   UNL     1      41.053 -17.709   4.298  1.00  0.00    -0.271 OA
BRANCH  19  22
HETATM   22  C   UNL     1      43.652 -18.574   3.705  1.00  0.00     0.037 A 
HETATM   23  C   UNL     1      43.794 -19.634   2.798  1.00  0.00     0.037 A 
HETATM   24  C   UNL     1      44.322 -20.884   3.181  1.00  0.00    -0.054 A 
HETATM   25  C   UNL     1      44.445 -21.969   2.148  1.00  0.00     0.049 C 
HETATM   26  C   UNL     1      44.699 -21.092   4.519  1.00  0.00    -0.056 A 
HETATM   27  C   UNL     1      45.299 -22.390   4.984  1.00  0.00     0.049 C 
HETATM   28  C   UNL     1      44.570 -20.035   5.429  1.00  0.00     0.009 A 
HETATM   29  C   UNL     1      44.049 -18.799   5.029  1.00  0.00     0.030 A 
ENDBRANCH  19  22
ENDBRANCH  17  18
ENDBRANCH  12  17
TORSDOF 3
ENDMDL
MODEL 4
REMARK VINA RESULT:      -8.9      2.668      3.673
REMARK  3 active torsions:
REMARK  status: ('A' for Active; 'I' for Inactive)
REMARK    1  A    between atoms: N_12  and  C_13 
REMARK    2  A    between atoms: C_13  and  C_14 
REMARK       I    between atoms: C_14  and  N_15 
REMARK    3  A    between atoms: N_15  and  C_16 
ROOT
HETATM    1  C   UNL     1      44.429 -22.269   2.192  1.00  0.00     0.048 C 
HETATM    2  C   UNL     1      44.236 -20.881   2.729  1.00  0.00    -0.061 A 
HETATM    3  C   UNL     1      43.716 -19.865   1.908  1.00  0.00     0.021 A 
HETATM    4  C   UNL     1      43.544 -18.565   2.428  1.00  0.00     0.005 A 
HETATM    5  C   UNL     1      43.910 -18.316   3.755  1.00  0.00     0.044 A 
HETATM    6  N   UNL     1      43.637 -16.990   4.020  1.00  0.00    -0.350 N 
HETATM    7  H   UNL     1      43.786 -16.523   4.905  1.00  0.00     0.166 HD
HETATM    8  C   UNL     1      43.105 -16.404   2.907  1.00  0.00     0.116 A 
HETATM    9  C   UNL     1      43.044 -17.344   1.910  1.00  0.00     0.028 A 
HETATM   10  C   UNL     1      42.646 -15.055   2.748  1.00  0.00     0.291 A 
HETATM   11  O   UNL     1      42.697 -14.225   3.649  1.00  0.00    -0.264 OA
HETATM   12  N   UNL     1      42.149 -14.795   1.456  1.00  0.00    -0.224 N 
HETATM   13  N   UNL     1      42.078 -15.754   0.423  1.00  0.00    -0.180 NA
HETATM   14  C   UNL     1      42.507 -16.966   0.635  1.00  0.00     0.153 A 
HETATM   15  C   UNL     1      44.445 -19.307   4.585  1.00  0.00     0.031 A 
HETATM   16  C   UNL     1      44.602 -20.590   4.048  1.00  0.00     0.009 A 
ENDROOT
BRANCH  12  17
HETATM   17  C   UNL     1      41.487 -13.528   1.196  1.00  0.00     0.258 C 
BRANCH  17  18
HETATM   18  C   UNL     1      41.784 -12.572   0.019  1.00  0.00     0.244 C 
HETATM   19  N   UNL     1      41.031 -12.551  -1.161  1.00  0.00    -0.321 N 
HETATM   20  C   UNL     1      39.906 -13.445  -1.406  1.00  0.00     0.159 C 
HETATM   21  O   UNL     1      42.772 -11.837   0.189  1.00  0.00    -0.271 OA
BRANCH  19  22
HETATM   22  C   UNL     1      41.388 -11.663  -2.243  1.00  0.00     0.037 A 
HETATM   23  C   UNL     1      40.976 -10.323  -2.264  1.00  0.00     0.037 A 
HETATM   24  C   UNL     1      41.313  -9.451  -3.318  1.00  0.00    -0.054 A 
HETATM   25  C   UNL     1      40.834  -8.026  -3.265  1.00  0.00     0.049 C 
HETATM   26  C   UNL     1      42.066  -9.936  -4.401  1.00  0.00    -0.056 A 
HETATM   27  C   UNL     1      42.486  -9.049  -5.540  1.00  0.00     0.049 C 
HETATM   28  C   UNL     1      42.491 -11.271  -4.383  1.00  0.00     0.009 A 
HETATM   29  C   UNL     1      42.151 -12.121  -3.324  1.00  0.00     0.030 A 
ENDBRANCH  19  22
ENDBRANCH  17  18
ENDBRANCH  12  17
TORSDOF 3
ENDMDL
MODEL 5
REMARK VINA RESULT:      -8.8      2.890      3.965
REMARK  3 active torsions:
REMARK  status: ('A' for Active; 'I' for Inactive)
REMARK    1  A    between atoms: N_12  and  C_13 
REMARK    2  A    between atoms: C_13  and  C_14 
REMARK       I    between atoms: C_14  and  N_15 
REMARK    3  A    between atoms: N_15  and  C_16 
ROOT
HETATM    1  C   UNL     1      45.190 -22.644   5.120  1.00  0.00     0.048 C 
HETATM    2  C   UNL     1      44.681 -21.655   4.113  1.00  0.00    -0.061 A 
HETATM    3  C   UNL     1      44.420 -20.326   4.488  1.00  0.00     0.021 A 
HETATM    4  C   UNL     1      43.939 -19.410   3.529  1.00  0.00     0.005 A 
HETATM    5  C   UNL     1      43.720 -19.856   2.221  1.00  0.00     0.044 A 
HETATM    6  N   UNL     1      43.266 -18.781   1.485  1.00  0.00    -0.350 N 
HETATM    7  H   UNL     1      43.034 -18.796   0.501  1.00  0.00     0.166 HD
HETATM    8  C   UNL     1      43.201 -17.676   2.285  1.00  0.00     0.116 A 
HETATM    9  C   UNL     1      43.599 -18.034   3.549  1.00  0.00     0.028 A 
HETATM   10  C   UNL     1      42.817 -16.342   1.928  1.00  0.00     0.291 A 
HETATM   11  O   UNL     1      42.471 -16.032   0.793  1.00  0.00    -0.264 OA
HETATM   12  N   UNL     1      42.872 -15.448   3.015  1.00  0.00    -0.224 N 
HETATM   13  N   UNL     1      43.283 -15.802   4.317  1.00  0.00    -0.180 NA
HETATM   14  C   UNL     1      43.625 -17.032   4.575  1.00  0.00     0.153 A 
HETATM   15  C   UNL     1      43.956 -21.178   1.829  1.00  0.00     0.031 A 
HETATM   16  C   UNL     1      44.438 -22.066   2.797  1.00  0.00     0.009 A 
ENDROOT
BRANCH  12  17
HETATM   17  C   UNL     1      42.682 -14.027   2.769  1.00  0.00     0.258 C 
BRANCH  17  18
HETATM   18  C   UNL     1      41.418 -13.369   2.175  1.00  0.00     0.244 C 
HETATM   19  N   UNL     1      40.148 -13.490   2.750  1.00  0.00    -0.321 N 
HETATM   20  C   UNL     1      39.887 -14.270   3.954  1.00  0.00     0.159 C 
HETATM   21  O   UNL     1      41.611 -12.741   1.120  1.00  0.00    -0.271 OA
BRANCH  19  22
HETATM   22  C   UNL     1      38.997 -12.886   2.120  1.00  0.00     0.037 A 
HETATM   23  C   UNL     1      38.579 -11.586   2.439  1.00  0.00     0.037 A 
HETATM   24  C   UNL     1      37.453 -10.990   1.836  1.00  0.00    -0.054 A 
HETATM   25  C   UNL     1      37.071  -9.590   2.231  1.00  0.00     0.049 C 
HETATM   26  C   UNL     1      36.704 -11.722   0.899  1.00  0.00    -0.056 A 
HETATM   27  C   UNL     1      35.513 -11.133   0.196  1.00  0.00     0.049 C 
HETATM   28  C   UNL     1      37.120 -13.018   0.567  1.00  0.00     0.009 A 
HETATM   29  C   UNL     1      38.244 -13.591   1.173  1.00  0.00     0.030 A 
ENDBRANCH  19  22
ENDBRANCH  17  18
ENDBRANCH  12  17
TORSDOF 3
ENDMDL
MODEL 6
REMARK VINA RESULT:      -8.8      2.738      9.758
REMARK  3 active torsions:
REMARK  status: ('A' for Active; 'I' for Inactive)
REMARK    1  A    between atoms: N_12  and  C_13 
REMARK    2  A    between atoms: C_13  and  C_14 
REMARK       I    between atoms: C_14  and  N_15 
REMARK    3  A    between atoms: N_15  and  C_16 
ROOT
HETATM    1  C   UNL     1      42.834  -7.550  -4.586  1.00  0.00     0.048 C 
HETATM    2  C   UNL     1      42.564  -8.979  -4.216  1.00  0.00    -0.061 A 
HETATM    3  C   UNL     1      42.567  -9.379  -2.868  1.00  0.00     0.021 A 
HETATM    4  C   UNL     1      42.314 -10.727  -2.537  1.00  0.00     0.005 A 
HETATM    5  C   UNL     1      42.078 -11.641  -3.570  1.00  0.00     0.044 A 
HETATM    6  N   UNL     1      41.850 -12.873  -2.990  1.00  0.00    -0.350 N 
HETATM    7  H   UNL     1      41.638 -13.727  -3.488  1.00  0.00     0.166 HD
HETATM    8  C   UNL     1      41.929 -12.759  -1.632  1.00  0.00     0.116 A 
HETATM    9  C   UNL     1      42.222 -11.454  -1.324  1.00  0.00     0.028 A 
HETATM   10  C   UNL     1      41.727 -13.776  -0.643  1.00  0.00     0.291 A 
HETATM   11  O   UNL     1      41.457 -14.937  -0.930  1.00  0.00    -0.264 OA
HETATM   12  N   UNL     1      41.884 -13.298   0.673  1.00  0.00    -0.224 N 
HETATM   13  N   UNL     1      42.182 -11.959   1.004  1.00  0.00    -0.180 NA
HETATM   14  C   UNL     1      42.347 -11.081   0.056  1.00  0.00     0.153 A 
HETATM   15  C   UNL     1      42.086 -11.270  -4.918  1.00  0.00     0.031 A 
HETATM   16  C   UNL     1      42.334  -9.926  -5.220  1.00  0.00     0.009 A 
ENDROOT
BRANCH  12  17
HETATM   17  C   UNL     1      41.537 -14.168   1.785  1.00  0.00     0.258 C 
BRANCH  17  18
HETATM   18  C   UNL     1      42.359 -15.377   2.283  1.00  0.00     0.244 C 
HETATM   19  N   UNL     1      41.827 -16.665   2.413  1.00  0.00    -0.321 N 
HETATM   20  C   UNL     1      40.437 -16.988   2.113  1.00  0.00     0.159 C 
HETATM   21  O   UNL     1      43.533 -15.110   2.592  1.00  0.00    -0.271 OA
BRANCH  19  22
HETATM   22  C   UNL     1      42.637 -17.745   2.927  1.00  0.00     0.037 A 
HETATM   23  C   UNL     1      42.943 -18.872   2.150  1.00  0.00     0.037 A 
HETATM   24  C   UNL     1      43.726 -19.934   2.644  1.00  0.00    -0.054 A 
HETATM   25  C   UNL     1      44.012 -21.106   1.747  1.00  0.00     0.049 C 
HETATM   26  C   UNL     1      44.201 -19.884   3.966  1.00  0.00    -0.056 A 
HETATM   27  C   UNL     1      45.068 -20.968   4.542  1.00  0.00     0.049 C 
HETATM   28  C   UNL     1      43.908 -18.757   4.745  1.00  0.00     0.009 A 
HETATM   29  C   UNL     1      43.134 -17.709   4.236  1.00  0.00     0.030 A 
ENDBRANCH  19  22
ENDBRANCH  17  18
ENDBRANCH  12  17
TORSDOF 3
ENDMDL
MODEL 7
REMARK VINA RESULT:      -8.6      2.676      9.106
REMARK  3 active torsions:
REMARK  status: ('A' for Active; 'I' for Inactive)
REMARK    1  A    between atoms: N_12  and  C_13 
REMARK    2  A    between atoms: C_13  and  C_14 
REMARK       I    between atoms: C_14  and  N_15 
REMARK    3  A    between atoms: N_15  and  C_16 
ROOT
HETATM    1  C   UNL     1      42.479 -11.234  -4.654  1.00  0.00     0.048 C 
HETATM    2  C   UNL     1      42.475 -11.164  -3.155  1.00  0.00    -0.061 A 
HETATM    3  C   UNL     1      41.944 -12.220  -2.394  1.00  0.00     0.021 A 
HETATM    4  C   UNL     1      41.945 -12.137  -0.986  1.00  0.00     0.005 A 
HETATM    5  C   UNL     1      42.467 -10.989  -0.379  1.00  0.00     0.044 A 
HETATM    6  N   UNL     1      42.363 -11.157   0.987  1.00  0.00    -0.350 N 
HETATM    7  H   UNL     1      42.672 -10.495   1.687  1.00  0.00     0.166 HD
HETATM    8  C   UNL     1      41.801 -12.372   1.255  1.00  0.00     0.116 A 
HETATM    9  C   UNL     1      41.525 -12.993   0.063  1.00  0.00     0.028 A 
HETATM   10  C   UNL     1      41.541 -12.967   2.532  1.00  0.00     0.291 A 
HETATM   11  O   UNL     1      41.801 -12.407   3.592  1.00  0.00    -0.264 OA
HETATM   12  N   UNL     1      40.953 -14.244   2.431  1.00  0.00    -0.224 N 
HETATM   13  N   UNL     1      40.667 -14.895   1.212  1.00  0.00    -0.180 NA
HETATM   14  C   UNL     1      40.934 -14.300   0.084  1.00  0.00     0.153 A 
HETATM   15  C   UNL     1      42.985  -9.919  -1.116  1.00  0.00     0.031 A 
HETATM   16  C   UNL     1      42.977 -10.028  -2.512  1.00  0.00     0.009 A 
ENDROOT
BRANCH  12  17
HETATM   17  C   UNL     1      40.794 -15.044   3.634  1.00  0.00     0.258 C 
BRANCH  17  18
HETATM   18  C   UNL     1      41.451 -16.415   3.908  1.00  0.00     0.244 C 
HETATM   19  N   UNL     1      42.786 -16.561   4.303  1.00  0.00    -0.321 N 
HETATM   20  C   UNL     1      43.695 -15.434   4.473  1.00  0.00     0.159 C 
HETATM   21  O   UNL     1      40.705 -17.391   3.718  1.00  0.00    -0.271 OA
BRANCH  19  22
HETATM   22  C   UNL     1      43.353 -17.875   4.499  1.00  0.00     0.037 A 
HETATM   23  C   UNL     1      43.755 -18.673   3.418  1.00  0.00     0.037 A 
HETATM   24  C   UNL     1      44.303 -19.959   3.598  1.00  0.00    -0.054 A 
HETATM   25  C   UNL     1      44.712 -20.752   2.388  1.00  0.00     0.049 C 
HETATM   26  C   UNL     1      44.432 -20.478   4.898  1.00  0.00    -0.056 A 
HETATM   27  C   UNL     1      45.039 -21.828   5.160  1.00  0.00     0.049 C 
HETATM   28  C   UNL     1      44.043 -19.683   5.984  1.00  0.00     0.009 A 
HETATM   29  C   UNL     1      43.506 -18.405   5.786  1.00  0.00     0.030 A 
ENDBRANCH  19  22
ENDBRANCH  17  18
ENDBRANCH  12  17
TORSDOF 3
ENDMDL
MODEL 8
REMARK VINA RESULT:      -8.5      5.487      8.368
REMARK  3 active torsions:
REMARK  status: ('A' for Active; 'I' for Inactive)
REMARK    1  A    between atoms: N_12  and  C_13 
REMARK    2  A    between atoms: C_13  and  C_14 
REMARK       I    between atoms: C_14  and  N_15 
REMARK    3  A    between atoms: N_15  and  C_16 
ROOT
HETATM    1  C   UNL     1      44.943 -20.452   4.222  1.00  0.00     0.048 C 
HETATM    2  C   UNL     1      43.954 -19.465   3.674  1.00  0.00    -0.061 A 
HETATM    3  C   UNL     1      43.365 -18.505   4.515  1.00  0.00     0.021 A 
HETATM    4  C   UNL     1      42.436 -17.586   3.985  1.00  0.00     0.005 A 
HETATM    5  C   UNL     1      42.112 -17.663   2.626  1.00  0.00     0.044 A 
HETATM    6  N   UNL     1      41.202 -16.661   2.358  1.00  0.00    -0.350 N 
HETATM    7  H   UNL     1      40.795 -16.462   1.453  1.00  0.00     0.166 HD
HETATM    8  C   UNL     1      40.951 -15.956   3.500  1.00  0.00     0.116 A 
HETATM    9  C   UNL     1      41.687 -16.506   4.518  1.00  0.00     0.028 A 
HETATM   10  C   UNL     1      40.099 -14.816   3.669  1.00  0.00     0.291 A 
HETATM   11  O   UNL     1      39.453 -14.327   2.750  1.00  0.00    -0.264 OA
HETATM   12  N   UNL     1      40.084 -14.337   4.995  1.00  0.00    -0.224 N 
HETATM   13  N   UNL     1      40.839 -14.892   6.050  1.00  0.00    -0.180 NA
HETATM   14  C   UNL     1      41.599 -15.926   5.827  1.00  0.00     0.153 A 
HETATM   15  C   UNL     1      42.673 -18.620   1.774  1.00  0.00     0.031 A 
HETATM   16  C   UNL     1      43.596 -19.518   2.323  1.00  0.00     0.009 A 
ENDROOT
BRANCH  12  17
HETATM   17  C   UNL     1      39.407 -13.084   5.284  1.00  0.00     0.258 C 
BRANCH  17  18
HETATM   18  C   UNL     1      39.682 -12.161   6.492  1.00  0.00     0.244 C 
HETATM   19  N   UNL     1      40.604 -11.109   6.460  1.00  0.00    -0.321 N 
HETATM   20  C   UNL     1      41.415 -10.793   5.290  1.00  0.00     0.159 C 
HETATM   21  O   UNL     1      39.036 -12.447   7.515  1.00  0.00    -0.271 OA
BRANCH  19  22
HETATM   22  C   UNL     1      40.846 -10.310   7.639  1.00  0.00     0.037 A 
HETATM   23  C   UNL     1      41.858 -10.635   8.554  1.00  0.00     0.037 A 
HETATM   24  C   UNL     1      42.099  -9.867   9.711  1.00  0.00    -0.054 A 
HETATM   25  C   UNL     1      43.205 -10.280  10.642  1.00  0.00     0.049 C 
HETATM   26  C   UNL     1      41.288  -8.751   9.978  1.00  0.00    -0.056 A 
HETATM   27  C   UNL     1      41.513  -7.872  11.177  1.00  0.00     0.049 C 
HETATM   28  C   UNL     1      40.281  -8.414   9.065  1.00  0.00     0.009 A 
HETATM   29  C   UNL     1      40.061  -9.185   7.918  1.00  0.00     0.030 A 
ENDBRANCH  19  22
ENDBRANCH  17  18
ENDBRANCH  12  17
TORSDOF 3
ENDMDL
MODEL 9
REMARK VINA RESULT:      -8.5      6.888      9.890
REMARK  3 active torsions:
REMARK  status: ('A' for Active; 'I' for Inactive)
REMARK    1  A    between atoms: N_12  and  C_13 
REMARK    2  A    between atoms: C_13  and  C_14 
REMARK       I    between atoms: C_14  and  N_15 
REMARK    3  A    between atoms: N_15  and  C_16 
ROOT
HETATM    1  C   UNL     1      42.848  -9.443  14.495  1.00  0.00     0.048 C 
HETATM    2  C   UNL     1      41.956  -9.654  13.307  1.00  0.00    -0.061 A 
HETATM    3  C   UNL     1      42.497 -10.037  12.068  1.00  0.00     0.021 A 
HETATM    4  C   UNL     1      41.645 -10.228  10.960  1.00  0.00     0.005 A 
HETATM    5  C   UNL     1      40.272 -10.015  11.123  1.00  0.00     0.044 A 
HETATM    6  N   UNL     1      39.665 -10.275   9.911  1.00  0.00    -0.350 N 
HETATM    7  H   UNL     1      38.672 -10.217   9.725  1.00  0.00     0.166 HD
HETATM    8  C   UNL     1      40.610 -10.649   8.999  1.00  0.00     0.116 A 
HETATM    9  C   UNL     1      41.837 -10.621   9.612  1.00  0.00     0.028 A 
HETATM   10  C   UNL     1      40.420 -11.041   7.633  1.00  0.00     0.291 A 
HETATM   11  O   UNL     1      39.317 -11.071   7.098  1.00  0.00    -0.264 OA
HETATM   12  N   UNL     1      41.627 -11.370   6.986  1.00  0.00    -0.224 N 
HETATM   13  N   UNL     1      42.894 -11.349   7.606  1.00  0.00    -0.180 NA
HETATM   14  C   UNL     1      42.998 -10.989   8.853  1.00  0.00     0.153 A 
HETATM   15  C   UNL     1      39.712  -9.617  12.341  1.00  0.00     0.031 A 
HETATM   16  C   UNL     1      40.578  -9.439  13.426  1.00  0.00     0.009 A 
ENDROOT
BRANCH  12  17
HETATM   17  C   UNL     1      41.577 -11.954   5.655  1.00  0.00     0.258 C 
BRANCH  17  18
HETATM   18  C   UNL     1      42.220 -13.291   5.225  1.00  0.00     0.244 C 
HETATM   19  N   UNL     1      41.577 -14.527   5.352  1.00  0.00    -0.321 N 
HETATM   20  C   UNL     1      40.245 -14.679   5.926  1.00  0.00     0.159 C 
HETATM   21  O   UNL     1      43.376 -13.187   4.780  1.00  0.00    -0.271 OA
BRANCH  19  22
HETATM   22  C   UNL     1      42.251 -15.747   4.972  1.00  0.00     0.037 A 
HETATM   23  C   UNL     1      43.243 -16.323   5.778  1.00  0.00     0.037 A 
HETATM   24  C   UNL     1      43.912 -17.509   5.413  1.00  0.00    -0.054 A 
HETATM   25  C   UNL     1      44.962 -18.066   6.335  1.00  0.00     0.049 C 
HETATM   26  C   UNL     1      43.599 -18.129   4.191  1.00  0.00    -0.056 A 
HETATM   27  C   UNL     1      44.252 -19.412   3.759  1.00  0.00     0.049 C 
HETATM   28  C   UNL     1      42.602 -17.565   3.384  1.00  0.00     0.009 A 
HETATM   29  C   UNL     1      41.945 -16.390   3.766  1.00  0.00     0.030 A 
ENDBRANCH  19  22
ENDBRANCH  17  18
ENDBRANCH  12  17
TORSDOF 3
ENDMDL
MODEL 10
REMARK VINA RESULT:      -8.5      4.049      6.342
REMARK  3 active torsions:
REMARK  status: ('A' for Active; 'I' for Inactive)
REMARK    1  A    between atoms: N_12  and  C_13 
REMARK    2  A    between atoms: C_13  and  C_14 
REMARK       I    between atoms: C_14  and  N_15 
REMARK    3  A    between atoms: N_15  and  C_16 
ROOT
HETATM    1  C   UNL     1      45.256 -22.638   5.107  1.00  0.00     0.048 C 
HETATM    2  C   UNL     1      44.709 -21.657   4.112  1.00  0.00    -0.061 A 
HETATM    3  C   UNL     1      44.405 -20.341   4.501  1.00  0.00     0.021 A 
HETATM    4  C   UNL     1      43.889 -19.433   3.554  1.00  0.00     0.005 A 
HETATM    5  C   UNL     1      43.679 -19.873   2.243  1.00  0.00     0.044 A 
HETATM    6  N   UNL     1      43.185 -18.806   1.520  1.00  0.00    -0.350 N 
HETATM    7  H   UNL     1      42.950 -18.820   0.536  1.00  0.00     0.166 HD
HETATM    8  C   UNL     1      43.087 -17.713   2.331  1.00  0.00     0.116 A 
HETATM    9  C   UNL     1      43.503 -18.069   3.590  1.00  0.00     0.028 A 
HETATM   10  C   UNL     1      42.656 -16.389   1.989  1.00  0.00     0.291 A 
HETATM   11  O   UNL     1      42.295 -16.080   0.859  1.00  0.00    -0.264 OA
HETATM   12  N   UNL     1      42.686 -15.504   3.085  1.00  0.00    -0.224 N 
HETATM   13  N   UNL     1      43.115 -15.857   4.382  1.00  0.00    -0.180 NA
HETATM   14  C   UNL     1      43.499 -17.077   4.626  1.00  0.00     0.153 A 
HETATM   15  C   UNL     1      43.959 -21.182   1.836  1.00  0.00     0.031 A 
HETATM   16  C   UNL     1      44.475 -22.063   2.794  1.00  0.00     0.009 A 
ENDROOT
BRANCH  12  17
HETATM   17  C   UNL     1      42.447 -14.089   2.854  1.00  0.00     0.258 C 
BRANCH  17  18
HETATM   18  C   UNL     1      41.980 -13.062   3.910  1.00  0.00     0.244 C 
HETATM   19  N   UNL     1      40.649 -12.652   4.044  1.00  0.00    -0.321 N 
HETATM   20  C   UNL     1      39.574 -13.134   3.186  1.00  0.00     0.159 C 
HETATM   21  O   UNL     1      42.892 -12.601   4.619  1.00  0.00    -0.271 OA
BRANCH  19  22
HETATM   22  C   UNL     1      40.285 -11.654   5.024  1.00  0.00     0.037 A 
HETATM   23  C   UNL     1      39.946 -12.002   6.340  1.00  0.00     0.037 A 
HETATM   24  C   UNL     1      39.582 -11.037   7.301  1.00  0.00    -0.054 A 
HETATM   25  C   UNL     1      39.236 -11.490   8.692  1.00  0.00     0.049 C 
HETATM   26  C   UNL     1      39.531  -9.682   6.932  1.00  0.00    -0.056 A 
HETATM   27  C   UNL     1      39.182  -8.601   7.918  1.00  0.00     0.049 C 
HETATM   28  C   UNL     1      39.877  -9.325   5.623  1.00  0.00     0.009 A 
HETATM   29  C   UNL     1      40.241 -10.297   4.683  1.00  0.00     0.030 A 
ENDBRANCH  19  22
ENDBRANCH  17  18
ENDBRANCH  12  17
TORSDOF 3
ENDMDL
