MODEL 1
REMARK VINA RESULT:      -8.7      0.000      0.000
REMARK  5 active torsions:
REMARK  status: ('A' for Active; 'I' for Inactive)
REMARK    1  A    between atoms: O_2  and  C_3 
REMARK    2  A    between atoms: C_4  and  C_5 
REMARK       I    between atoms: C_5  and  N_6 
REMARK    3  A    between atoms: N_6  and  C_7 
REMARK    4  A    between atoms: C_7  and  C_8 
REMARK       I    between atoms: C_8  and  N_9 
REMARK    5  A    between atoms: N_9  and  N_10 
ROOT
HETATM    1  C   UNL     1      42.132 -13.000   5.375  1.00  0.00     0.255 C 
HETATM    2  N   UNL     1      41.921 -14.264   5.901  1.00  0.00    -0.245 N 
HETATM    3  O   UNL     1      42.673 -12.779   4.289  1.00  0.00    -0.270 OA
HETATM    4  H   UNL     1      41.332 -14.379   6.733  1.00  0.00     0.192 HD
ENDROOT
BRANCH   1   5
HETATM    5  C   UNL     1      41.489 -11.856   6.163  1.00  0.00     0.227 C 
BRANCH   5   6
HETATM    6  N   UNL     1      41.895 -11.713   7.553  1.00  0.00    -0.348 N 
HETATM    7  C   UNL     1      42.197 -10.474   8.080  1.00  0.00     0.254 C 
HETATM    8  O   UNL     1      41.912  -9.433   7.500  1.00  0.00    -0.268 OA
HETATM    9  H   UNL     1      42.273 -12.534   8.006  1.00  0.00     0.163 HD
BRANCH   7  10
HETATM   10  C   UNL     1      42.873 -10.488   9.404  1.00  0.00     0.065 A 
HETATM   11  C   UNL     1      44.033 -11.245   9.610  1.00  0.00     0.084 A 
HETATM   12  C   UNL     1      44.632 -11.280  10.874  1.00  0.00     0.038 A 
HETATM   13  C   UNL     1      44.099 -10.530  11.923  1.00  0.00     0.003 A 
HETATM   14  C   UNL     1      42.962  -9.750  11.715  1.00  0.00     0.001 A 
HETATM   15  C   UNL     1      42.349  -9.725  10.460  1.00  0.00     0.020 A 
BRANCH  11  16
HETATM   16  O   UNL     1      44.533 -12.047   8.619  1.00  0.00    -0.355 OA
HETATM   17  C   UNL     1      45.958 -12.109   8.696  1.00  0.00     0.210 C 
ENDBRANCH  11  16
ENDBRANCH   7  10
ENDBRANCH   5   6
ENDBRANCH   1   5
BRANCH   2  18
HETATM   18  N   UNL     1      42.278 -15.356   5.161  1.00  0.00    -0.166 NA
HETATM   19  C   UNL     1      43.169 -16.153   5.652  1.00  0.00     0.157 A 
HETATM   20  C   UNL     1      43.978 -16.036   6.948  1.00  0.00     0.277 A 
HETATM   21  C   UNL     1      43.592 -17.404   5.032  1.00  0.00     0.028 A 
HETATM   22  O   UNL     1      43.959 -15.096   7.710  1.00  0.00    -0.266 OA
HETATM   23  N   UNL     1      44.731 -17.191   7.017  1.00  0.00    -0.321 N 
HETATM   24  C   UNL     1      44.514 -17.988   5.898  1.00  0.00     0.048 A 
HETATM   25  H   UNL     1      45.366 -17.387   7.776  1.00  0.00     0.169 HD
HETATM   26  C   UNL     1      45.096 -19.205   5.609  1.00  0.00     0.032 A 
HETATM   27  C   UNL     1      44.725 -19.826   4.409  1.00  0.00     0.021 A 
HETATM   28  C   UNL     1      43.791 -19.221   3.540  1.00  0.00     0.012 A 
HETATM   29 BR   UNL     1      43.326 -20.098   1.930  1.00  0.00    -0.051 Br
HETATM   30  C   UNL     1      43.207 -17.992   3.844  1.00  0.00     0.035 A 
ENDBRANCH   2  18
TORSDOF 5
ENDMDL
MODEL 2
REMARK VINA RESULT:      -8.5      1.013      1.856
REMARK  5 active torsions:
REMARK  status: ('A' for Active; 'I' for Inactive)
REMARK    1  A    between atoms: O_2  and  C_3 
REMARK    2  A    between atoms: C_4  and  C_5 
REMARK       I    between atoms: C_5  and  N_6 
REMARK    3  A    between atoms: N_6  and  C_7 
REMARK    4  A    between atoms: C_7  and  C_8 
REMARK       I    between atoms: C_8  and  N_9 
REMARK    5  A    between atoms: N_9  and  N_10 
ROOT
HETATM    1  C   UNL     1      42.242 -12.979   5.357  1.00  0.00     0.255 C 
HETATM    2  N   UNL     1      41.879 -14.231   5.826  1.00  0.00    -0.245 N 
HETATM    3  O   UNL     1      42.917 -12.783   4.344  1.00  0.00    -0.270 OA
HETATM    4  H   UNL     1      41.192 -14.312   6.584  1.00  0.00     0.192 HD
ENDROOT
BRANCH   1   5
HETATM    5  C   UNL     1      41.600 -11.801   6.095  1.00  0.00     0.227 C 
BRANCH   5   6
HETATM    6  N   UNL     1      41.782 -11.759   7.538  1.00  0.00    -0.348 N 
HETATM    7  C   UNL     1      42.170 -10.596   8.171  1.00  0.00     0.254 C 
HETATM    8  O   UNL     1      42.145  -9.508   7.607  1.00  0.00    -0.268 OA
HETATM    9  H   UNL     1      41.953 -12.640   8.004  1.00  0.00     0.163 HD
BRANCH   7  10
HETATM   10  C   UNL     1      42.604 -10.749   9.585  1.00  0.00     0.065 A 
HETATM   11  C   UNL     1      41.675 -11.022  10.596  1.00  0.00     0.084 A 
HETATM   12  C   UNL     1      42.094 -11.120  11.927  1.00  0.00     0.038 A 
HETATM   13  C   UNL     1      43.446 -10.986  12.247  1.00  0.00     0.003 A 
HETATM   14  C   UNL     1      44.380 -10.745  11.240  1.00  0.00     0.001 A 
HETATM   15  C   UNL     1      43.964 -10.628   9.912  1.00  0.00     0.020 A 
BRANCH  11  16
HETATM   16  O   UNL     1      40.335 -11.084  10.320  1.00  0.00    -0.355 OA
HETATM   17  C   UNL     1      39.649  -9.978  10.911  1.00  0.00     0.210 C 
ENDBRANCH  11  16
ENDBRANCH   7  10
ENDBRANCH   5   6
ENDBRANCH   1   5
BRANCH   2  18
HETATM   18  N   UNL     1      42.235 -15.336   5.105  1.00  0.00    -0.166 NA
HETATM   19  C   UNL     1      43.142 -16.112   5.598  1.00  0.00     0.157 A 
HETATM   20  C   UNL     1      43.971 -15.957   6.878  1.00  0.00     0.277 A 
HETATM   21  C   UNL     1      43.568 -17.372   4.999  1.00  0.00     0.028 A 
HETATM   22  O   UNL     1      43.955 -15.000   7.619  1.00  0.00    -0.266 OA
HETATM   23  N   UNL     1      44.737 -17.102   6.960  1.00  0.00    -0.321 N 
HETATM   24  C   UNL     1      44.510 -17.927   5.863  1.00  0.00     0.048 A 
HETATM   25  H   UNL     1      45.387 -17.275   7.712  1.00  0.00     0.169 HD
HETATM   26  C   UNL     1      45.100 -19.144   5.591  1.00  0.00     0.032 A 
HETATM   27  C   UNL     1      44.716 -19.796   4.412  1.00  0.00     0.021 A 
HETATM   28  C   UNL     1      43.761 -19.220   3.545  1.00  0.00     0.012 A 
HETATM   29 BR   UNL     1      43.279 -20.138   1.963  1.00  0.00    -0.051 Br
HETATM   30  C   UNL     1      43.169 -17.991   3.832  1.00  0.00     0.035 A 
ENDBRANCH   2  18
TORSDOF 5
ENDMDL
MODEL 3
REMARK VINA RESULT:      -8.4      1.964      3.180
REMARK  5 active torsions:
REMARK  status: ('A' for Active; 'I' for Inactive)
REMARK    1  A    between atoms: O_2  and  C_3 
REMARK    2  A    between atoms: C_4  and  C_5 
REMARK       I    between atoms: C_5  and  N_6 
REMARK    3  A    between atoms: N_6  and  C_7 
REMARK    4  A    between atoms: C_7  and  C_8 
REMARK       I    between atoms: C_8  and  N_9 
REMARK    5  A    between atoms: N_9  and  N_10 
ROOT
HETATM    1  C   UNL     1      44.937 -13.481   7.603  1.00  0.00     0.255 C 
HETATM    2  N   UNL     1      43.959 -14.440   7.813  1.00  0.00    -0.245 N 
HETATM    3  O   UNL     1      45.938 -13.649   6.903  1.00  0.00    -0.270 OA
HETATM    4  H   UNL     1      43.083 -14.181   8.279  1.00  0.00     0.192 HD
ENDROOT
BRANCH   1   5
HETATM    5  C   UNL     1      44.617 -12.096   8.171  1.00  0.00     0.227 C 
BRANCH   5   6
HETATM    6  N   UNL     1      43.786 -12.057   9.364  1.00  0.00    -0.348 N 
HETATM    7  C   UNL     1      43.010 -10.954   9.654  1.00  0.00     0.254 C 
HETATM    8  O   UNL     1      42.793 -10.076   8.828  1.00  0.00    -0.268 OA
HETATM    9  H   UNL     1      44.043 -12.677  10.121  1.00  0.00     0.163 HD
BRANCH   7  10
HETATM   10  C   UNL     1      42.444 -10.911  11.029  1.00  0.00     0.065 A 
HETATM   11  C   UNL     1      41.073 -11.096  11.247  1.00  0.00     0.084 A 
HETATM   12  C   UNL     1      40.551 -11.010  12.542  1.00  0.00     0.038 A 
HETATM   13  C   UNL     1      41.399 -10.778  13.625  1.00  0.00     0.003 A 
HETATM   14  C   UNL     1      42.770 -10.623  13.417  1.00  0.00     0.001 A 
HETATM   15  C   UNL     1      43.294 -10.690  12.124  1.00  0.00     0.020 A 
BRANCH  11  16
HETATM   16  O   UNL     1      40.210 -11.251  10.195  1.00  0.00    -0.355 OA
HETATM   17  C   UNL     1      39.367 -10.105  10.066  1.00  0.00     0.210 C 
ENDBRANCH  11  16
ENDBRANCH   7  10
ENDBRANCH   5   6
ENDBRANCH   1   5
BRANCH   2  18
HETATM   18  N   UNL     1      44.061 -15.641   7.168  1.00  0.00    -0.166 NA
HETATM   19  C   UNL     1      43.388 -15.799   6.077  1.00  0.00     0.157 A 
HETATM   20  C   UNL     1      42.399 -14.851   5.392  1.00  0.00     0.277 A 
HETATM   21  C   UNL     1      43.458 -16.982   5.226  1.00  0.00     0.028 A 
HETATM   22  O   UNL     1      42.020 -13.788   5.829  1.00  0.00    -0.266 OA
HETATM   23  N   UNL     1      42.026 -15.488   4.225  1.00  0.00    -0.321 N 
HETATM   24  C   UNL     1      42.637 -16.734   4.128  1.00  0.00     0.048 A 
HETATM   25  H   UNL     1      41.374 -15.090   3.566  1.00  0.00     0.169 HD
HETATM   26  C   UNL     1      42.498 -17.661   3.115  1.00  0.00     0.032 A 
HETATM   27  C   UNL     1      43.212 -18.859   3.238  1.00  0.00     0.021 A 
HETATM   28  C   UNL     1      44.039 -19.098   4.357  1.00  0.00     0.012 A 
HETATM   29 BR   UNL     1      44.980 -20.734   4.478  1.00  0.00    -0.051 Br
HETATM   30  C   UNL     1      44.174 -18.153   5.373  1.00  0.00     0.035 A 
ENDBRANCH   2  18
TORSDOF 5
ENDMDL
MODEL 4
REMARK VINA RESULT:      -8.4      6.616     10.321
REMARK  5 active torsions:
REMARK  status: ('A' for Active; 'I' for Inactive)
REMARK    1  A    between atoms: O_2  and  C_3 
REMARK    2  A    between atoms: C_4  and  C_5 
REMARK       I    between atoms: C_5  and  N_6 
REMARK    3  A    between atoms: N_6  and  C_7 
REMARK    4  A    between atoms: C_7  and  C_8 
REMARK       I    between atoms: C_8  and  N_9 
REMARK    5  A    between atoms: N_9  and  N_10 
ROOT
HETATM    1  C   UNL     1      41.681 -15.547   1.193  1.00  0.00     0.255 C 
HETATM    2  N   UNL     1      41.851 -15.214  -0.141  1.00  0.00    -0.245 N 
HETATM    3  O   UNL     1      41.891 -14.778   2.135  1.00  0.00    -0.270 OA
HETATM    4  H   UNL     1      41.514 -15.849  -0.872  1.00  0.00     0.192 HD
ENDROOT
BRANCH   1   5
HETATM    5  C   UNL     1      41.039 -16.913   1.442  1.00  0.00     0.227 C 
BRANCH   5   6
HETATM    6  N   UNL     1      41.834 -17.883   2.179  1.00  0.00    -0.348 N 
HETATM    7  C   UNL     1      43.034 -18.346   1.678  1.00  0.00     0.254 C 
HETATM    8  O   UNL     1      43.599 -17.802   0.736  1.00  0.00    -0.268 OA
HETATM    9  H   UNL     1      41.349 -18.448   2.862  1.00  0.00     0.163 HD
BRANCH   7  10
HETATM   10  C   UNL     1      43.601 -19.535   2.367  1.00  0.00     0.065 A 
HETATM   11  C   UNL     1      44.155 -19.426   3.648  1.00  0.00     0.084 A 
HETATM   12  C   UNL     1      44.723 -20.547   4.264  1.00  0.00     0.038 A 
HETATM   13  C   UNL     1      44.705 -21.784   3.620  1.00  0.00     0.003 A 
HETATM   14  C   UNL     1      44.127 -21.905   2.356  1.00  0.00     0.001 A 
HETATM   15  C   UNL     1      43.575 -20.786   1.730  1.00  0.00     0.020 A 
BRANCH  11  16
HETATM   16  O   UNL     1      44.252 -18.210   4.270  1.00  0.00    -0.355 OA
HETATM   17  C   UNL     1      44.425 -18.379   5.678  1.00  0.00     0.210 C 
ENDBRANCH  11  16
ENDBRANCH   7  10
ENDBRANCH   5   6
ENDBRANCH   1   5
BRANCH   2  18
HETATM   18  N   UNL     1      42.223 -13.938  -0.462  1.00  0.00    -0.166 NA
HETATM   19  C   UNL     1      42.061 -13.552  -1.685  1.00  0.00     0.157 A 
HETATM   20  C   UNL     1      41.566 -14.341  -2.902  1.00  0.00     0.277 A 
HETATM   21  C   UNL     1      42.322 -12.200  -2.167  1.00  0.00     0.028 A 
HETATM   22  O   UNL     1      41.310 -15.524  -2.921  1.00  0.00    -0.266 OA
HETATM   23  N   UNL     1      41.521 -13.429  -3.937  1.00  0.00    -0.321 N 
HETATM   24  C   UNL     1      41.967 -12.181  -3.515  1.00  0.00     0.048 A 
HETATM   25  H   UNL     1      41.227 -13.672  -4.871  1.00  0.00     0.169 HD
HETATM   26  C   UNL     1      42.078 -11.030  -4.266  1.00  0.00     0.032 A 
HETATM   27  C   UNL     1      42.563  -9.885  -3.622  1.00  0.00     0.021 A 
HETATM   28  C   UNL     1      42.920  -9.920  -2.256  1.00  0.00     0.012 A 
HETATM   29 BR   UNL     1      43.574  -8.348  -1.432  1.00  0.00    -0.051 Br
HETATM   30  C   UNL     1      42.802 -11.089  -1.505  1.00  0.00     0.035 A 
ENDBRANCH   2  18
TORSDOF 5
ENDMDL
MODEL 5
REMARK VINA RESULT:      -8.3      4.957      8.779
REMARK  5 active torsions:
REMARK  status: ('A' for Active; 'I' for Inactive)
REMARK    1  A    between atoms: O_2  and  C_3 
REMARK    2  A    between atoms: C_4  and  C_5 
REMARK       I    between atoms: C_5  and  N_6 
REMARK    3  A    between atoms: N_6  and  C_7 
REMARK    4  A    between atoms: C_7  and  C_8 
REMARK       I    between atoms: C_8  and  N_9 
REMARK    5  A    between atoms: N_9  and  N_10 
ROOT
HETATM    1  C   UNL     1      42.996 -15.661   5.241  1.00  0.00     0.255 C 
HETATM    2  N   UNL     1      43.054 -16.000   3.899  1.00  0.00    -0.245 N 
HETATM    3  O   UNL     1      42.847 -14.512   5.664  1.00  0.00    -0.270 OA
HETATM    4  H   UNL     1      43.026 -16.987   3.621  1.00  0.00     0.192 HD
ENDROOT
BRANCH   1   5
HETATM    5  C   UNL     1      42.959 -16.848   6.207  1.00  0.00     0.227 C 
BRANCH   5   6
HETATM    6  N   UNL     1      43.120 -18.170   5.620  1.00  0.00    -0.348 N 
HETATM    7  C   UNL     1      44.354 -18.786   5.584  1.00  0.00     0.254 C 
HETATM    8  O   UNL     1      45.304 -18.378   6.241  1.00  0.00    -0.268 OA
HETATM    9  H   UNL     1      42.415 -18.466   4.958  1.00  0.00     0.163 HD
BRANCH   7  10
HETATM   10  C   UNL     1      44.448 -19.986   4.710  1.00  0.00     0.065 A 
HETATM   11  C   UNL     1      44.339 -19.871   3.319  1.00  0.00     0.084 A 
HETATM   12  C   UNL     1      44.386 -21.015   2.515  1.00  0.00     0.038 A 
HETATM   13  C   UNL     1      44.581 -22.270   3.094  1.00  0.00     0.003 A 
HETATM   14  C   UNL     1      44.721 -22.386   4.476  1.00  0.00     0.001 A 
HETATM   15  C   UNL     1      44.657 -21.249   5.285  1.00  0.00     0.020 A 
BRANCH  11  16
HETATM   16  O   UNL     1      44.072 -18.662   2.733  1.00  0.00    -0.355 OA
HETATM   17  C   UNL     1      43.474 -18.849   1.449  1.00  0.00     0.210 C 
ENDBRANCH  11  16
ENDBRANCH   7  10
ENDBRANCH   5   6
ENDBRANCH   1   5
BRANCH   2  18
HETATM   18  N   UNL     1      42.883 -15.020   2.962  1.00  0.00    -0.166 NA
HETATM   19  C   UNL     1      41.841 -15.088   2.201  1.00  0.00     0.157 A 
HETATM   20  C   UNL     1      40.755 -16.166   2.124  1.00  0.00     0.277 A 
HETATM   21  C   UNL     1      41.468 -14.077   1.217  1.00  0.00     0.028 A 
HETATM   22  O   UNL     1      40.748 -17.207   2.741  1.00  0.00    -0.266 OA
HETATM   23  N   UNL     1      39.846 -15.706   1.193  1.00  0.00    -0.321 N 
HETATM   24  C   UNL     1      40.260 -14.491   0.657  1.00  0.00     0.048 A 
HETATM   25  H   UNL     1      39.016 -16.218   0.936  1.00  0.00     0.169 HD
HETATM   26  C   UNL     1      39.623 -13.736  -0.305  1.00  0.00     0.032 A 
HETATM   27  C   UNL     1      40.239 -12.540  -0.697  1.00  0.00     0.021 A 
HETATM   28  C   UNL     1      41.463 -12.135  -0.122  1.00  0.00     0.012 A 
HETATM   29 BR   UNL     1      42.256 -10.513  -0.688  1.00  0.00    -0.051 Br
HETATM   30  C   UNL     1      42.097 -12.905   0.852  1.00  0.00     0.035 A 
ENDBRANCH   2  18
TORSDOF 5
ENDMDL
MODEL 6
REMARK VINA RESULT:      -8.2      4.528      8.733
REMARK  5 active torsions:
REMARK  status: ('A' for Active; 'I' for Inactive)
REMARK    1  A    between atoms: O_2  and  C_3 
REMARK    2  A    between atoms: C_4  and  C_5 
REMARK       I    between atoms: C_5  and  N_6 
REMARK    3  A    between atoms: N_6  and  C_7 
REMARK    4  A    between atoms: C_7  and  C_8 
REMARK       I    between atoms: C_8  and  N_9 
REMARK    5  A    between atoms: N_9  and  N_10 
ROOT
HETATM    1  C   UNL     1      40.660 -15.865   1.312  1.00  0.00     0.255 C 
HETATM    2  N   UNL     1      39.670 -15.758   2.275  1.00  0.00    -0.245 N 
HETATM    3  O   UNL     1      41.287 -14.909   0.849  1.00  0.00    -0.270 OA
HETATM    4  H   UNL     1      39.300 -16.604   2.723  1.00  0.00     0.192 HD
ENDROOT
BRANCH   1   5
HETATM    5  C   UNL     1      41.068 -17.298   0.960  1.00  0.00     0.227 C 
BRANCH   5   6
HETATM    6  N   UNL     1      41.841 -18.020   1.960  1.00  0.00    -0.348 N 
HETATM    7  C   UNL     1      43.166 -18.337   1.740  1.00  0.00     0.254 C 
HETATM    8  O   UNL     1      43.814 -17.832   0.831  1.00  0.00    -0.268 OA
HETATM    9  H   UNL     1      41.321 -18.565   2.634  1.00  0.00     0.163 HD
BRANCH   7  10
HETATM   10  C   UNL     1      43.757 -19.317   2.690  1.00  0.00     0.065 A 
HETATM   11  C   UNL     1      44.078 -18.943   4.000  1.00  0.00     0.084 A 
HETATM   12  C   UNL     1      44.674 -19.866   4.867  1.00  0.00     0.038 A 
HETATM   13  C   UNL     1      44.913 -21.173   4.441  1.00  0.00     0.003 A 
HETATM   14  C   UNL     1      44.567 -21.559   3.146  1.00  0.00     0.001 A 
HETATM   15  C   UNL     1      43.989 -20.637   2.271  1.00  0.00     0.020 A 
BRANCH  11  16
HETATM   16  O   UNL     1      43.923 -17.649   4.420  1.00  0.00    -0.355 OA
HETATM   17  C   UNL     1      44.096 -17.556   5.834  1.00  0.00     0.210 C 
ENDBRANCH  11  16
ENDBRANCH   7  10
ENDBRANCH   5   6
ENDBRANCH   1   5
BRANCH   2  18
HETATM   18  N   UNL     1      39.388 -14.529   2.801  1.00  0.00    -0.166 NA
HETATM   19  C   UNL     1      39.871 -14.245   3.965  1.00  0.00     0.157 A 
HETATM   20  C   UNL     1      40.682 -15.120   4.927  1.00  0.00     0.277 A 
HETATM   21  C   UNL     1      39.738 -12.949   4.623  1.00  0.00     0.028 A 
HETATM   22  O   UNL     1      40.943 -16.291   4.768  1.00  0.00    -0.266 OA
HETATM   23  N   UNL     1      40.997 -14.300   5.992  1.00  0.00    -0.321 N 
HETATM   24  C   UNL     1      40.443 -13.035   5.822  1.00  0.00     0.048 A 
HETATM   25  H   UNL     1      41.534 -14.614   6.786  1.00  0.00     0.169 HD
HETATM   26  C   UNL     1      40.530 -11.958   6.679  1.00  0.00     0.032 A 
HETATM   27  C   UNL     1      39.879 -10.778   6.296  1.00  0.00     0.021 A 
HETATM   28  C   UNL     1      39.167 -10.706   5.079  1.00  0.00     0.012 A 
HETATM   29 BR   UNL     1      38.303  -9.091   4.609  1.00  0.00    -0.051 Br
HETATM   30  C   UNL     1      39.088 -11.801   4.219  1.00  0.00     0.035 A 
ENDBRANCH   2  18
TORSDOF 5
ENDMDL
MODEL 7
REMARK VINA RESULT:      -8.2      5.100      9.197
REMARK  5 active torsions:
REMARK  status: ('A' for Active; 'I' for Inactive)
REMARK    1  A    between atoms: O_2  and  C_3 
REMARK    2  A    between atoms: C_4  and  C_5 
REMARK       I    between atoms: C_5  and  N_6 
REMARK    3  A    between atoms: N_6  and  C_7 
REMARK    4  A    between atoms: C_7  and  C_8 
REMARK       I    between atoms: C_8  and  N_9 
REMARK    5  A    between atoms: N_9  and  N_10 
ROOT
HETATM    1  C   UNL     1      42.568 -15.551   5.113  1.00  0.00     0.255 C 
HETATM    2  N   UNL     1      41.196 -15.567   4.916  1.00  0.00    -0.245 N 
HETATM    3  O   UNL     1      43.299 -14.594   4.847  1.00  0.00    -0.270 OA
HETATM    4  H   UNL     1      40.635 -16.335   5.301  1.00  0.00     0.192 HD
ENDROOT
BRANCH   1   5
HETATM    5  C   UNL     1      43.128 -16.764   5.860  1.00  0.00     0.227 C 
BRANCH   5   6
HETATM    6  N   UNL     1      43.143 -18.026   5.135  1.00  0.00    -0.348 N 
HETATM    7  C   UNL     1      44.308 -18.753   4.999  1.00  0.00     0.254 C 
HETATM    8  O   UNL     1      45.307 -18.512   5.667  1.00  0.00    -0.268 OA
HETATM    9  H   UNL     1      42.400 -18.178   4.467  1.00  0.00     0.163 HD
BRANCH   7  10
HETATM   10  C   UNL     1      44.263 -19.856   4.003  1.00  0.00     0.065 A 
HETATM   11  C   UNL     1      43.753 -19.642   2.717  1.00  0.00     0.084 A 
HETATM   12  C   UNL     1      43.678 -20.702   1.807  1.00  0.00     0.038 A 
HETATM   13  C   UNL     1      44.149 -21.966   2.164  1.00  0.00     0.003 A 
HETATM   14  C   UNL     1      44.686 -22.178   3.433  1.00  0.00     0.001 A 
HETATM   15  C   UNL     1      44.746 -21.127   4.352  1.00  0.00     0.020 A 
BRANCH  11  16
HETATM   16  O   UNL     1      43.217 -18.432   2.367  1.00  0.00    -0.355 OA
HETATM   17  C   UNL     1      44.054 -17.768   1.419  1.00  0.00     0.210 C 
ENDBRANCH  11  16
ENDBRANCH   7  10
ENDBRANCH   5   6
ENDBRANCH   1   5
BRANCH   2  18
HETATM   18  N   UNL     1      40.583 -14.440   4.447  1.00  0.00    -0.166 NA
HETATM   19  C   UNL     1      39.965 -14.516   3.314  1.00  0.00     0.157 A 
HETATM   20  C   UNL     1      39.861 -15.690   2.334  1.00  0.00     0.277 A 
HETATM   21  C   UNL     1      39.188 -13.433   2.721  1.00  0.00     0.028 A 
HETATM   22  O   UNL     1      40.431 -16.752   2.440  1.00  0.00    -0.266 OA
HETATM   23  N   UNL     1      39.029 -15.252   1.323  1.00  0.00    -0.321 N 
HETATM   24  C   UNL     1      38.640 -13.934   1.541  1.00  0.00     0.048 A 
HETATM   25  H   UNL     1      38.779 -15.824   0.531  1.00  0.00     0.169 HD
HETATM   26  C   UNL     1      37.826 -13.156   0.745  1.00  0.00     0.032 A 
HETATM   27  C   UNL     1      37.576 -11.844   1.167  1.00  0.00     0.021 A 
HETATM   28  C   UNL     1      38.141 -11.350   2.364  1.00  0.00     0.012 A 
HETATM   29 BR   UNL     1      37.776  -9.569   2.889  1.00  0.00    -0.051 Br
HETATM   30  C   UNL     1      38.960 -12.146   3.163  1.00  0.00     0.035 A 
ENDBRANCH   2  18
TORSDOF 5
ENDMDL
MODEL 8
REMARK VINA RESULT:      -8.2      6.753      9.919
REMARK  5 active torsions:
REMARK  status: ('A' for Active; 'I' for Inactive)
REMARK    1  A    between atoms: O_2  and  C_3 
REMARK    2  A    between atoms: C_4  and  C_5 
REMARK       I    between atoms: C_5  and  N_6 
REMARK    3  A    between atoms: N_6  and  C_7 
REMARK    4  A    between atoms: C_7  and  C_8 
REMARK       I    between atoms: C_8  and  N_9 
REMARK    5  A    between atoms: N_9  and  N_10 
ROOT
HETATM    1  C   UNL     1      40.419 -15.013   0.433  1.00  0.00     0.255 C 
HETATM    2  N   UNL     1      40.165 -16.003   1.369  1.00  0.00    -0.245 N 
HETATM    3  O   UNL     1      41.401 -14.996  -0.313  1.00  0.00    -0.270 OA
HETATM    4  H   UNL     1      39.256 -16.032   1.845  1.00  0.00     0.192 HD
ENDROOT
BRANCH   1   5
HETATM    5  C   UNL     1      39.294 -13.991   0.250  1.00  0.00     0.227 C 
BRANCH   5   6
HETATM    6  N   UNL     1      38.495 -14.112  -0.960  1.00  0.00    -0.348 N 
HETATM    7  C   UNL     1      38.768 -13.341  -2.071  1.00  0.00     0.254 C 
HETATM    8  O   UNL     1      39.813 -12.712  -2.186  1.00  0.00    -0.268 OA
HETATM    9  H   UNL     1      37.566 -14.496  -0.858  1.00  0.00     0.163 HD
BRANCH   7  10
HETATM   10  C   UNL     1      37.719 -13.339  -3.125  1.00  0.00     0.065 A 
HETATM   11  C   UNL     1      37.294 -14.534  -3.718  1.00  0.00     0.084 A 
HETATM   12  C   UNL     1      36.337 -14.509  -4.738  1.00  0.00     0.038 A 
HETATM   13  C   UNL     1      35.772 -13.298  -5.139  1.00  0.00     0.003 A 
HETATM   14  C   UNL     1      36.169 -12.108  -4.530  1.00  0.00     0.001 A 
HETATM   15  C   UNL     1      37.137 -12.125  -3.524  1.00  0.00     0.020 A 
BRANCH  11  16
HETATM   16  O   UNL     1      37.885 -15.727  -3.395  1.00  0.00    -0.355 OA
HETATM   17  C   UNL     1      38.847 -16.094  -4.386  1.00  0.00     0.210 C 
ENDBRANCH  11  16
ENDBRANCH   7  10
ENDBRANCH   5   6
ENDBRANCH   1   5
BRANCH   2  18
HETATM   18  N   UNL     1      41.015 -17.069   1.451  1.00  0.00    -0.166 NA
HETATM   19  C   UNL     1      41.816 -17.125   2.464  1.00  0.00     0.157 A 
HETATM   20  C   UNL     1      42.028 -16.118   3.599  1.00  0.00     0.277 A 
HETATM   21  C   UNL     1      42.718 -18.237   2.746  1.00  0.00     0.028 A 
HETATM   22  O   UNL     1      41.508 -15.029   3.685  1.00  0.00    -0.266 OA
HETATM   23  N   UNL     1      42.946 -16.707   4.446  1.00  0.00    -0.321 N 
HETATM   24  C   UNL     1      43.356 -17.940   3.949  1.00  0.00     0.048 A 
HETATM   25  H   UNL     1      43.277 -16.265   5.290  1.00  0.00     0.169 HD
HETATM   26  C   UNL     1      44.268 -18.810   4.507  1.00  0.00     0.032 A 
HETATM   27  C   UNL     1      44.529 -20.000   3.816  1.00  0.00     0.021 A 
HETATM   28  C   UNL     1      43.877 -20.287   2.597  1.00  0.00     0.012 A 
HETATM   29 BR   UNL     1      44.266 -21.906   1.700  1.00  0.00    -0.051 Br
HETATM   30  C   UNL     1      42.953 -19.401   2.043  1.00  0.00     0.035 A 
ENDBRANCH   2  18
TORSDOF 5
ENDMDL
MODEL 9
REMARK VINA RESULT:      -8.2      5.451      8.533
REMARK  5 active torsions:
REMARK  status: ('A' for Active; 'I' for Inactive)
REMARK    1  A    between atoms: O_2  and  C_3 
REMARK    2  A    between atoms: C_4  and  C_5 
REMARK       I    between atoms: C_5  and  N_6 
REMARK    3  A    between atoms: N_6  and  C_7 
REMARK    4  A    between atoms: C_7  and  C_8 
REMARK       I    between atoms: C_8  and  N_9 
REMARK    5  A    between atoms: N_9  and  N_10 
ROOT
HETATM    1  C   UNL     1      41.066 -14.464   3.531  1.00  0.00     0.255 C 
HETATM    2  N   UNL     1      41.989 -14.839   2.568  1.00  0.00    -0.245 N 
HETATM    3  O   UNL     1      40.397 -13.429   3.489  1.00  0.00    -0.270 OA
HETATM    4  H   UNL     1      42.395 -15.780   2.590  1.00  0.00     0.192 HD
ENDROOT
BRANCH   1   5
HETATM    5  C   UNL     1      40.788 -15.519   4.605  1.00  0.00     0.227 C 
BRANCH   5   6
HETATM    6  N   UNL     1      41.482 -16.790   4.465  1.00  0.00    -0.348 N 
HETATM    7  C   UNL     1      42.593 -17.081   5.229  1.00  0.00     0.254 C 
HETATM    8  O   UNL     1      42.902 -16.414   6.209  1.00  0.00    -0.268 OA
HETATM    9  H   UNL     1      41.353 -17.288   3.594  1.00  0.00     0.163 HD
BRANCH   7  10
HETATM   10  C   UNL     1      43.378 -18.267   4.795  1.00  0.00     0.065 A 
HETATM   11  C   UNL     1      43.745 -18.434   3.454  1.00  0.00     0.084 A 
HETATM   12  C   UNL     1      44.446 -19.577   3.055  1.00  0.00     0.038 A 
HETATM   13  C   UNL     1      44.817 -20.536   3.999  1.00  0.00     0.003 A 
HETATM   14  C   UNL     1      44.481 -20.360   5.341  1.00  0.00     0.001 A 
HETATM   15  C   UNL     1      43.765 -19.229   5.741  1.00  0.00     0.020 A 
BRANCH  11  16
HETATM   16  O   UNL     1      43.330 -17.547   2.497  1.00  0.00    -0.355 OA
HETATM   17  C   UNL     1      44.300 -17.445   1.453  1.00  0.00     0.210 C 
ENDBRANCH  11  16
ENDBRANCH   7  10
ENDBRANCH   5   6
ENDBRANCH   1   5
BRANCH   2  18
HETATM   18  N   UNL     1      42.147 -14.052   1.462  1.00  0.00    -0.166 NA
HETATM   19  C   UNL     1      41.719 -14.508   0.331  1.00  0.00     0.157 A 
HETATM   20  C   UNL     1      41.101 -15.869  -0.003  1.00  0.00     0.277 A 
HETATM   21  C   UNL     1      41.730 -13.758  -0.921  1.00  0.00     0.028 A 
HETATM   22  O   UNL     1      40.983 -16.799   0.762  1.00  0.00    -0.266 OA
HETATM   23  N   UNL     1      40.762 -15.801  -1.340  1.00  0.00    -0.321 N 
HETATM   24  C   UNL     1      41.133 -14.574  -1.881  1.00  0.00     0.048 A 
HETATM   25  H   UNL     1      40.330 -16.565  -1.837  1.00  0.00     0.169 HD
HETATM   26  C   UNL     1      40.970 -14.145  -3.181  1.00  0.00     0.032 A 
HETATM   27  C   UNL     1      41.432 -12.861  -3.498  1.00  0.00     0.021 A 
HETATM   28  C   UNL     1      42.037 -12.047  -2.516  1.00  0.00     0.012 A 
HETATM   29 BR   UNL     1      42.648 -10.322  -2.995  1.00  0.00    -0.051 Br
HETATM   30  C   UNL     1      42.194 -12.490  -1.203  1.00  0.00     0.035 A 
ENDBRANCH   2  18
TORSDOF 5
ENDMDL
MODEL 10
REMARK VINA RESULT:      -8.1      1.593      2.560
REMARK  5 active torsions:
REMARK  status: ('A' for Active; 'I' for Inactive)
REMARK    1  A    between atoms: O_2  and  C_3 
REMARK    2  A    between atoms: C_4  and  C_5 
REMARK       I    between atoms: C_5  and  N_6 
REMARK    3  A    between atoms: N_6  and  C_7 
REMARK    4  A    between atoms: C_7  and  C_8 
REMARK       I    between atoms: C_8  and  N_9 
REMARK    5  A    between atoms: N_9  and  N_10 
ROOT
HETATM    1  C   UNL     1      42.497 -13.315   5.964  1.00  0.00     0.255 C 
HETATM    2  N   UNL     1      41.754 -14.476   6.103  1.00  0.00    -0.245 N 
HETATM    3  O   UNL     1      43.615 -13.261   5.445  1.00  0.00    -0.270 OA
HETATM    4  H   UNL     1      40.775 -14.422   6.403  1.00  0.00     0.192 HD
ENDROOT
BRANCH   1   5
HETATM    5  C   UNL     1      41.764 -12.028   6.350  1.00  0.00     0.227 C 
BRANCH   5   6
HETATM    6  N   UNL     1      41.853 -11.621   7.745  1.00  0.00    -0.348 N 
HETATM    7  C   UNL     1      42.061 -10.301   8.087  1.00  0.00     0.254 C 
HETATM    8  O   UNL     1      41.939  -9.391   7.276  1.00  0.00    -0.268 OA
HETATM    9  H   UNL     1      42.099 -12.337   8.415  1.00  0.00     0.163 HD
BRANCH   7  10
HETATM   10  C   UNL     1      42.424 -10.057   9.509  1.00  0.00     0.065 A 
HETATM   11  C   UNL     1      43.685 -10.415  10.000  1.00  0.00     0.084 A 
HETATM   12  C   UNL     1      43.994 -10.218  11.350  1.00  0.00     0.038 A 
HETATM   13  C   UNL     1      43.061  -9.626  12.202  1.00  0.00     0.003 A 
HETATM   14  C   UNL     1      41.815  -9.238  11.712  1.00  0.00     0.001 A 
HETATM   15  C   UNL     1      41.495  -9.450  10.369  1.00  0.00     0.020 A 
BRANCH  11  16
HETATM   16  O   UNL     1      44.590 -11.065   9.203  1.00  0.00    -0.355 OA
HETATM   17  C   UNL     1      44.897 -12.352   9.741  1.00  0.00     0.210 C 
ENDBRANCH  11  16
ENDBRANCH   7  10
ENDBRANCH   5   6
ENDBRANCH   1   5
BRANCH   2  18
HETATM   18  N   UNL     1      42.249 -15.643   5.591  1.00  0.00    -0.166 NA
HETATM   19  C   UNL     1      41.815 -16.026   4.436  1.00  0.00     0.157 A 
HETATM   20  C   UNL     1      40.742 -15.402   3.537  1.00  0.00     0.277 A 
HETATM   21  C   UNL     1      42.306 -17.195   3.714  1.00  0.00     0.028 A 
HETATM   22  O   UNL     1      40.049 -14.451   3.820  1.00  0.00    -0.266 OA
HETATM   23  N   UNL     1      40.725 -16.175   2.394  1.00  0.00    -0.321 N 
HETATM   24  C   UNL     1      41.631 -17.226   2.495  1.00  0.00     0.048 A 
HETATM   25  H   UNL     1      40.106 -15.994   1.618  1.00  0.00     0.169 HD
HETATM   26  C   UNL     1      41.884 -18.209   1.562  1.00  0.00     0.032 A 
HETATM   27  C   UNL     1      42.844 -19.175   1.890  1.00  0.00     0.021 A 
HETATM   28  C   UNL     1      43.519 -19.133   3.130  1.00  0.00     0.012 A 
HETATM   29 BR   UNL     1      44.803 -20.464   3.527  1.00  0.00    -0.051 Br
HETATM   30  C   UNL     1      43.257 -18.132   4.064  1.00  0.00     0.035 A 
ENDBRANCH   2  18
TORSDOF 5
ENDMDL
