MODEL 1
REMARK VINA RESULT:      -9.8      0.000      0.000
REMARK  3 active torsions:
REMARK  status: ('A' for Active; 'I' for Inactive)
REMARK    1  A    between atoms: N_7  and  N_8 
REMARK       I    between atoms: N_8  and  C_9 
REMARK    2  A    between atoms: C_9  and  C_10 
REMARK    3  A    between atoms: C_14  and  C_15 
ROOT
HETATM    1  C   UNL     1      44.532 -12.569   8.814  1.00  0.00     0.121 A 
HETATM    2  N   UNL     1      45.544 -12.376   9.714  1.00  0.00    -0.272 N 
HETATM    3  H   UNL     1      46.500 -12.708   9.632  1.00  0.00     0.189 HD
HETATM    4  N   UNL     1      45.188 -11.667  10.798  1.00  0.00    -0.178 NA
HETATM    5  C   UNL     1      43.894 -11.384  10.600  1.00  0.00     0.066 A 
HETATM    6  C   UNL     1      43.441 -11.932   9.371  1.00  0.00     0.066 A 
ENDROOT
BRANCH   1   7
HETATM    7  C   UNL     1      44.736 -13.304   7.589  1.00  0.00     0.289 C 
HETATM    8  N   UNL     1      43.610 -13.965   7.132  1.00  0.00    -0.241 N 
HETATM    9  H   UNL     1      42.738 -13.909   7.659  1.00  0.00     0.192 HD
HETATM   10  O   UNL     1      45.829 -13.319   7.027  1.00  0.00    -0.264 OA
BRANCH   8  11
HETATM   11  N   UNL     1      43.631 -14.697   5.977  1.00  0.00    -0.165 NA
HETATM   12  C   UNL     1      43.657 -15.984   6.121  1.00  0.00     0.157 A 
HETATM   13  C   UNL     1      43.678 -16.967   5.045  1.00  0.00     0.027 A 
HETATM   14  C   UNL     1      43.671 -16.792   7.425  1.00  0.00     0.277 A 
HETATM   15  C   UNL     1      43.675 -16.805   3.676  1.00  0.00     0.016 A 
HETATM   16  C   UNL     1      43.704 -18.222   5.654  1.00  0.00     0.048 A 
HETATM   17  C   UNL     1      43.697 -17.969   2.903  1.00  0.00     0.001 A 
HETATM   18  C   UNL     1      43.723 -19.242   3.512  1.00  0.00     0.002 A 
HETATM   19  C   UNL     1      43.727 -19.379   4.906  1.00  0.00     0.030 A 
HETATM   20  N   UNL     1      43.699 -18.115   7.042  1.00  0.00    -0.321 N 
HETATM   21  H   UNL     1      43.715 -18.883   7.695  1.00  0.00     0.169 HD
HETATM   22  O   UNL     1      43.655 -16.308   8.538  1.00  0.00    -0.266 OA
ENDBRANCH   8  11
ENDBRANCH   1   7
BRANCH   5  23
HETATM   23  C   UNL     1      43.086 -10.577  11.599  1.00  0.00     0.007 C 
HETATM   24  C   UNL     1      42.273  -9.432  10.927  1.00  0.00     0.020 C 
HETATM   25  C   UNL     1      41.467  -8.639  11.970  1.00  0.00    -0.013 C 
HETATM   26  C   UNL     1      42.431  -8.027  12.998  1.00  0.00     0.009 C 
HETATM   27  C   UNL     1      40.493  -9.587  12.686  1.00  0.00     0.009 C 
HETATM   28  C   UNL     1      43.222  -9.141  13.701  1.00  0.00    -0.013 C 
HETATM   29  C   UNL     1      44.028  -9.930  12.655  1.00  0.00     0.020 C 
HETATM   30  C   UNL     1      42.243 -10.090  14.410  1.00  0.00     0.009 C 
HETATM   31  C   UNL     1      41.275 -10.707  13.388  1.00  0.00    -0.013 C 
HETATM   32  C   UNL     1      42.079 -11.498  12.342  1.00  0.00     0.020 C 
ENDBRANCH   5  23
TORSDOF 3
ENDMDL
MODEL 2
REMARK VINA RESULT:      -9.6      1.247      2.189
REMARK  3 active torsions:
REMARK  status: ('A' for Active; 'I' for Inactive)
REMARK    1  A    between atoms: N_7  and  N_8 
REMARK       I    between atoms: N_8  and  C_9 
REMARK    2  A    between atoms: C_9  and  C_10 
REMARK    3  A    between atoms: C_14  and  C_15 
ROOT
HETATM    1  C   UNL     1      44.747 -12.581   8.594  1.00  0.00     0.121 A 
HETATM    2  N   UNL     1      45.600 -11.535   8.810  1.00  0.00    -0.272 N 
HETATM    3  H   UNL     1      46.475 -11.356   8.326  1.00  0.00     0.189 HD
HETATM    4  N   UNL     1      45.197 -10.684   9.768  1.00  0.00    -0.178 NA
HETATM    5  C   UNL     1      44.033 -11.192  10.194  1.00  0.00     0.066 A 
HETATM    6  C   UNL     1      43.714 -12.382   9.488  1.00  0.00     0.066 A 
ENDROOT
BRANCH   1   7
HETATM    7  C   UNL     1      45.019 -13.589   7.598  1.00  0.00     0.289 C 
HETATM    8  N   UNL     1      44.117 -14.639   7.595  1.00  0.00    -0.241 N 
HETATM    9  H   UNL     1      43.349 -14.652   8.265  1.00  0.00     0.192 HD
HETATM   10  O   UNL     1      45.977 -13.493   6.834  1.00  0.00    -0.264 OA
BRANCH   8  11
HETATM   11  N   UNL     1      44.225 -15.671   6.703  1.00  0.00    -0.165 NA
HETATM   12  C   UNL     1      43.355 -15.684   5.744  1.00  0.00     0.157 A 
HETATM   13  C   UNL     1      43.272 -16.674   4.676  1.00  0.00     0.027 A 
HETATM   14  C   UNL     1      42.215 -14.692   5.482  1.00  0.00     0.277 A 
HETATM   15  C   UNL     1      44.044 -17.785   4.415  1.00  0.00     0.016 A 
HETATM   16  C   UNL     1      42.193 -16.302   3.873  1.00  0.00     0.048 A 
HETATM   17  C   UNL     1      43.701 -18.542   3.291  1.00  0.00     0.001 A 
HETATM   18  C   UNL     1      42.611 -18.172   2.474  1.00  0.00     0.002 A 
HETATM   19  C   UNL     1      41.841 -17.038   2.763  1.00  0.00     0.030 A 
HETATM   20  N   UNL     1      41.580 -15.145   4.348  1.00  0.00    -0.321 N 
HETATM   21  H   UNL     1      40.782 -14.686   3.935  1.00  0.00     0.169 HD
HETATM   22  O   UNL     1      41.973 -13.722   6.170  1.00  0.00    -0.266 OA
ENDBRANCH   8  11
ENDBRANCH   1   7
BRANCH   5  23
HETATM   23  C   UNL     1      43.218 -10.527  11.288  1.00  0.00     0.007 C 
HETATM   24  C   UNL     1      44.107  -9.866  12.381  1.00  0.00     0.020 C 
HETATM   25  C   UNL     1      43.246  -9.201  13.469  1.00  0.00    -0.013 C 
HETATM   26  C   UNL     1      42.353 -10.265  14.128  1.00  0.00     0.009 C 
HETATM   27  C   UNL     1      42.362  -8.122  12.826  1.00  0.00     0.009 C 
HETATM   28  C   UNL     1      41.440 -10.908  13.074  1.00  0.00    -0.013 C 
HETATM   29  C   UNL     1      42.305 -11.572  11.989  1.00  0.00     0.020 C 
HETATM   30  C   UNL     1      40.563  -9.822  12.429  1.00  0.00     0.009 C 
HETATM   31  C   UNL     1      41.448  -8.755  11.767  1.00  0.00    -0.013 C 
HETATM   32  C   UNL     1      42.314  -9.418  10.681  1.00  0.00     0.020 C 
ENDBRANCH   5  23
TORSDOF 3
ENDMDL
MODEL 3
REMARK VINA RESULT:      -9.2      8.479     10.716
REMARK  3 active torsions:
REMARK  status: ('A' for Active; 'I' for Inactive)
REMARK    1  A    between atoms: N_7  and  N_8 
REMARK       I    between atoms: N_8  and  C_9 
REMARK    2  A    between atoms: C_9  and  C_10 
REMARK    3  A    between atoms: C_14  and  C_15 
ROOT
HETATM    1  C   UNL     1      41.818 -15.309   0.283  1.00  0.00     0.121 A 
HETATM    2  N   UNL     1      41.842 -14.331   1.238  1.00  0.00    -0.272 N 
HETATM    3  H   UNL     1      41.923 -14.465   2.242  1.00  0.00     0.189 HD
HETATM    4  N   UNL     1      41.748 -13.083   0.751  1.00  0.00    -0.178 NA
HETATM    5  C   UNL     1      41.660 -13.250  -0.575  1.00  0.00     0.066 A 
HETATM    6  C   UNL     1      41.697 -14.630  -0.913  1.00  0.00     0.066 A 
ENDROOT
BRANCH   1   7
HETATM    7  C   UNL     1      41.914 -16.708   0.626  1.00  0.00     0.289 C 
HETATM    8  N   UNL     1      43.212 -17.180   0.710  1.00  0.00    -0.241 N 
HETATM    9  H   UNL     1      43.995 -16.553   0.529  1.00  0.00     0.192 HD
HETATM   10  O   UNL     1      40.911 -17.390   0.820  1.00  0.00    -0.264 OA
BRANCH   8  11
HETATM   11  N   UNL     1      43.478 -18.482   1.039  1.00  0.00    -0.165 NA
HETATM   12  C   UNL     1      43.779 -18.702   2.279  1.00  0.00     0.157 A 
HETATM   13  C   UNL     1      44.095 -19.999   2.866  1.00  0.00     0.027 A 
HETATM   14  C   UNL     1      43.880 -17.689   3.426  1.00  0.00     0.277 A 
HETATM   15  C   UNL     1      44.153 -21.255   2.301  1.00  0.00     0.016 A 
HETATM   16  C   UNL     1      44.356 -19.770   4.218  1.00  0.00     0.048 A 
HETATM   17  C   UNL     1      44.488 -22.314   3.150  1.00  0.00     0.001 A 
HETATM   18  C   UNL     1      44.754 -22.089   4.517  1.00  0.00     0.002 A 
HETATM   19  C   UNL     1      44.690 -20.803   5.067  1.00  0.00     0.030 A 
HETATM   20  N   UNL     1      44.230 -18.421   4.539  1.00  0.00    -0.321 N 
HETATM   21  H   UNL     1      44.369 -18.014   5.452  1.00  0.00     0.169 HD
HETATM   22  O   UNL     1      43.679 -16.498   3.315  1.00  0.00    -0.266 OA
ENDBRANCH   8  11
ENDBRANCH   1   7
BRANCH   5  23
HETATM   23  C   UNL     1      41.543 -12.075  -1.528  1.00  0.00     0.007 C 
HETATM   24  C   UNL     1      40.484 -11.032  -1.067  1.00  0.00     0.020 C 
HETATM   25  C   UNL     1      40.396  -9.856  -2.055  1.00  0.00    -0.013 C 
HETATM   26  C   UNL     1      40.000 -10.389  -3.442  1.00  0.00     0.009 C 
HETATM   27  C   UNL     1      41.766  -9.168  -2.147  1.00  0.00     0.009 C 
HETATM   28  C   UNL     1      41.051 -11.396  -3.935  1.00  0.00    -0.013 C 
HETATM   29  C   UNL     1      41.134 -12.570  -2.944  1.00  0.00     0.020 C 
HETATM   30  C   UNL     1      42.420 -10.703  -4.017  1.00  0.00     0.009 C 
HETATM   31  C   UNL     1      42.824 -10.169  -2.635  1.00  0.00    -0.013 C 
HETATM   32  C   UNL     1      42.909 -11.341  -1.643  1.00  0.00     0.020 C 
ENDBRANCH   5  23
TORSDOF 3
ENDMDL
MODEL 4
REMARK VINA RESULT:      -9.1      3.171      4.291
REMARK  3 active torsions:
REMARK  status: ('A' for Active; 'I' for Inactive)
REMARK    1  A    between atoms: N_7  and  N_8 
REMARK       I    between atoms: N_8  and  C_9 
REMARK    2  A    between atoms: C_9  and  C_10 
REMARK    3  A    between atoms: C_14  and  C_15 
ROOT
HETATM    1  C   UNL     1      42.081 -12.752   4.540  1.00  0.00     0.121 A 
HETATM    2  N   UNL     1      41.754 -11.539   4.000  1.00  0.00    -0.272 N 
HETATM    3  H   UNL     1      41.818 -11.272   3.022  1.00  0.00     0.189 HD
HETATM    4  N   UNL     1      41.306 -10.642   4.895  1.00  0.00    -0.178 NA
HETATM    5  C   UNL     1      41.340 -11.293   6.064  1.00  0.00     0.066 A 
HETATM    6  C   UNL     1      41.821 -12.618   5.889  1.00  0.00     0.066 A 
ENDROOT
BRANCH   1   7
HETATM    7  C   UNL     1      42.573 -13.836   3.725  1.00  0.00     0.289 C 
HETATM    8  N   UNL     1      42.032 -15.071   4.040  1.00  0.00    -0.241 N 
HETATM    9  H   UNL     1      41.353 -15.150   4.796  1.00  0.00     0.192 HD
HETATM   10  O   UNL     1      43.401 -13.645   2.838  1.00  0.00    -0.264 OA
BRANCH   8  11
HETATM   11  N   UNL     1      42.384 -16.200   3.353  1.00  0.00    -0.165 NA
HETATM   12  C   UNL     1      43.059 -17.082   4.020  1.00  0.00     0.157 A 
HETATM   13  C   UNL     1      43.540 -18.359   3.509  1.00  0.00     0.027 A 
HETATM   14  C   UNL     1      43.519 -17.018   5.483  1.00  0.00     0.277 A 
HETATM   15  C   UNL     1      43.413 -18.938   2.265  1.00  0.00     0.016 A 
HETATM   16  C   UNL     1      44.214 -18.980   4.561  1.00  0.00     0.048 A 
HETATM   17  C   UNL     1      43.996 -20.196   2.091  1.00  0.00     0.001 A 
HETATM   18  C   UNL     1      44.679 -20.830   3.151  1.00  0.00     0.002 A 
HETATM   19  C   UNL     1      44.794 -20.220   4.406  1.00  0.00     0.030 A 
HETATM   20  N   UNL     1      44.199 -18.194   5.710  1.00  0.00    -0.321 N 
HETATM   21  H   UNL     1      44.619 -18.431   6.596  1.00  0.00     0.169 HD
HETATM   22  O   UNL     1      43.296 -16.094   6.237  1.00  0.00    -0.266 OA
ENDBRANCH   8  11
ENDBRANCH   1   7
BRANCH   5  23
HETATM   23  C   UNL     1      40.902 -10.639   7.362  1.00  0.00     0.007 C 
HETATM   24  C   UNL     1      42.020 -10.648   8.445  1.00  0.00     0.020 C 
HETATM   25  C   UNL     1      41.539  -9.976   9.743  1.00  0.00    -0.013 C 
HETATM   26  C   UNL     1      40.316 -10.733  10.283  1.00  0.00     0.009 C 
HETATM   27  C   UNL     1      41.146  -8.521   9.444  1.00  0.00     0.009 C 
HETATM   28  C   UNL     1      39.184 -10.709   9.243  1.00  0.00    -0.013 C 
HETATM   29  C   UNL     1      39.669 -11.383   7.948  1.00  0.00     0.020 C 
HETATM   30  C   UNL     1      38.800  -9.250   8.944  1.00  0.00     0.009 C 
HETATM   31  C   UNL     1      40.018  -8.486   8.402  1.00  0.00    -0.013 C 
HETATM   32  C   UNL     1      40.504  -9.158   7.107  1.00  0.00     0.020 C 
ENDBRANCH   5  23
TORSDOF 3
ENDMDL
MODEL 5
REMARK VINA RESULT:      -9.1      7.922     10.352
REMARK  3 active torsions:
REMARK  status: ('A' for Active; 'I' for Inactive)
REMARK    1  A    between atoms: N_7  and  N_8 
REMARK       I    between atoms: N_8  and  C_9 
REMARK    2  A    between atoms: C_9  and  C_10 
REMARK    3  A    between atoms: C_14  and  C_15 
ROOT
HETATM    1  C   UNL     1      42.069 -14.590   2.054  1.00  0.00     0.121 A 
HETATM    2  N   UNL     1      42.500 -13.337   2.392  1.00  0.00    -0.272 N 
HETATM    3  H   UNL     1      42.859 -13.042   3.295  1.00  0.00     0.189 HD
HETATM    4  N   UNL     1      42.422 -12.440   1.394  1.00  0.00    -0.178 NA
HETATM    5  C   UNL     1      41.923 -13.134   0.363  1.00  0.00     0.066 A 
HETATM    6  C   UNL     1      41.684 -14.484   0.732  1.00  0.00     0.066 A 
ENDROOT
BRANCH   1   7
HETATM    7  C   UNL     1      42.086 -15.679   3.000  1.00  0.00     0.289 C 
HETATM    8  N   UNL     1      43.345 -16.206   3.232  1.00  0.00    -0.241 N 
HETATM    9  H   UNL     1      44.155 -15.823   2.744  1.00  0.00     0.192 HD
HETATM   10  O   UNL     1      41.055 -16.079   3.535  1.00  0.00    -0.264 OA
BRANCH   8  11
HETATM   11  N   UNL     1      43.537 -17.235   4.112  1.00  0.00    -0.165 NA
HETATM   12  C   UNL     1      43.847 -18.378   3.588  1.00  0.00     0.157 A 
HETATM   13  C   UNL     1      44.103 -19.614   4.318  1.00  0.00     0.027 A 
HETATM   14  C   UNL     1      44.023 -18.726   2.104  1.00  0.00     0.277 A 
HETATM   15  C   UNL     1      44.089 -19.882   5.670  1.00  0.00     0.016 A 
HETATM   16  C   UNL     1      44.397 -20.587   3.362  1.00  0.00     0.048 A 
HETATM   17  C   UNL     1      44.386 -21.192   6.057  1.00  0.00     0.001 A 
HETATM   18  C   UNL     1      44.684 -22.181   5.096  1.00  0.00     0.002 A 
HETATM   19  C   UNL     1      44.691 -21.883   3.727  1.00  0.00     0.030 A 
HETATM   20  N   UNL     1      44.349 -20.064   2.072  1.00  0.00    -0.321 N 
HETATM   21  H   UNL     1      44.524 -20.574   1.220  1.00  0.00     0.169 HD
HETATM   22  O   UNL     1      43.891 -17.939   1.191  1.00  0.00    -0.266 OA
ENDBRANCH   8  11
ENDBRANCH   1   7
BRANCH   5  23
HETATM   23  C   UNL     1      41.676 -12.495  -0.991  1.00  0.00     0.007 C 
HETATM   24  C   UNL     1      42.734 -11.409  -1.343  1.00  0.00     0.020 C 
HETATM   25  C   UNL     1      42.452 -10.787  -2.722  1.00  0.00    -0.013 C 
HETATM   26  C   UNL     1      41.059 -10.138  -2.710  1.00  0.00     0.009 C 
HETATM   27  C   UNL     1      42.492 -11.888  -3.793  1.00  0.00     0.009 C 
HETATM   28  C   UNL     1      39.991 -11.199  -2.398  1.00  0.00    -0.013 C 
HETATM   29  C   UNL     1      40.276 -11.817  -1.019  1.00  0.00     0.020 C 
HETATM   30  C   UNL     1      40.040 -12.301  -3.468  1.00  0.00     0.009 C 
HETATM   31  C   UNL     1      41.431 -12.955  -3.486  1.00  0.00    -0.013 C 
HETATM   32  C   UNL     1      41.717 -13.575  -2.108  1.00  0.00     0.020 C 
ENDBRANCH   5  23
TORSDOF 3
ENDMDL
MODEL 6
REMARK VINA RESULT:      -9.1      2.590      9.998
REMARK  3 active torsions:
REMARK  status: ('A' for Active; 'I' for Inactive)
REMARK    1  A    between atoms: N_7  and  N_8 
REMARK       I    between atoms: N_8  and  C_9 
REMARK    2  A    between atoms: C_9  and  C_10 
REMARK    3  A    between atoms: C_14  and  C_15 
ROOT
HETATM    1  C   UNL     1      41.491 -12.541   5.440  1.00  0.00     0.121 A 
HETATM    2  N   UNL     1      42.109 -12.029   4.332  1.00  0.00    -0.272 N 
HETATM    3  H   UNL     1      42.304 -11.050   4.145  1.00  0.00     0.189 HD
HETATM    4  N   UNL     1      42.478 -12.954   3.431  1.00  0.00    -0.178 NA
HETATM    5  C   UNL     1      42.088 -14.117   3.970  1.00  0.00     0.066 A 
HETATM    6  C   UNL     1      41.462 -13.905   5.227  1.00  0.00     0.066 A 
ENDROOT
BRANCH   1   7
HETATM    7  C   UNL     1      41.032 -11.693   6.513  1.00  0.00     0.289 C 
HETATM    8  N   UNL     1      42.011 -11.372   7.437  1.00  0.00    -0.241 N 
HETATM    9  H   UNL     1      42.956 -11.736   7.325  1.00  0.00     0.192 HD
HETATM   10  O   UNL     1      39.867 -11.307   6.571  1.00  0.00    -0.264 OA
BRANCH   8  11
HETATM   11  N   UNL     1      41.743 -10.565   8.509  1.00  0.00    -0.165 NA
HETATM   12  C   UNL     1      42.558 -10.665   9.511  1.00  0.00     0.157 A 
HETATM   13  C   UNL     1      42.482  -9.910  10.756  1.00  0.00     0.027 A 
HETATM   14  C   UNL     1      43.783 -11.578   9.651  1.00  0.00     0.277 A 
HETATM   15  C   UNL     1      41.587  -8.949  11.175  1.00  0.00     0.016 A 
HETATM   16  C   UNL     1      43.551 -10.337  11.545  1.00  0.00     0.048 A 
HETATM   17  C   UNL     1      41.794  -8.405  12.445  1.00  0.00     0.001 A 
HETATM   18  C   UNL     1      42.872  -8.831  13.249  1.00  0.00     0.002 A 
HETATM   19  C   UNL     1      43.767  -9.811  12.800  1.00  0.00     0.030 A 
HETATM   20  N   UNL     1      44.306 -11.309  10.896  1.00  0.00    -0.321 N 
HETATM   21  H   UNL     1      45.126 -11.767  11.265  1.00  0.00     0.169 HD
HETATM   22  O   UNL     1      44.165 -12.355   8.801  1.00  0.00    -0.266 OA
ENDBRANCH   8  11
ENDBRANCH   1   7
BRANCH   5  23
HETATM   23  C   UNL     1      42.322 -15.444   3.273  1.00  0.00     0.007 C 
HETATM   24  C   UNL     1      43.566 -16.200   3.823  1.00  0.00     0.020 C 
HETATM   25  C   UNL     1      43.768 -17.540   3.094  1.00  0.00    -0.013 C 
HETATM   26  C   UNL     1      43.971 -17.274   1.594  1.00  0.00     0.009 C 
HETATM   27  C   UNL     1      42.523 -18.418   3.292  1.00  0.00     0.009 C 
HETATM   28  C   UNL     1      42.739 -16.558   1.018  1.00  0.00    -0.013 C 
HETATM   29  C   UNL     1      42.542 -15.220   1.749  1.00  0.00     0.020 C 
HETATM   30  C   UNL     1      41.496 -17.439   1.226  1.00  0.00     0.009 C 
HETATM   31  C   UNL     1      41.286 -17.708   2.724  1.00  0.00    -0.013 C 
HETATM   32  C   UNL     1      41.087 -16.370   3.456  1.00  0.00     0.020 C 
ENDBRANCH   5  23
TORSDOF 3
ENDMDL
MODEL 7
REMARK VINA RESULT:      -8.9      8.216     10.957
REMARK  3 active torsions:
REMARK  status: ('A' for Active; 'I' for Inactive)
REMARK    1  A    between atoms: N_7  and  N_8 
REMARK       I    between atoms: N_8  and  C_9 
REMARK    2  A    between atoms: C_9  and  C_10 
REMARK    3  A    between atoms: C_14  and  C_15 
ROOT
HETATM    1  C   UNL     1      41.143 -15.371   0.394  1.00  0.00     0.121 A 
HETATM    2  N   UNL     1      40.938 -15.918  -0.843  1.00  0.00    -0.272 N 
HETATM    3  H   UNL     1      40.783 -16.899  -1.055  1.00  0.00     0.189 HD
HETATM    4  N   UNL     1      40.949 -15.026  -1.847  1.00  0.00    -0.178 NA
HETATM    5  C   UNL     1      41.169 -13.850  -1.245  1.00  0.00     0.066 A 
HETATM    6  C   UNL     1      41.299 -14.020   0.159  1.00  0.00     0.066 A 
ENDROOT
BRANCH   1   7
HETATM    7  C   UNL     1      41.158 -16.181   1.588  1.00  0.00     0.289 C 
HETATM    8  N   UNL     1      42.388 -16.235   2.220  1.00  0.00    -0.241 N 
HETATM    9  H   UNL     1      43.184 -15.731   1.828  1.00  0.00     0.192 HD
HETATM   10  O   UNL     1      40.148 -16.760   1.982  1.00  0.00    -0.264 OA
BRANCH   8  11
HETATM   11  N   UNL     1      42.569 -16.949   3.372  1.00  0.00    -0.165 NA
HETATM   12  C   UNL     1      43.252 -18.043   3.260  1.00  0.00     0.157 A 
HETATM   13  C   UNL     1      43.578 -18.965   4.341  1.00  0.00     0.027 A 
HETATM   14  C   UNL     1      43.882 -18.644   1.996  1.00  0.00     0.277 A 
HETATM   15  C   UNL     1      43.272 -18.924   5.684  1.00  0.00     0.016 A 
HETATM   16  C   UNL     1      44.320 -20.000   3.771  1.00  0.00     0.048 A 
HETATM   17  C   UNL     1      43.742 -19.978   6.471  1.00  0.00     0.001 A 
HETATM   18  C   UNL     1      44.493 -21.028   5.902  1.00  0.00     0.002 A 
HETATM   19  C   UNL     1      44.791 -21.047   4.533  1.00  0.00     0.030 A 
HETATM   20  N   UNL     1      44.495 -19.808   2.403  1.00  0.00    -0.321 N 
HETATM   21  H   UNL     1      44.996 -20.421   1.777  1.00  0.00     0.169 HD
HETATM   22  O   UNL     1      43.820 -18.146   0.891  1.00  0.00    -0.266 OA
ENDBRANCH   8  11
ENDBRANCH   1   7
BRANCH   5  23
HETATM   23  C   UNL     1      41.250 -12.550  -2.024  1.00  0.00     0.007 C 
HETATM   24  C   UNL     1      40.852 -12.721  -3.518  1.00  0.00     0.020 C 
HETATM   25  C   UNL     1      40.945 -11.383  -4.273  1.00  0.00    -0.013 C 
HETATM   26  C   UNL     1      42.387 -10.859  -4.199  1.00  0.00     0.009 C 
HETATM   27  C   UNL     1      39.999 -10.365  -3.618  1.00  0.00     0.009 C 
HETATM   28  C   UNL     1      42.793 -10.649  -2.732  1.00  0.00    -0.013 C 
HETATM   29  C   UNL     1      42.700 -11.989  -1.982  1.00  0.00     0.020 C 
HETATM   30  C   UNL     1      41.839  -9.635  -2.080  1.00  0.00     0.009 C 
HETATM   31  C   UNL     1      40.394 -10.152  -2.150  1.00  0.00    -0.013 C 
HETATM   32  C   UNL     1      40.298 -11.492  -1.399  1.00  0.00     0.020 C 
ENDBRANCH   5  23
TORSDOF 3
ENDMDL
MODEL 8
REMARK VINA RESULT:      -8.9      1.859      2.136
REMARK  3 active torsions:
REMARK  status: ('A' for Active; 'I' for Inactive)
REMARK    1  A    between atoms: N_7  and  N_8 
REMARK       I    between atoms: N_8  and  C_9 
REMARK    2  A    between atoms: C_9  and  C_10 
REMARK    3  A    between atoms: C_14  and  C_15 
ROOT
HETATM    1  C   UNL     1      42.436 -11.415   8.047  1.00  0.00     0.121 A 
HETATM    2  N   UNL     1      43.578 -11.843   8.667  1.00  0.00    -0.272 N 
HETATM    3  H   UNL     1      44.314 -12.411   8.258  1.00  0.00     0.189 HD
HETATM    4  N   UNL     1      43.692 -11.444   9.944  1.00  0.00    -0.178 NA
HETATM    5  C   UNL     1      42.584 -10.727  10.169  1.00  0.00     0.066 A 
HETATM    6  C   UNL     1      41.767 -10.684   9.008  1.00  0.00     0.066 A 
ENDROOT
BRANCH   1   7
HETATM    7  C   UNL     1      42.151 -11.745   6.671  1.00  0.00     0.289 C 
HETATM    8  N   UNL     1      42.639 -12.977   6.273  1.00  0.00    -0.241 N 
HETATM    9  H   UNL     1      43.154 -13.558   6.933  1.00  0.00     0.192 HD
HETATM   10  O   UNL     1      41.527 -10.975   5.944  1.00  0.00    -0.264 OA
BRANCH   8  11
HETATM   11  N   UNL     1      42.443 -13.446   5.003  1.00  0.00    -0.165 NA
HETATM   12  C   UNL     1      42.824 -14.664   4.783  1.00  0.00     0.157 A 
HETATM   13  C   UNL     1      42.715 -15.382   3.519  1.00  0.00     0.027 A 
HETATM   14  C   UNL     1      43.472 -15.648   5.766  1.00  0.00     0.277 A 
HETATM   15  C   UNL     1      42.209 -14.987   2.299  1.00  0.00     0.016 A 
HETATM   16  C   UNL     1      43.246 -16.653   3.736  1.00  0.00     0.048 A 
HETATM   17  C   UNL     1      42.247 -15.927   1.266  1.00  0.00     0.001 A 
HETATM   18  C   UNL     1      42.783 -17.215   1.478  1.00  0.00     0.002 A 
HETATM   19  C   UNL     1      43.292 -17.591   2.728  1.00  0.00     0.030 A 
HETATM   20  N   UNL     1      43.686 -16.804   5.049  1.00  0.00    -0.321 N 
HETATM   21  H   UNL     1      44.106 -17.633   5.442  1.00  0.00     0.169 HD
HETATM   22  O   UNL     1      43.719 -15.400   6.928  1.00  0.00    -0.266 OA
ENDBRANCH   8  11
ENDBRANCH   1   7
BRANCH   5  23
HETATM   23  C   UNL     1      42.308 -10.072  11.510  1.00  0.00     0.007 C 
HETATM   24  C   UNL     1      41.688  -8.652  11.368  1.00  0.00     0.020 C 
HETATM   25  C   UNL     1      41.421  -8.022  12.746  1.00  0.00    -0.013 C 
HETATM   26  C   UNL     1      42.746  -7.912  13.518  1.00  0.00     0.009 C 
HETATM   27  C   UNL     1      40.448  -8.915  13.531  1.00  0.00     0.009 C 
HETATM   28  C   UNL     1      43.362  -9.308  13.702  1.00  0.00    -0.013 C 
HETATM   29  C   UNL     1      43.628  -9.933  12.321  1.00  0.00     0.020 C 
HETATM   30  C   UNL     1      42.381 -10.199  14.481  1.00  0.00     0.009 C 
HETATM   31  C   UNL     1      41.053 -10.314  13.716  1.00  0.00    -0.013 C 
HETATM   32  C   UNL     1      41.317 -10.939  12.335  1.00  0.00     0.020 C 
ENDBRANCH   5  23
TORSDOF 3
ENDMDL
MODEL 9
REMARK VINA RESULT:      -8.8      6.829     10.195
REMARK  3 active torsions:
REMARK  status: ('A' for Active; 'I' for Inactive)
REMARK    1  A    between atoms: N_7  and  N_8 
REMARK       I    between atoms: N_8  and  C_9 
REMARK    2  A    between atoms: C_9  and  C_10 
REMARK    3  A    between atoms: C_14  and  C_15 
ROOT
HETATM    1  C   UNL     1      41.764 -15.888   1.406  1.00  0.00     0.121 A 
HETATM    2  N   UNL     1      40.709 -15.790   2.271  1.00  0.00    -0.272 N 
HETATM    3  H   UNL     1      39.784 -15.426   2.061  1.00  0.00     0.189 HD
HETATM    4  N   UNL     1      40.972 -16.233   3.511  1.00  0.00    -0.178 NA
HETATM    5  C   UNL     1      42.247 -16.638   3.456  1.00  0.00     0.066 A 
HETATM    6  C   UNL     1      42.784 -16.438   2.156  1.00  0.00     0.066 A 
ENDROOT
BRANCH   1   7
HETATM    7  C   UNL     1      41.660 -15.464   0.031  1.00  0.00     0.289 C 
HETATM    8  N   UNL     1      42.089 -14.168  -0.195  1.00  0.00    -0.241 N 
HETATM    9  H   UNL     1      42.434 -13.603   0.581  1.00  0.00     0.192 HD
HETATM   10  O   UNL     1      41.223 -16.214  -0.839  1.00  0.00    -0.264 OA
BRANCH   8  11
HETATM   11  N   UNL     1      42.068 -13.617  -1.447  1.00  0.00    -0.165 NA
HETATM   12  C   UNL     1      42.259 -12.337  -1.506  1.00  0.00     0.157 A 
HETATM   13  C   UNL     1      42.285 -11.530  -2.720  1.00  0.00     0.027 A 
HETATM   14  C   UNL     1      42.502 -11.359  -0.349  1.00  0.00     0.277 A 
HETATM   15  C   UNL     1      42.128 -11.884  -4.042  1.00  0.00     0.016 A 
HETATM   16  C   UNL     1      42.517 -10.214  -2.317  1.00  0.00     0.048 A 
HETATM   17  C   UNL     1      42.211 -10.857  -4.986  1.00  0.00     0.001 A 
HETATM   18  C   UNL     1      42.446  -9.524  -4.586  1.00  0.00     0.002 A 
HETATM   19  C   UNL     1      42.602  -9.190  -3.235  1.00  0.00     0.030 A 
HETATM   20  N   UNL     1      42.643 -10.120  -0.933  1.00  0.00    -0.321 N 
HETATM   21  H   UNL     1      42.813  -9.274  -0.410  1.00  0.00     0.169 HD
HETATM   22  O   UNL     1      42.551 -11.673   0.822  1.00  0.00    -0.266 OA
ENDBRANCH   8  11
ENDBRANCH   1   7
BRANCH   5  23
HETATM   23  C   UNL     1      42.956 -17.227   4.661  1.00  0.00     0.007 C 
HETATM   24  C   UNL     1      44.041 -18.272   4.268  1.00  0.00     0.020 C 
HETATM   25  C   UNL     1      44.738 -18.844   5.515  1.00  0.00    -0.013 C 
HETATM   26  C   UNL     1      43.692 -19.526   6.412  1.00  0.00     0.009 C 
HETATM   27  C   UNL     1      45.406 -17.699   6.292  1.00  0.00     0.009 C 
HETATM   28  C   UNL     1      42.627 -18.505   6.843  1.00  0.00    -0.013 C 
HETATM   29  C   UNL     1      41.933 -17.937   5.593  1.00  0.00     0.020 C 
HETATM   30  C   UNL     1      43.303 -17.359   7.613  1.00  0.00     0.009 C 
HETATM   31  C   UNL     1      44.349 -16.672   6.723  1.00  0.00    -0.013 C 
HETATM   32  C   UNL     1      43.656 -16.102   5.474  1.00  0.00     0.020 C 
ENDBRANCH   5  23
TORSDOF 3
ENDMDL
MODEL 10
REMARK VINA RESULT:      -8.8      3.542      4.686
REMARK  3 active torsions:
REMARK  status: ('A' for Active; 'I' for Inactive)
REMARK    1  A    between atoms: N_7  and  N_8 
REMARK       I    between atoms: N_8  and  C_9 
REMARK    2  A    between atoms: C_9  and  C_10 
REMARK    3  A    between atoms: C_14  and  C_15 
ROOT
HETATM    1  C   UNL     1      39.948 -13.371   4.551  1.00  0.00     0.121 A 
HETATM    2  N   UNL     1      39.088 -12.375   4.178  1.00  0.00    -0.272 N 
HETATM    3  H   UNL     1      38.550 -12.328   3.318  1.00  0.00     0.189 HD
HETATM    4  N   UNL     1      38.976 -11.382   5.076  1.00  0.00    -0.178 NA
HETATM    5  C   UNL     1      39.793 -11.741   6.074  1.00  0.00     0.066 A 
HETATM    6  C   UNL     1      40.425 -12.981   5.786  1.00  0.00     0.066 A 
ENDROOT
BRANCH   1   7
HETATM    7  C   UNL     1      40.187 -14.520   3.711  1.00  0.00     0.289 C 
HETATM    8  N   UNL     1      41.357 -15.199   4.002  1.00  0.00    -0.241 N 
HETATM    9  H   UNL     1      41.965 -14.868   4.750  1.00  0.00     0.192 HD
HETATM   10  O   UNL     1      39.398 -14.840   2.825  1.00  0.00    -0.264 OA
BRANCH   8  11
HETATM   11  N   UNL     1      41.724 -16.319   3.307  1.00  0.00    -0.165 NA
HETATM   12  C   UNL     1      42.601 -17.080   3.881  1.00  0.00     0.157 A 
HETATM   13  C   UNL     1      43.142 -18.322   3.342  1.00  0.00     0.027 A 
HETATM   14  C   UNL     1      43.284 -16.883   5.241  1.00  0.00     0.277 A 
HETATM   15  C   UNL     1      42.882 -18.980   2.159  1.00  0.00     0.016 A 
HETATM   16  C   UNL     1      44.049 -18.803   4.287  1.00  0.00     0.048 A 
HETATM   17  C   UNL     1      43.575 -20.173   1.935  1.00  0.00     0.001 A 
HETATM   18  C   UNL     1      44.494 -20.666   2.886  1.00  0.00     0.002 A 
HETATM   19  C   UNL     1      44.740 -19.977   4.081  1.00  0.00     0.030 A 
HETATM   20  N   UNL     1      44.128 -17.960   5.392  1.00  0.00    -0.321 N 
HETATM   21  H   UNL     1      44.714 -18.098   6.201  1.00  0.00     0.169 HD
HETATM   22  O   UNL     1      43.079 -15.948   5.987  1.00  0.00    -0.266 OA
ENDBRANCH   8  11
ENDBRANCH   1   7
BRANCH   5  23
HETATM   23  C   UNL     1      39.966 -10.890   7.318  1.00  0.00     0.007 C 
HETATM   24  C   UNL     1      39.294  -9.492   7.186  1.00  0.00     0.020 C 
HETATM   25  C   UNL     1      39.489  -8.661   8.466  1.00  0.00    -0.013 C 
HETATM   26  C   UNL     1      40.992  -8.469   8.722  1.00  0.00     0.009 C 
HETATM   27  C   UNL     1      38.861  -9.405   9.655  1.00  0.00     0.009 C 
HETATM   28  C   UNL     1      41.673  -9.836   8.890  1.00  0.00    -0.013 C 
HETATM   29  C   UNL     1      41.477 -10.663   7.608  1.00  0.00     0.020 C 
HETATM   30  C   UNL     1      41.036 -10.579  10.076  1.00  0.00     0.009 C 
HETATM   31  C   UNL     1      39.533 -10.776   9.828  1.00  0.00    -0.013 C 
HETATM   32  C   UNL     1      39.335 -11.603   8.547  1.00  0.00     0.020 C 
ENDBRANCH   5  23
TORSDOF 3
ENDMDL
