MODEL 1
REMARK VINA RESULT:      -9.3      0.000      0.000
REMARK  5 active torsions:
REMARK  status: ('A' for Active; 'I' for Inactive)
REMARK       I    between atoms: C_2  and  N_3 
REMARK    1  A    between atoms: N_3  and  C_4 
REMARK    2  A    between atoms: C_5  and  C_6 
REMARK    3  A    between atoms: C_15  and  C_16 
REMARK       I    between atoms: C_16  and  N_17 
REMARK    4  A    between atoms: N_17  and  C_18 
REMARK    5  A    between atoms: C_18  and  C_19 
ROOT
HETATM    1  C   UNL     1      39.953 -14.449  -0.869  1.00  0.00     0.138 A 
HETATM    2  N   UNL     1      39.733 -14.253   0.405  1.00  0.00    -0.240 NA
HETATM    3  C   UNL     1      40.362 -15.096   1.337  1.00  0.00     0.084 A 
HETATM    4  C   UNL     1      41.221 -16.132   0.951  1.00  0.00     0.065 A 
HETATM    5  N   UNL     1      41.472 -16.336  -0.406  1.00  0.00    -0.320 N 
HETATM    6  C   UNL     1      40.909 -15.543  -1.374  1.00  0.00     0.275 A 
HETATM    7  O   UNL     1      41.161 -15.687  -2.561  1.00  0.00    -0.266 OA
HETATM    8  C   UNL     1      40.130 -14.890   2.697  1.00  0.00     0.035 A 
HETATM    9  C   UNL     1      40.741 -15.704   3.661  1.00  0.00     0.019 A 
HETATM   10  C   UNL     1      41.592 -16.744   3.264  1.00  0.00     0.034 A 
HETATM   11  C   UNL     1      41.836 -16.950   1.898  1.00  0.00     0.049 A 
HETATM   12  H   UNL     1      42.111 -17.054  -0.716  1.00  0.00     0.169 HD
ENDROOT
BRANCH  10  13
HETATM   13  C   UNL     1      42.300 -17.633   4.229  1.00  0.00     0.252 C 
HETATM   14  N   UNL     1      43.660 -17.790   4.076  1.00  0.00    -0.353 N 
HETATM   15  H   UNL     1      44.154 -17.360   3.311  1.00  0.00     0.163 HD
HETATM   16  O   UNL     1      41.666 -18.178   5.128  1.00  0.00    -0.268 OA
BRANCH  14  17
HETATM   17  C   UNL     1      44.368 -18.762   4.880  1.00  0.00     0.163 C 
BRANCH  17  18
HETATM   18  C   UNL     1      44.444 -20.109   4.210  1.00  0.00    -0.019 A 
HETATM   19  C   UNL     1      44.439 -21.314   4.929  1.00  0.00     0.042 A 
HETATM   20 CL   UNL     1      44.304 -21.345   6.651  1.00  0.00    -0.084 Cl
HETATM   21  C   UNL     1      44.533 -22.541   4.263  1.00  0.00     0.024 A 
HETATM   22  C   UNL     1      44.627 -22.580   2.872  1.00  0.00     0.002 A 
HETATM   23  C   UNL     1      44.619 -21.394   2.145  1.00  0.00     0.001 A 
HETATM   24  C   UNL     1      44.524 -20.168   2.807  1.00  0.00     0.010 A 
ENDBRANCH  17  18
ENDBRANCH  14  17
ENDBRANCH  10  13
BRANCH   1  25
HETATM   25  C   UNL     1      39.286 -13.560  -1.866  1.00  0.00     0.025 A 
HETATM   26  C   UNL     1      39.821 -12.288  -2.177  1.00  0.00     0.047 A 
HETATM   27  C   UNL     1      39.151 -11.499  -3.117  1.00  0.00     0.030 A 
HETATM   28  C   UNL     1      37.993 -11.961  -3.752  1.00  0.00     0.002 A 
HETATM   29  C   UNL     1      37.477 -13.215  -3.444  1.00  0.00     0.001 A 
HETATM   30  C   UNL     1      38.115 -14.010  -2.496  1.00  0.00     0.016 A 
BRANCH  26  31
HETATM   31  N   UNL     1      40.973 -11.845  -1.489  1.00  0.00    -0.327 N 
HETATM   32  C   UNL     1      42.305 -11.865  -1.774  1.00  0.00     0.218 C 
HETATM   33  C   UNL     1      42.844 -12.690  -2.907  1.00  0.00     0.117 C 
HETATM   34  O   UNL     1      43.077 -11.232  -1.049  1.00  0.00    -0.274 OA
HETATM   35  H   UNL     1      40.788 -11.387  -0.594  1.00  0.00     0.169 HD
ENDBRANCH  26  31
ENDBRANCH   1  25
TORSDOF 5
ENDMDL
MODEL 2
REMARK VINA RESULT:      -9.0      6.727     10.124
REMARK  5 active torsions:
REMARK  status: ('A' for Active; 'I' for Inactive)
REMARK       I    between atoms: C_2  and  N_3 
REMARK    1  A    between atoms: N_3  and  C_4 
REMARK    2  A    between atoms: C_5  and  C_6 
REMARK    3  A    between atoms: C_15  and  C_16 
REMARK       I    between atoms: C_16  and  N_17 
REMARK    4  A    between atoms: N_17  and  C_18 
REMARK    5  A    between atoms: C_18  and  C_19 
ROOT
HETATM    1  C   UNL     1      42.850 -15.620   4.270  1.00  0.00     0.138 A 
HETATM    2  N   UNL     1      43.662 -15.200   5.205  1.00  0.00    -0.240 NA
HETATM    3  C   UNL     1      43.297 -14.073   5.961  1.00  0.00     0.084 A 
HETATM    4  C   UNL     1      42.094 -13.388   5.754  1.00  0.00     0.065 A 
HETATM    5  N   UNL     1      41.217 -13.840   4.767  1.00  0.00    -0.320 N 
HETATM    6  C   UNL     1      41.495 -14.944   4.001  1.00  0.00     0.275 A 
HETATM    7  O   UNL     1      40.710 -15.372   3.168  1.00  0.00    -0.266 OA
HETATM    8  C   UNL     1      44.160 -13.623   6.961  1.00  0.00     0.035 A 
HETATM    9  C   UNL     1      43.833 -12.505   7.742  1.00  0.00     0.019 A 
HETATM   10  C   UNL     1      42.631 -11.822   7.520  1.00  0.00     0.034 A 
HETATM   11  C   UNL     1      41.756 -12.275   6.522  1.00  0.00     0.049 A 
HETATM   12  H   UNL     1      40.327 -13.388   4.614  1.00  0.00     0.169 HD
ENDROOT
BRANCH  10  13
HETATM   13  C   UNL     1      42.200 -10.644   8.327  1.00  0.00     0.252 C 
HETATM   14  N   UNL     1      41.837 -10.863   9.637  1.00  0.00    -0.353 N 
HETATM   15  H   UNL     1      41.815 -11.792  10.026  1.00  0.00     0.163 HD
HETATM   16  O   UNL     1      42.197  -9.528   7.815  1.00  0.00    -0.268 OA
BRANCH  14  17
HETATM   17  C   UNL     1      41.259  -9.788  10.414  1.00  0.00     0.163 C 
BRANCH  17  18
HETATM   18  C   UNL     1      41.790  -9.754  11.823  1.00  0.00    -0.019 A 
HETATM   19  C   UNL     1      41.293 -10.583  12.841  1.00  0.00     0.042 A 
HETATM   20 CL   UNL     1      40.049 -11.744  12.541  1.00  0.00    -0.084 Cl
HETATM   21  C   UNL     1      41.804 -10.500  14.141  1.00  0.00     0.024 A 
HETATM   22  C   UNL     1      42.822  -9.595  14.439  1.00  0.00     0.002 A 
HETATM   23  C   UNL     1      43.335  -8.776  13.437  1.00  0.00     0.001 A 
HETATM   24  C   UNL     1      42.827  -8.857  12.139  1.00  0.00     0.010 A 
ENDBRANCH  17  18
ENDBRANCH  14  17
ENDBRANCH  10  13
BRANCH   1  25
HETATM   25  C   UNL     1      43.232 -16.815   3.461  1.00  0.00     0.025 A 
HETATM   26  C   UNL     1      43.217 -18.111   4.028  1.00  0.00     0.047 A 
HETATM   27  C   UNL     1      43.586 -19.191   3.221  1.00  0.00     0.030 A 
HETATM   28  C   UNL     1      43.941 -19.002   1.881  1.00  0.00     0.002 A 
HETATM   29  C   UNL     1      43.948 -17.725   1.330  1.00  0.00     0.001 A 
HETATM   30  C   UNL     1      43.604 -16.631   2.120  1.00  0.00     0.016 A 
BRANCH  26  31
HETATM   31  N   UNL     1      42.885 -18.255   5.394  1.00  0.00    -0.327 N 
HETATM   32  C   UNL     1      43.607 -18.202   6.549  1.00  0.00     0.218 C 
HETATM   33  C   UNL     1      45.108 -18.226   6.527  1.00  0.00     0.117 C 
HETATM   34  O   UNL     1      43.004 -18.188   7.625  1.00  0.00    -0.274 OA
HETATM   35  H   UNL     1      41.892 -18.410   5.578  1.00  0.00     0.169 HD
ENDBRANCH  26  31
ENDBRANCH   1  25
TORSDOF 5
ENDMDL
MODEL 3
REMARK VINA RESULT:      -8.9      5.106      9.709
REMARK  5 active torsions:
REMARK  status: ('A' for Active; 'I' for Inactive)
REMARK       I    between atoms: C_2  and  N_3 
REMARK    1  A    between atoms: N_3  and  C_4 
REMARK    2  A    between atoms: C_5  and  C_6 
REMARK    3  A    between atoms: C_15  and  C_16 
REMARK       I    between atoms: C_16  and  N_17 
REMARK    4  A    between atoms: N_17  and  C_18 
REMARK    5  A    between atoms: C_18  and  C_19 
ROOT
HETATM    1  C   UNL     1      42.999 -17.894   3.154  1.00  0.00     0.138 A 
HETATM    2  N   UNL     1      42.121 -17.646   4.091  1.00  0.00    -0.240 NA
HETATM    3  C   UNL     1      41.627 -16.337   4.225  1.00  0.00     0.084 A 
HETATM    4  C   UNL     1      42.036 -15.291   3.389  1.00  0.00     0.065 A 
HETATM    5  N   UNL     1      42.962 -15.553   2.379  1.00  0.00    -0.320 N 
HETATM    6  C   UNL     1      43.475 -16.809   2.173  1.00  0.00     0.275 A 
HETATM    7  O   UNL     1      44.250 -17.054   1.261  1.00  0.00    -0.266 OA
HETATM    8  C   UNL     1      40.689 -16.069   5.223  1.00  0.00     0.035 A 
HETATM    9  C   UNL     1      40.167 -14.778   5.389  1.00  0.00     0.019 A 
HETATM   10  C   UNL     1      40.590 -13.737   4.553  1.00  0.00     0.034 A 
HETATM   11  C   UNL     1      41.526 -14.003   3.543  1.00  0.00     0.049 A 
HETATM   12  H   UNL     1      43.254 -14.828   1.739  1.00  0.00     0.169 HD
ENDROOT
BRANCH  10  13
HETATM   13  C   UNL     1      40.061 -12.346   4.648  1.00  0.00     0.252 C 
HETATM   14  N   UNL     1      40.689 -11.479   5.513  1.00  0.00    -0.353 N 
HETATM   15  H   UNL     1      41.450 -11.783   6.100  1.00  0.00     0.163 HD
HETATM   16  O   UNL     1      39.105 -12.014   3.952  1.00  0.00    -0.268 OA
BRANCH  14  17
HETATM   17  C   UNL     1      40.120 -10.173   5.764  1.00  0.00     0.163 C 
BRANCH  17  18
HETATM   18  C   UNL     1      39.682 -10.007   7.195  1.00  0.00    -0.019 A 
HETATM   19  C   UNL     1      38.988  -8.874   7.650  1.00  0.00     0.042 A 
HETATM   20 CL   UNL     1      38.545  -7.591   6.581  1.00  0.00    -0.084 Cl
HETATM   21  C   UNL     1      38.621  -8.756   8.994  1.00  0.00     0.024 A 
HETATM   22  C   UNL     1      38.935  -9.768   9.900  1.00  0.00     0.002 A 
HETATM   23  C   UNL     1      39.610 -10.903   9.462  1.00  0.00     0.001 A 
HETATM   24  C   UNL     1      39.978 -11.024   8.121  1.00  0.00     0.010 A 
ENDBRANCH  17  18
ENDBRANCH  14  17
ENDBRANCH  10  13
BRANCH   1  25
HETATM   25  C   UNL     1      43.530 -19.281   3.007  1.00  0.00     0.025 A 
HETATM   26  C   UNL     1      44.459 -19.804   3.937  1.00  0.00     0.047 A 
HETATM   27  C   UNL     1      44.923 -21.110   3.747  1.00  0.00     0.030 A 
HETATM   28  C   UNL     1      44.465 -21.889   2.678  1.00  0.00     0.002 A 
HETATM   29  C   UNL     1      43.548 -21.368   1.772  1.00  0.00     0.001 A 
HETATM   30  C   UNL     1      43.087 -20.064   1.929  1.00  0.00     0.016 A 
BRANCH  26  31
HETATM   31  N   UNL     1      44.921 -18.974   4.982  1.00  0.00    -0.327 N 
HETATM   32  C   UNL     1      44.694 -18.937   6.325  1.00  0.00     0.218 C 
HETATM   33  C   UNL     1      43.579 -19.729   6.946  1.00  0.00     0.117 C 
HETATM   34  O   UNL     1      45.389 -18.196   7.025  1.00  0.00    -0.274 OA
HETATM   35  H   UNL     1      45.588 -18.255   4.694  1.00  0.00     0.169 HD
ENDBRANCH  26  31
ENDBRANCH   1  25
TORSDOF 5
ENDMDL
MODEL 4
REMARK VINA RESULT:      -8.7      5.678      6.913
REMARK  5 active torsions:
REMARK  status: ('A' for Active; 'I' for Inactive)
REMARK       I    between atoms: C_2  and  N_3 
REMARK    1  A    between atoms: N_3  and  C_4 
REMARK    2  A    between atoms: C_5  and  C_6 
REMARK    3  A    between atoms: C_15  and  C_16 
REMARK       I    between atoms: C_16  and  N_17 
REMARK    4  A    between atoms: N_17  and  C_18 
REMARK    5  A    between atoms: C_18  and  C_19 
ROOT
HETATM    1  C   UNL     1      40.746 -11.997   6.025  1.00  0.00     0.138 A 
HETATM    2  N   UNL     1      42.022 -12.272   6.098  1.00  0.00    -0.240 NA
HETATM    3  C   UNL     1      42.419 -13.617   6.196  1.00  0.00     0.084 A 
HETATM    4  C   UNL     1      41.499 -14.671   6.211  1.00  0.00     0.065 A 
HETATM    5  N   UNL     1      40.137 -14.384   6.118  1.00  0.00    -0.320 N 
HETATM    6  C   UNL     1      39.673 -13.098   6.001  1.00  0.00     0.275 A 
HETATM    7  O   UNL     1      38.485 -12.844   5.873  1.00  0.00    -0.266 OA
HETATM    8  C   UNL     1      43.780 -13.914   6.274  1.00  0.00     0.035 A 
HETATM    9  C   UNL     1      44.221 -15.242   6.367  1.00  0.00     0.019 A 
HETATM   10  C   UNL     1      43.291 -16.289   6.390  1.00  0.00     0.034 A 
HETATM   11  C   UNL     1      41.922 -15.996   6.304  1.00  0.00     0.049 A 
HETATM   12  H   UNL     1      39.448 -15.124   6.094  1.00  0.00     0.169 HD
ENDROOT
BRANCH  10  13
HETATM   13  C   UNL     1      43.681 -17.727   6.459  1.00  0.00     0.252 C 
HETATM   14  N   UNL     1      44.659 -18.168   5.594  1.00  0.00    -0.353 N 
HETATM   15  H   UNL     1      45.063 -17.554   4.904  1.00  0.00     0.163 HD
HETATM   16  O   UNL     1      43.142 -18.462   7.281  1.00  0.00    -0.268 OA
BRANCH  14  17
HETATM   17  C   UNL     1      44.960 -19.580   5.507  1.00  0.00     0.163 C 
BRANCH  17  18
HETATM   18  C   UNL     1      44.545 -20.170   4.185  1.00  0.00    -0.019 A 
HETATM   19  C   UNL     1      44.657 -21.540   3.898  1.00  0.00     0.042 A 
HETATM   20 CL   UNL     1      45.247 -22.668   5.066  1.00  0.00    -0.084 Cl
HETATM   21  C   UNL     1      44.278 -22.039   2.648  1.00  0.00     0.024 A 
HETATM   22  C   UNL     1      43.777 -21.180   1.671  1.00  0.00     0.002 A 
HETATM   23  C   UNL     1      43.647 -19.821   1.945  1.00  0.00     0.001 A 
HETATM   24  C   UNL     1      44.024 -19.320   3.192  1.00  0.00     0.010 A 
ENDBRANCH  17  18
ENDBRANCH  14  17
ENDBRANCH  10  13
BRANCH   1  25
HETATM   25  C   UNL     1      40.316 -10.571   5.924  1.00  0.00     0.025 A 
HETATM   26  C   UNL     1      39.950  -9.840   7.080  1.00  0.00     0.047 A 
HETATM   27  C   UNL     1      39.555  -8.508   6.923  1.00  0.00     0.030 A 
HETATM   28  C   UNL     1      39.541  -7.903   5.661  1.00  0.00     0.002 A 
HETATM   29  C   UNL     1      39.907  -8.628   4.532  1.00  0.00     0.001 A 
HETATM   30  C   UNL     1      40.285  -9.962   4.660  1.00  0.00     0.016 A 
BRANCH  26  31
HETATM   31  N   UNL     1      39.946 -10.496   8.330  1.00  0.00    -0.327 N 
HETATM   32  C   UNL     1      40.844 -10.582   9.352  1.00  0.00     0.218 C 
HETATM   33  C   UNL     1      42.265 -10.128   9.176  1.00  0.00     0.117 C 
HETATM   34  O   UNL     1      40.485 -11.091  10.417  1.00  0.00    -0.274 OA
HETATM   35  H   UNL     1      39.084 -11.003   8.545  1.00  0.00     0.169 HD
ENDBRANCH  26  31
ENDBRANCH   1  25
TORSDOF 5
ENDMDL
MODEL 5
REMARK VINA RESULT:      -8.6      6.034     10.169
REMARK  5 active torsions:
REMARK  status: ('A' for Active; 'I' for Inactive)
REMARK       I    between atoms: C_2  and  N_3 
REMARK    1  A    between atoms: N_3  and  C_4 
REMARK    2  A    between atoms: C_5  and  C_6 
REMARK    3  A    between atoms: C_15  and  C_16 
REMARK       I    between atoms: C_16  and  N_17 
REMARK    4  A    between atoms: N_17  and  C_18 
REMARK    5  A    between atoms: C_18  and  C_19 
ROOT
HETATM    1  C   UNL     1      42.279 -16.849   4.338  1.00  0.00     0.138 A 
HETATM    2  N   UNL     1      42.727 -15.624   4.245  1.00  0.00    -0.240 NA
HETATM    3  C   UNL     1      42.018 -14.594   4.885  1.00  0.00     0.084 A 
HETATM    4  C   UNL     1      40.853 -14.831   5.624  1.00  0.00     0.065 A 
HETATM    5  N   UNL     1      40.378 -16.138   5.739  1.00  0.00    -0.320 N 
HETATM    6  C   UNL     1      41.025 -17.199   5.158  1.00  0.00     0.275 A 
HETATM    7  O   UNL     1      40.640 -18.350   5.295  1.00  0.00    -0.266 OA
HETATM    8  C   UNL     1      42.494 -13.286   4.787  1.00  0.00     0.035 A 
HETATM    9  C   UNL     1      41.820 -12.228   5.415  1.00  0.00     0.019 A 
HETATM   10  C   UNL     1      40.650 -12.476   6.144  1.00  0.00     0.034 A 
HETATM   11  C   UNL     1      40.172 -13.790   6.252  1.00  0.00     0.049 A 
HETATM   12  H   UNL     1      39.558 -16.348   6.291  1.00  0.00     0.169 HD
ENDROOT
BRANCH  10  13
HETATM   13  C   UNL     1      39.894 -11.409   6.862  1.00  0.00     0.252 C 
HETATM   14  N   UNL     1      40.187 -11.200   8.191  1.00  0.00    -0.353 N 
HETATM   15  H   UNL     1      40.854 -11.777   8.677  1.00  0.00     0.163 HD
HETATM   16  O   UNL     1      39.057 -10.748   6.254  1.00  0.00    -0.268 OA
BRANCH  14  17
HETATM   17  C   UNL     1      39.376 -10.294   8.974  1.00  0.00     0.163 C 
BRANCH  17  18
HETATM   18  C   UNL     1      39.952 -10.052  10.344  1.00  0.00    -0.019 A 
HETATM   19  C   UNL     1      39.202  -9.501  11.395  1.00  0.00     0.042 A 
HETATM   20 CL   UNL     1      37.534  -9.093  11.205  1.00  0.00    -0.084 Cl
HETATM   21  C   UNL     1      39.787  -9.275  12.645  1.00  0.00     0.024 A 
HETATM   22  C   UNL     1      41.125  -9.601  12.864  1.00  0.00     0.002 A 
HETATM   23  C   UNL     1      41.878 -10.160  11.836  1.00  0.00     0.001 A 
HETATM   24  C   UNL     1      41.296 -10.388  10.587  1.00  0.00     0.010 A 
ENDBRANCH  17  18
ENDBRANCH  14  17
ENDBRANCH  10  13
BRANCH   1  25
HETATM   25  C   UNL     1      43.025 -17.949   3.659  1.00  0.00     0.025 A 
HETATM   26  C   UNL     1      44.020 -18.683   4.346  1.00  0.00     0.047 A 
HETATM   27  C   UNL     1      44.686 -19.701   3.657  1.00  0.00     0.030 A 
HETATM   28  C   UNL     1      44.365 -20.003   2.329  1.00  0.00     0.002 A 
HETATM   29  C   UNL     1      43.383 -19.279   1.662  1.00  0.00     0.001 A 
HETATM   30  C   UNL     1      42.719 -18.247   2.322  1.00  0.00     0.016 A 
BRANCH  26  31
HETATM   31  N   UNL     1      44.337 -18.325   5.675  1.00  0.00    -0.327 N 
HETATM   32  C   UNL     1      44.281 -18.984   6.867  1.00  0.00     0.218 C 
HETATM   33  C   UNL     1      43.546 -20.287   6.998  1.00  0.00     0.117 C 
HETATM   34  O   UNL     1      44.802 -18.466   7.857  1.00  0.00    -0.274 OA
HETATM   35  H   UNL     1      44.713 -17.381   5.786  1.00  0.00     0.169 HD
ENDBRANCH  26  31
ENDBRANCH   1  25
TORSDOF 5
ENDMDL
MODEL 6
REMARK VINA RESULT:      -8.5      2.144      3.074
REMARK  5 active torsions:
REMARK  status: ('A' for Active; 'I' for Inactive)
REMARK       I    between atoms: C_2  and  N_3 
REMARK    1  A    between atoms: N_3  and  C_4 
REMARK    2  A    between atoms: C_5  and  C_6 
REMARK    3  A    between atoms: C_15  and  C_16 
REMARK       I    between atoms: C_16  and  N_17 
REMARK    4  A    between atoms: N_17  and  C_18 
REMARK    5  A    between atoms: C_18  and  C_19 
ROOT
HETATM    1  C   UNL     1      41.378 -12.750  -2.481  1.00  0.00     0.138 A 
HETATM    2  N   UNL     1      41.504 -12.238  -1.285  1.00  0.00    -0.240 NA
HETATM    3  C   UNL     1      41.611 -13.108  -0.186  1.00  0.00     0.084 A 
HETATM    4  C   UNL     1      41.595 -14.500  -0.326  1.00  0.00     0.065 A 
HETATM    5  N   UNL     1      41.476 -15.052  -1.603  1.00  0.00    -0.320 N 
HETATM    6  C   UNL     1      41.385 -14.269  -2.725  1.00  0.00     0.275 A 
HETATM    7  O   UNL     1      41.328 -14.746  -3.849  1.00  0.00    -0.266 OA
HETATM    8  C   UNL     1      41.746 -12.565   1.093  1.00  0.00     0.035 A 
HETATM    9  C   UNL     1      41.862 -13.396   2.217  1.00  0.00     0.019 A 
HETATM   10  C   UNL     1      41.835 -14.788   2.065  1.00  0.00     0.034 A 
HETATM   11  C   UNL     1      41.709 -15.339   0.781  1.00  0.00     0.049 A 
HETATM   12  H   UNL     1      41.493 -16.053  -1.742  1.00  0.00     0.169 HD
ENDROOT
BRANCH  10  13
HETATM   13  C   UNL     1      41.981 -15.737   3.207  1.00  0.00     0.252 C 
HETATM   14  N   UNL     1      43.185 -16.390   3.348  1.00  0.00    -0.353 N 
HETATM   15  H   UNL     1      43.928 -16.271   2.677  1.00  0.00     0.163 HD
HETATM   16  O   UNL     1      41.045 -15.895   3.985  1.00  0.00    -0.268 OA
BRANCH  14  17
HETATM   17  C   UNL     1      43.326 -17.436   4.337  1.00  0.00     0.163 C 
BRANCH  17  18
HETATM   18  C   UNL     1      43.670 -18.764   3.716  1.00  0.00    -0.019 A 
HETATM   19  C   UNL     1      44.325 -19.785   4.423  1.00  0.00     0.042 A 
HETATM   20 CL   UNL     1      44.754 -19.607   6.087  1.00  0.00    -0.084 Cl
HETATM   21  C   UNL     1      44.643 -20.995   3.797  1.00  0.00     0.024 A 
HETATM   22  C   UNL     1      44.306 -21.204   2.460  1.00  0.00     0.002 A 
HETATM   23  C   UNL     1      43.644 -20.207   1.750  1.00  0.00     0.001 A 
HETATM   24  C   UNL     1      43.325 -18.999   2.372  1.00  0.00     0.010 A 
ENDBRANCH  17  18
ENDBRANCH  14  17
ENDBRANCH  10  13
BRANCH   1  25
HETATM   25  C   UNL     1      41.260 -11.833  -3.653  1.00  0.00     0.025 A 
HETATM   26  C   UNL     1      39.996 -11.367  -4.086  1.00  0.00     0.047 A 
HETATM   27  C   UNL     1      39.948 -10.511  -5.190  1.00  0.00     0.030 A 
HETATM   28  C   UNL     1      41.119 -10.106  -5.840  1.00  0.00     0.002 A 
HETATM   29  C   UNL     1      42.358 -10.565  -5.406  1.00  0.00     0.001 A 
HETATM   30  C   UNL     1      42.429 -11.434  -4.320  1.00  0.00     0.016 A 
BRANCH  26  31
HETATM   31  N   UNL     1      38.835 -11.826  -3.423  1.00  0.00    -0.327 N 
HETATM   32  C   UNL     1      37.975 -11.259  -2.532  1.00  0.00     0.218 C 
HETATM   33  C   UNL     1      38.311  -9.969  -1.841  1.00  0.00     0.117 C 
HETATM   34  O   UNL     1      36.928 -11.853  -2.258  1.00  0.00    -0.274 OA
HETATM   35  H   UNL     1      38.550 -12.776  -3.669  1.00  0.00     0.169 HD
ENDBRANCH  26  31
ENDBRANCH   1  25
TORSDOF 5
ENDMDL
MODEL 7
REMARK VINA RESULT:      -8.5      5.100      7.266
REMARK  5 active torsions:
REMARK  status: ('A' for Active; 'I' for Inactive)
REMARK       I    between atoms: C_2  and  N_3 
REMARK    1  A    between atoms: N_3  and  C_4 
REMARK    2  A    between atoms: C_5  and  C_6 
REMARK    3  A    between atoms: C_15  and  C_16 
REMARK       I    between atoms: C_16  and  N_17 
REMARK    4  A    between atoms: N_17  and  C_18 
REMARK    5  A    between atoms: C_18  and  C_19 
ROOT
HETATM    1  C   UNL     1      40.754 -11.629   6.127  1.00  0.00     0.138 A 
HETATM    2  N   UNL     1      41.677 -11.824   5.221  1.00  0.00    -0.240 NA
HETATM    3  C   UNL     1      41.880 -13.127   4.733  1.00  0.00     0.084 A 
HETATM    4  C   UNL     1      41.126 -14.220   5.176  1.00  0.00     0.065 A 
HETATM    5  N   UNL     1      40.129 -14.014   6.131  1.00  0.00    -0.320 N 
HETATM    6  C   UNL     1      39.859 -12.770   6.641  1.00  0.00     0.275 A 
HETATM    7  O   UNL     1      38.958 -12.576   7.442  1.00  0.00    -0.266 OA
HETATM    8  C   UNL     1      42.864 -13.339   3.767  1.00  0.00     0.035 A 
HETATM    9  C   UNL     1      43.096 -14.621   3.249  1.00  0.00     0.019 A 
HETATM   10  C   UNL     1      42.342 -15.709   3.705  1.00  0.00     0.034 A 
HETATM   11  C   UNL     1      41.345 -15.500   4.670  1.00  0.00     0.049 A 
HETATM   12  H   UNL     1      39.546 -14.776   6.448  1.00  0.00     0.169 HD
ENDROOT
BRANCH  10  13
HETATM   13  C   UNL     1      42.510 -17.096   3.183  1.00  0.00     0.252 C 
HETATM   14  N   UNL     1      43.792 -17.580   3.048  1.00  0.00    -0.353 N 
HETATM   15  H   UNL     1      44.593 -17.002   3.248  1.00  0.00     0.163 HD
HETATM   16  O   UNL     1      41.516 -17.763   2.907  1.00  0.00    -0.268 OA
BRANCH  14  17
HETATM   17  C   UNL     1      44.018 -18.851   2.398  1.00  0.00     0.163 C 
BRANCH  17  18
HETATM   18  C   UNL     1      44.265 -19.961   3.385  1.00  0.00    -0.019 A 
HETATM   19  C   UNL     1      44.372 -21.307   3.002  1.00  0.00     0.042 A 
HETATM   20 CL   UNL     1      44.265 -21.793   1.348  1.00  0.00    -0.084 Cl
HETATM   21  C   UNL     1      44.580 -22.306   3.959  1.00  0.00     0.024 A 
HETATM   22  C   UNL     1      44.692 -21.973   5.309  1.00  0.00     0.002 A 
HETATM   23  C   UNL     1      44.603 -20.642   5.702  1.00  0.00     0.001 A 
HETATM   24  C   UNL     1      44.395 -19.643   4.750  1.00  0.00     0.010 A 
ENDBRANCH  17  18
ENDBRANCH  14  17
ENDBRANCH  10  13
BRANCH   1  25
HETATM   25  C   UNL     1      40.534 -10.249   6.652  1.00  0.00     0.025 A 
HETATM   26  C   UNL     1      41.420  -9.684   7.600  1.00  0.00     0.047 A 
HETATM   27  C   UNL     1      41.163  -8.388   8.057  1.00  0.00     0.030 A 
HETATM   28  C   UNL     1      40.071  -7.657   7.576  1.00  0.00     0.002 A 
HETATM   29  C   UNL     1      39.208  -8.218   6.641  1.00  0.00     0.001 A 
HETATM   30  C   UNL     1      39.432  -9.515   6.186  1.00  0.00     0.016 A 
BRANCH  26  31
HETATM   31  N   UNL     1      42.492 -10.467   8.085  1.00  0.00    -0.327 N 
HETATM   32  C   UNL     1      42.796 -10.994   9.304  1.00  0.00     0.218 C 
HETATM   33  C   UNL     1      42.063 -10.561  10.541  1.00  0.00     0.117 C 
HETATM   34  O   UNL     1      43.727 -11.799   9.387  1.00  0.00    -0.274 OA
HETATM   35  H   UNL     1      43.187 -10.723   7.381  1.00  0.00     0.169 HD
ENDBRANCH  26  31
ENDBRANCH   1  25
TORSDOF 5
ENDMDL
MODEL 8
REMARK VINA RESULT:      -8.3      6.925      9.749
REMARK  5 active torsions:
REMARK  status: ('A' for Active; 'I' for Inactive)
REMARK       I    between atoms: C_2  and  N_3 
REMARK    1  A    between atoms: N_3  and  C_4 
REMARK    2  A    between atoms: C_5  and  C_6 
REMARK    3  A    between atoms: C_15  and  C_16 
REMARK       I    between atoms: C_16  and  N_17 
REMARK    4  A    between atoms: N_17  and  C_18 
REMARK    5  A    between atoms: C_18  and  C_19 
ROOT
HETATM    1  C   UNL     1      41.116 -10.411   8.910  1.00  0.00     0.138 A 
HETATM    2  N   UNL     1      41.980 -10.685   7.967  1.00  0.00    -0.240 NA
HETATM    3  C   UNL     1      41.604 -11.570   6.942  1.00  0.00     0.084 A 
HETATM    4  C   UNL     1      40.338 -12.163   6.889  1.00  0.00     0.065 A 
HETATM    5  N   UNL     1      39.407 -11.863   7.884  1.00  0.00    -0.320 N 
HETATM    6  C   UNL     1      39.693 -10.995   8.907  1.00  0.00     0.275 A 
HETATM    7  O   UNL     1      38.866 -10.692   9.755  1.00  0.00    -0.266 OA
HETATM    8  C   UNL     1      42.524 -11.863   5.934  1.00  0.00     0.035 A 
HETATM    9  C   UNL     1      42.189 -12.737   4.889  1.00  0.00     0.019 A 
HETATM   10  C   UNL     1      40.922 -13.332   4.852  1.00  0.00     0.034 A 
HETATM   11  C   UNL     1      39.991 -13.033   5.857  1.00  0.00     0.049 A 
HETATM   12  H   UNL     1      38.473 -12.249   7.858  1.00  0.00     0.169 HD
ENDROOT
BRANCH  10  13
HETATM   13  C   UNL     1      40.482 -14.247   3.760  1.00  0.00     0.252 C 
HETATM   14  N   UNL     1      40.682 -15.598   3.936  1.00  0.00    -0.353 N 
HETATM   15  H   UNL     1      41.155 -15.956   4.751  1.00  0.00     0.163 HD
HETATM   16  O   UNL     1      39.946 -13.781   2.758  1.00  0.00    -0.268 OA
BRANCH  14  17
HETATM   17  C   UNL     1      40.423 -16.513   2.846  1.00  0.00     0.163 C 
BRANCH  17  18
HETATM   18  C   UNL     1      41.651 -17.292   2.452  1.00  0.00    -0.019 A 
HETATM   19  C   UNL     1      42.305 -17.106   1.224  1.00  0.00     0.042 A 
HETATM   20 CL   UNL     1      41.769 -15.930   0.078  1.00  0.00    -0.084 Cl
HETATM   21  C   UNL     1      43.430 -17.869   0.893  1.00  0.00     0.024 A 
HETATM   22  C   UNL     1      43.920 -18.822   1.786  1.00  0.00     0.002 A 
HETATM   23  C   UNL     1      43.290 -19.008   3.013  1.00  0.00     0.001 A 
HETATM   24  C   UNL     1      42.168 -18.248   3.346  1.00  0.00     0.010 A 
ENDBRANCH  17  18
ENDBRANCH  14  17
ENDBRANCH  10  13
BRANCH   1  25
HETATM   25  C   UNL     1      41.509  -9.475  10.004  1.00  0.00     0.025 A 
HETATM   26  C   UNL     1      42.424  -9.874  11.007  1.00  0.00     0.047 A 
HETATM   27  C   UNL     1      42.753  -8.954  12.007  1.00  0.00     0.030 A 
HETATM   28  C   UNL     1      42.210  -7.664  12.008  1.00  0.00     0.002 A 
HETATM   29  C   UNL     1      41.315  -7.279  11.015  1.00  0.00     0.001 A 
HETATM   30  C   UNL     1      40.957  -8.185  10.020  1.00  0.00     0.016 A 
BRANCH  26  31
HETATM   31  N   UNL     1      42.923 -11.195  10.989  1.00  0.00    -0.327 N 
HETATM   32  C   UNL     1      44.141 -11.738  10.706  1.00  0.00     0.218 C 
HETATM   33  C   UNL     1      45.217 -10.925  10.046  1.00  0.00     0.117 C 
HETATM   34  O   UNL     1      44.331 -12.931  10.953  1.00  0.00    -0.274 OA
HETATM   35  H   UNL     1      42.249 -11.911  11.268  1.00  0.00     0.169 HD
ENDBRANCH  26  31
ENDBRANCH   1  25
TORSDOF 5
ENDMDL
MODEL 9
REMARK VINA RESULT:      -8.3      6.832      9.892
REMARK  5 active torsions:
REMARK  status: ('A' for Active; 'I' for Inactive)
REMARK       I    between atoms: C_2  and  N_3 
REMARK    1  A    between atoms: N_3  and  C_4 
REMARK    2  A    between atoms: C_5  and  C_6 
REMARK    3  A    between atoms: C_15  and  C_16 
REMARK       I    between atoms: C_16  and  N_17 
REMARK    4  A    between atoms: N_17  and  C_18 
REMARK    5  A    between atoms: C_18  and  C_19 
ROOT
HETATM    1  C   UNL     1      42.381 -14.926   4.562  1.00  0.00     0.138 A 
HETATM    2  N   UNL     1      43.593 -14.944   5.052  1.00  0.00    -0.240 NA
HETATM    3  C   UNL     1      43.909 -14.068   6.105  1.00  0.00     0.084 A 
HETATM    4  C   UNL     1      42.972 -13.182   6.651  1.00  0.00     0.065 A 
HETATM    5  N   UNL     1      41.674 -13.170   6.141  1.00  0.00    -0.320 N 
HETATM    6  C   UNL     1      41.285 -14.007   5.127  1.00  0.00     0.275 A 
HETATM    7  O   UNL     1      40.137 -14.033   4.708  1.00  0.00    -0.266 OA
HETATM    8  C   UNL     1      45.201 -14.085   6.632  1.00  0.00     0.035 A 
HETATM    9  C   UNL     1      45.558 -13.231   7.686  1.00  0.00     0.019 A 
HETATM   10  C   UNL     1      44.615 -12.343   8.219  1.00  0.00     0.034 A 
HETATM   11  C   UNL     1      43.312 -12.328   7.699  1.00  0.00     0.049 A 
HETATM   12  H   UNL     1      40.965 -12.565   6.534  1.00  0.00     0.169 HD
ENDROOT
BRANCH  10  13
HETATM   13  C   UNL     1      44.909 -11.426   9.357  1.00  0.00     0.252 C 
HETATM   14  N   UNL     1      44.126 -11.531  10.485  1.00  0.00    -0.353 N 
HETATM   15  H   UNL     1      43.348 -12.171  10.524  1.00  0.00     0.163 HD
HETATM   16  O   UNL     1      45.837 -10.626   9.266  1.00  0.00    -0.268 OA
BRANCH  14  17
HETATM   17  C   UNL     1      44.262 -10.563  11.550  1.00  0.00     0.163 C 
BRANCH  17  18
HETATM   18  C   UNL     1      42.942 -10.243  12.202  1.00  0.00    -0.019 A 
HETATM   19  C   UNL     1      41.854  -9.714  11.491  1.00  0.00     0.042 A 
HETATM   20 CL   UNL     1      41.934  -9.425   9.789  1.00  0.00    -0.084 Cl
HETATM   21  C   UNL     1      40.654  -9.413  12.144  1.00  0.00     0.024 A 
HETATM   22  C   UNL     1      40.523  -9.642  13.513  1.00  0.00     0.002 A 
HETATM   23  C   UNL     1      41.589 -10.179  14.230  1.00  0.00     0.001 A 
HETATM   24  C   UNL     1      42.787 -10.481  13.580  1.00  0.00     0.010 A 
ENDBRANCH  17  18
ENDBRANCH  14  17
ENDBRANCH  10  13
BRANCH   1  25
HETATM   25  C   UNL     1      42.039 -15.851   3.441  1.00  0.00     0.025 A 
HETATM   26  C   UNL     1      41.899 -17.241   3.665  1.00  0.00     0.047 A 
HETATM   27  C   UNL     1      41.578 -18.058   2.576  1.00  0.00     0.030 A 
HETATM   28  C   UNL     1      41.379 -17.516   1.302  1.00  0.00     0.002 A 
HETATM   29  C   UNL     1      41.515 -16.148   1.092  1.00  0.00     0.001 A 
HETATM   30  C   UNL     1      41.853 -15.317   2.157  1.00  0.00     0.016 A 
BRANCH  26  31
HETATM   31  N   UNL     1      42.141 -17.753   4.960  1.00  0.00    -0.327 N 
HETATM   32  C   UNL     1      43.197 -18.390   5.538  1.00  0.00     0.218 C 
HETATM   33  C   UNL     1      44.324 -18.933   4.708  1.00  0.00     0.117 C 
HETATM   34  O   UNL     1      43.190 -18.563   6.759  1.00  0.00    -0.274 OA
HETATM   35  H   UNL     1      41.381 -17.603   5.627  1.00  0.00     0.169 HD
ENDBRANCH  26  31
ENDBRANCH   1  25
TORSDOF 5
ENDMDL
MODEL 10
REMARK VINA RESULT:      -8.2      6.822      9.493
REMARK  5 active torsions:
REMARK  status: ('A' for Active; 'I' for Inactive)
REMARK       I    between atoms: C_2  and  N_3 
REMARK    1  A    between atoms: N_3  and  C_4 
REMARK    2  A    between atoms: C_5  and  C_6 
REMARK    3  A    between atoms: C_15  and  C_16 
REMARK       I    between atoms: C_16  and  N_17 
REMARK    4  A    between atoms: N_17  and  C_18 
REMARK    5  A    between atoms: C_18  and  C_19 
ROOT
HETATM    1  C   UNL     1      41.421 -15.016   4.062  1.00  0.00     0.138 A 
HETATM    2  N   UNL     1      41.554 -13.724   3.911  1.00  0.00    -0.240 NA
HETATM    3  C   UNL     1      41.105 -12.875   4.937  1.00  0.00     0.084 A 
HETATM    4  C   UNL     1      40.526 -13.362   6.115  1.00  0.00     0.065 A 
HETATM    5  N   UNL     1      40.395 -14.740   6.287  1.00  0.00    -0.320 N 
HETATM    6  C   UNL     1      40.826 -15.633   5.339  1.00  0.00     0.275 A 
HETATM    7  O   UNL     1      40.757 -16.842   5.504  1.00  0.00    -0.266 OA
HETATM    8  C   UNL     1      41.246 -11.495   4.781  1.00  0.00     0.035 A 
HETATM    9  C   UNL     1      40.816 -10.612   5.782  1.00  0.00     0.019 A 
HETATM   10  C   UNL     1      40.230 -11.109   6.952  1.00  0.00     0.034 A 
HETATM   11  C   UNL     1      40.094 -12.496   7.118  1.00  0.00     0.049 A 
HETATM   12  H   UNL     1      40.011 -15.125   7.139  1.00  0.00     0.169 HD
ENDROOT
BRANCH  10  13
HETATM   13  C   UNL     1      39.775 -10.237   8.073  1.00  0.00     0.252 C 
HETATM   14  N   UNL     1      40.679  -9.950   9.070  1.00  0.00    -0.353 N 
HETATM   15  H   UNL     1      41.603 -10.354   9.072  1.00  0.00     0.163 HD
HETATM   16  O   UNL     1      38.630  -9.792   8.066  1.00  0.00    -0.268 OA
BRANCH  14  17
HETATM   17  C   UNL     1      40.245  -9.245  10.256  1.00  0.00     0.163 C 
BRANCH  17  18
HETATM   18  C   UNL     1      41.256  -9.326  11.370  1.00  0.00    -0.019 A 
HETATM   19  C   UNL     1      40.960  -8.955  12.691  1.00  0.00     0.042 A 
HETATM   20 CL   UNL     1      39.386  -8.410  13.151  1.00  0.00    -0.084 Cl
HETATM   21  C   UNL     1      41.938  -9.027  13.688  1.00  0.00     0.024 A 
HETATM   22  C   UNL     1      43.222  -9.476  13.380  1.00  0.00     0.002 A 
HETATM   23  C   UNL     1      43.527  -9.861  12.078  1.00  0.00     0.001 A 
HETATM   24  C   UNL     1      42.552  -9.790  11.081  1.00  0.00     0.010 A 
ENDBRANCH  17  18
ENDBRANCH  14  17
ENDBRANCH  10  13
BRANCH   1  25
HETATM   25  C   UNL     1      41.892 -15.925   2.975  1.00  0.00     0.025 A 
HETATM   26  C   UNL     1      41.033 -16.294   1.914  1.00  0.00     0.047 A 
HETATM   27  C   UNL     1      41.530 -17.149   0.926  1.00  0.00     0.030 A 
HETATM   28  C   UNL     1      42.850 -17.612   0.970  1.00  0.00     0.002 A 
HETATM   29  C   UNL     1      43.690 -17.240   2.014  1.00  0.00     0.001 A 
HETATM   30  C   UNL     1      43.211 -16.405   3.021  1.00  0.00     0.016 A 
BRANCH  26  31
HETATM   31  N   UNL     1      39.698 -15.833   1.924  1.00  0.00    -0.327 N 
HETATM   32  C   UNL     1      39.065 -14.769   1.354  1.00  0.00     0.218 C 
HETATM   33  C   UNL     1      39.844 -13.639   0.745  1.00  0.00     0.117 C 
HETATM   34  O   UNL     1      37.833 -14.720   1.393  1.00  0.00    -0.274 OA
HETATM   35  H   UNL     1      39.045 -16.422   2.446  1.00  0.00     0.169 HD
ENDBRANCH  26  31
ENDBRANCH   1  25
TORSDOF 5
ENDMDL
