MODEL 1
REMARK VINA RESULT:      -9.4      0.000      0.000
REMARK  4 active torsions:
REMARK  status: ('A' for Active; 'I' for Inactive)
REMARK    1  A    between atoms: C_2  and  C_3 
REMARK    2  A    between atoms: C_7  and  C_8 
REMARK       I    between atoms: C_8  and  N_9 
REMARK    3  A    between atoms: N_9  and  C_10 
REMARK    4  A    between atoms: C_10  and  C_11 
ROOT
HETATM    1  C   UNL     1      43.712 -14.337   5.106  1.00  0.00     0.270 C 
HETATM    2  N   UNL     1      43.081 -15.551   5.213  1.00  0.00    -0.351 N 
HETATM    3  O   UNL     1      44.034 -13.850   4.028  1.00  0.00    -0.266 OA
HETATM    4  H   UNL     1      42.751 -15.873   6.110  1.00  0.00     0.163 HD
ENDROOT
BRANCH   1   5
HETATM    5  C   UNL     1      43.980 -13.668   6.350  1.00  0.00     0.120 A 
HETATM    6  N   UNL     1      45.114 -13.933   7.064  1.00  0.00    -0.272 N 
HETATM    7  N   UNL     1      45.232 -13.227   8.196  1.00  0.00    -0.174 NA
HETATM    8  H   UNL     1      45.846 -14.593   6.816  1.00  0.00     0.189 HD
HETATM    9  C   UNL     1      44.125 -12.468   8.241  1.00  0.00     0.089 A 
HETATM   10  C   UNL     1      43.312 -12.719   7.098  1.00  0.00     0.071 A 
BRANCH   9  11
HETATM   11  C   UNL     1      43.884 -11.536   9.350  1.00  0.00    -0.005 A 
HETATM   12  C   UNL     1      42.735 -10.725   9.354  1.00  0.00     0.017 A 
HETATM   13  C   UNL     1      42.485  -9.839  10.404  1.00  0.00     0.043 A 
HETATM   14  C   UNL     1      43.386  -9.757  11.456  1.00  0.00     0.116 A 
HETATM   15  C   UNL     1      44.532 -10.542  11.475  1.00  0.00     0.043 A 
HETATM   16  F   UNL     1      43.151  -8.908  12.465  1.00  0.00    -0.206 F 
HETATM   17  C   UNL     1      44.782 -11.430  10.425  1.00  0.00     0.017 A 
ENDBRANCH   9  11
ENDBRANCH   1   5
BRANCH   2  18
HETATM   18  C   UNL     1      42.715 -16.321   4.046  1.00  0.00     0.161 C 
BRANCH  18  19
HETATM   19  C   UNL     1      43.375 -17.677   4.049  1.00  0.00    -0.040 A 
HETATM   20  C   UNL     1      43.176 -18.571   2.985  1.00  0.00     0.018 A 
HETATM   21  C   UNL     1      43.754 -19.849   2.994  1.00  0.00    -0.024 A 
HETATM   22  C   UNL     1      44.504 -20.247   4.104  1.00  0.00     0.075 A 
HETATM   23  C   UNL     1      43.532 -20.781   1.838  1.00  0.00     0.043 C 
HETATM   24  O   UNL     1      45.092 -21.480   4.218  1.00  0.00    -0.351 OA
HETATM   25  C   UNL     1      44.713 -19.368   5.165  1.00  0.00     0.038 A 
HETATM   26  C   UNL     1      44.579 -22.464   3.316  1.00  0.00     0.176 C 
HETATM   27  C   UNL     1      44.512 -21.944   1.890  1.00  0.00     0.031 C 
HETATM   28  C   UNL     1      44.149 -18.090   5.141  1.00  0.00     0.011 A 
ENDBRANCH  18  19
ENDBRANCH   2  18
TORSDOF 4
ENDMDL
MODEL 2
REMARK VINA RESULT:      -9.2      5.867      8.665
REMARK  4 active torsions:
REMARK  status: ('A' for Active; 'I' for Inactive)
REMARK    1  A    between atoms: C_2  and  C_3 
REMARK    2  A    between atoms: C_7  and  C_8 
REMARK       I    between atoms: C_8  and  N_9 
REMARK    3  A    between atoms: N_9  and  C_10 
REMARK    4  A    between atoms: C_10  and  C_11 
ROOT
HETATM    1  C   UNL     1      42.828 -14.508   2.769  1.00  0.00     0.270 C 
HETATM    2  N   UNL     1      42.576 -15.720   3.360  1.00  0.00    -0.351 N 
HETATM    3  O   UNL     1      43.619 -13.695   3.233  1.00  0.00    -0.266 OA
HETATM    4  H   UNL     1      41.988 -16.397   2.897  1.00  0.00     0.163 HD
ENDROOT
BRANCH   1   5
HETATM    5  C   UNL     1      42.093 -14.245   1.561  1.00  0.00     0.120 A 
HETATM    6  N   UNL     1      42.032 -12.986   1.032  1.00  0.00    -0.272 N 
HETATM    7  N   UNL     1      41.320 -12.896  -0.098  1.00  0.00    -0.174 NA
HETATM    8  H   UNL     1      42.467 -12.148   1.409  1.00  0.00     0.189 HD
HETATM    9  C   UNL     1      40.880 -14.144  -0.325  1.00  0.00     0.089 A 
HETATM   10  C   UNL     1      41.344 -15.021   0.699  1.00  0.00     0.071 A 
BRANCH   9  11
HETATM   11  C   UNL     1      40.053 -14.462  -1.496  1.00  0.00    -0.005 A 
HETATM   12  C   UNL     1      40.530 -15.345  -2.481  1.00  0.00     0.017 A 
HETATM   13  C   UNL     1      39.752 -15.665  -3.596  1.00  0.00     0.043 A 
HETATM   14  C   UNL     1      38.492 -15.099  -3.734  1.00  0.00     0.116 A 
HETATM   15  C   UNL     1      37.998 -14.219  -2.779  1.00  0.00     0.043 A 
HETATM   16  F   UNL     1      37.744 -15.403  -4.802  1.00  0.00    -0.206 F 
HETATM   17  C   UNL     1      38.776 -13.899  -1.661  1.00  0.00     0.017 A 
ENDBRANCH   9  11
ENDBRANCH   1   5
BRANCH   2  18
HETATM   18  C   UNL     1      43.268 -16.138   4.558  1.00  0.00     0.161 C 
BRANCH  18  19
HETATM   19  C   UNL     1      43.761 -17.558   4.446  1.00  0.00    -0.040 A 
HETATM   20  C   UNL     1      43.492 -18.319   3.297  1.00  0.00     0.018 A 
HETATM   21  C   UNL     1      43.913 -19.653   3.196  1.00  0.00    -0.024 A 
HETATM   22  C   UNL     1      44.572 -20.241   4.281  1.00  0.00     0.075 A 
HETATM   23  C   UNL     1      43.621 -20.440   1.952  1.00  0.00     0.043 C 
HETATM   24  O   UNL     1      45.004 -21.542   4.289  1.00  0.00    -0.351 OA
HETATM   25  C   UNL     1      44.848 -19.496   5.425  1.00  0.00     0.038 A 
HETATM   26  C   UNL     1      44.408 -22.369   3.285  1.00  0.00     0.176 C 
HETATM   27  C   UNL     1      44.453 -21.714   1.915  1.00  0.00     0.031 C 
HETATM   28  C   UNL     1      44.442 -18.162   5.511  1.00  0.00     0.011 A 
ENDBRANCH  18  19
ENDBRANCH   2  18
TORSDOF 4
ENDMDL
MODEL 3
REMARK VINA RESULT:      -9.2      7.297     10.514
REMARK  4 active torsions:
REMARK  status: ('A' for Active; 'I' for Inactive)
REMARK    1  A    between atoms: C_2  and  C_3 
REMARK    2  A    between atoms: C_7  and  C_8 
REMARK       I    between atoms: C_8  and  N_9 
REMARK    3  A    between atoms: N_9  and  C_10 
REMARK    4  A    between atoms: C_10  and  C_11 
ROOT
HETATM    1  C   UNL     1      41.317 -16.089   0.350  1.00  0.00     0.270 C 
HETATM    2  N   UNL     1      41.501 -15.876  -0.993  1.00  0.00    -0.351 N 
HETATM    3  O   UNL     1      40.414 -15.560   0.987  1.00  0.00    -0.266 OA
HETATM    4  H   UNL     1      42.199 -16.401  -1.498  1.00  0.00     0.163 HD
ENDROOT
BRANCH   1   5
HETATM    5  C   UNL     1      42.264 -16.976   0.971  1.00  0.00     0.120 A 
HETATM    6  N   UNL     1      43.605 -16.719   0.925  1.00  0.00    -0.272 N 
HETATM    7  N   UNL     1      44.362 -17.627   1.555  1.00  0.00    -0.174 NA
HETATM    8  H   UNL     1      44.057 -15.928   0.474  1.00  0.00     0.189 HD
HETATM    9  C   UNL     1      43.489 -18.530   2.030  1.00  0.00     0.089 A 
HETATM   10  C   UNL     1      42.159 -18.156   1.680  1.00  0.00     0.071 A 
BRANCH   9  11
HETATM   11  C   UNL     1      43.939 -19.698   2.797  1.00  0.00    -0.005 A 
HETATM   12  C   UNL     1      43.969 -20.970   2.196  1.00  0.00     0.017 A 
HETATM   13  C   UNL     1      44.403 -22.090   2.909  1.00  0.00     0.043 A 
HETATM   14  C   UNL     1      44.805 -21.945   4.229  1.00  0.00     0.116 A 
HETATM   15  C   UNL     1      44.781 -20.702   4.849  1.00  0.00     0.043 A 
HETATM   16  F   UNL     1      45.221 -23.017   4.916  1.00  0.00    -0.206 F 
HETATM   17  C   UNL     1      44.348 -19.579   4.136  1.00  0.00     0.017 A 
ENDBRANCH   9  11
ENDBRANCH   1   5
BRANCH   2  18
HETATM   18  C   UNL     1      40.606 -15.039  -1.758  1.00  0.00     0.161 C 
BRANCH  18  19
HETATM   19  C   UNL     1      41.262 -13.738  -2.148  1.00  0.00    -0.040 A 
HETATM   20  C   UNL     1      41.749 -12.861  -1.165  1.00  0.00     0.018 A 
HETATM   21  C   UNL     1      42.328 -11.632  -1.515  1.00  0.00    -0.024 A 
HETATM   22  C   UNL     1      42.376 -11.262  -2.862  1.00  0.00     0.075 A 
HETATM   23  C   UNL     1      42.849 -10.718  -0.444  1.00  0.00     0.043 C 
HETATM   24  O   UNL     1      42.902 -10.076  -3.302  1.00  0.00    -0.351 OA
HETATM   25  C   UNL     1      41.901 -12.125  -3.846  1.00  0.00     0.038 A 
HETATM   26  C   UNL     1      43.047  -9.080  -2.286  1.00  0.00     0.176 C 
HETATM   27  C   UNL     1      43.730  -9.633  -1.047  1.00  0.00     0.031 C 
HETATM   28  C   UNL     1      41.342 -13.356  -3.493  1.00  0.00     0.011 A 
ENDBRANCH  18  19
ENDBRANCH   2  18
TORSDOF 4
ENDMDL
MODEL 4
REMARK VINA RESULT:      -9.2      2.801      4.871
REMARK  4 active torsions:
REMARK  status: ('A' for Active; 'I' for Inactive)
REMARK    1  A    between atoms: C_2  and  C_3 
REMARK    2  A    between atoms: C_7  and  C_8 
REMARK       I    between atoms: C_8  and  N_9 
REMARK    3  A    between atoms: N_9  and  C_10 
REMARK    4  A    between atoms: C_10  and  C_11 
ROOT
HETATM    1  C   UNL     1      45.043 -11.746   9.290  1.00  0.00     0.270 C 
HETATM    2  N   UNL     1      44.639 -12.901   8.667  1.00  0.00    -0.351 N 
HETATM    3  O   UNL     1      45.951 -11.044   8.860  1.00  0.00    -0.266 OA
HETATM    4  H   UNL     1      43.829 -13.400   9.003  1.00  0.00     0.163 HD
ENDROOT
BRANCH   1   5
HETATM    5  C   UNL     1      44.331 -11.412  10.494  1.00  0.00     0.120 A 
HETATM    6  N   UNL     1      43.741 -12.380  11.257  1.00  0.00    -0.272 N 
HETATM    7  N   UNL     1      43.124 -11.918  12.353  1.00  0.00    -0.174 NA
HETATM    8  H   UNL     1      43.734 -13.378  11.071  1.00  0.00     0.189 HD
HETATM    9  C   UNL     1      43.302 -10.589  12.311  1.00  0.00     0.089 A 
HETATM   10  C   UNL     1      44.056 -10.231  11.155  1.00  0.00     0.071 A 
BRANCH   9  11
HETATM   11  C   UNL     1      42.767  -9.713  13.360  1.00  0.00    -0.005 A 
HETATM   12  C   UNL     1      42.384 -10.249  14.603  1.00  0.00     0.017 A 
HETATM   13  C   UNL     1      41.881  -9.429  15.615  1.00  0.00     0.043 A 
HETATM   14  C   UNL     1      41.755  -8.066  15.389  1.00  0.00     0.116 A 
HETATM   15  C   UNL     1      42.120  -7.509  14.169  1.00  0.00     0.043 A 
HETATM   16  F   UNL     1      41.272  -7.276  16.357  1.00  0.00    -0.206 F 
HETATM   17  C   UNL     1      42.625  -8.330  13.156  1.00  0.00     0.017 A 
ENDBRANCH   9  11
ENDBRANCH   1   5
BRANCH   2  18
HETATM   18  C   UNL     1      45.237 -13.344   7.429  1.00  0.00     0.161 C 
BRANCH  18  19
HETATM   19  C   UNL     1      44.340 -14.309   6.696  1.00  0.00    -0.040 A 
HETATM   20  C   UNL     1      44.663 -15.674   6.629  1.00  0.00     0.018 A 
HETATM   21  C   UNL     1      43.856 -16.575   5.918  1.00  0.00    -0.024 A 
HETATM   22  C   UNL     1      42.739 -16.090   5.232  1.00  0.00     0.075 A 
HETATM   23  C   UNL     1      44.219 -18.030   5.871  1.00  0.00     0.043 C 
HETATM   24  O   UNL     1      41.901 -16.885   4.493  1.00  0.00    -0.351 OA
HETATM   25  C   UNL     1      42.406 -14.739   5.294  1.00  0.00     0.038 A 
HETATM   26  C   UNL     1      42.446 -18.163   4.152  1.00  0.00     0.176 C 
HETATM   27  C   UNL     1      43.049 -18.859   5.360  1.00  0.00     0.031 C 
HETATM   28  C   UNL     1      43.203 -13.850   6.018  1.00  0.00     0.011 A 
ENDBRANCH  18  19
ENDBRANCH   2  18
TORSDOF 4
ENDMDL
MODEL 5
REMARK VINA RESULT:      -9.2      3.956     10.783
REMARK  4 active torsions:
REMARK  status: ('A' for Active; 'I' for Inactive)
REMARK    1  A    between atoms: C_2  and  C_3 
REMARK    2  A    between atoms: C_7  and  C_8 
REMARK       I    between atoms: C_8  and  N_9 
REMARK    3  A    between atoms: N_9  and  C_10 
REMARK    4  A    between atoms: C_10  and  C_11 
ROOT
HETATM    1  C   UNL     1      45.018 -13.121   8.113  1.00  0.00     0.270 C 
HETATM    2  N   UNL     1      44.294 -12.836   9.244  1.00  0.00    -0.351 N 
HETATM    3  O   UNL     1      46.151 -12.694   7.926  1.00  0.00    -0.266 OA
HETATM    4  H   UNL     1      43.403 -13.282   9.400  1.00  0.00     0.163 HD
ENDROOT
BRANCH   1   5
HETATM    5  C   UNL     1      44.354 -13.956   7.148  1.00  0.00     0.120 A 
HETATM    6  N   UNL     1      43.169 -13.576   6.583  1.00  0.00    -0.272 N 
HETATM    7  N   UNL     1      42.676 -14.449   5.695  1.00  0.00    -0.174 NA
HETATM    8  H   UNL     1      42.654 -12.720   6.771  1.00  0.00     0.189 HD
HETATM    9  C   UNL     1      43.564 -15.456   5.677  1.00  0.00     0.089 A 
HETATM   10  C   UNL     1      44.633 -15.183   6.580  1.00  0.00     0.071 A 
BRANCH   9  11
HETATM   11  C   UNL     1      43.376 -16.625   4.809  1.00  0.00    -0.005 A 
HETATM   12  C   UNL     1      42.643 -16.507   3.614  1.00  0.00     0.017 A 
HETATM   13  C   UNL     1      42.463 -17.608   2.772  1.00  0.00     0.043 A 
HETATM   14  C   UNL     1      43.012 -18.832   3.123  1.00  0.00     0.116 A 
HETATM   15  C   UNL     1      43.735 -18.978   4.300  1.00  0.00     0.043 A 
HETATM   16  F   UNL     1      42.840 -19.889   2.318  1.00  0.00    -0.206 F 
HETATM   17  C   UNL     1      43.918 -17.877   5.143  1.00  0.00     0.017 A 
ENDBRANCH   9  11
ENDBRANCH   1   5
BRANCH   2  18
HETATM   18  C   UNL     1      44.846 -12.041  10.316  1.00  0.00     0.161 C 
BRANCH  18  19
HETATM   19  C   UNL     1      43.883 -10.968  10.760  1.00  0.00    -0.040 A 
HETATM   20  C   UNL     1      43.915 -10.479  12.076  1.00  0.00     0.018 A 
HETATM   21  C   UNL     1      43.000  -9.509  12.511  1.00  0.00    -0.024 A 
HETATM   22  C   UNL     1      42.016  -9.059  11.626  1.00  0.00     0.075 A 
HETATM   23  C   UNL     1      43.064  -8.997  13.921  1.00  0.00     0.043 C 
HETATM   24  O   UNL     1      41.066  -8.130  11.961  1.00  0.00    -0.351 OA
HETATM   25  C   UNL     1      41.976  -9.533  10.317  1.00  0.00     0.038 A 
HETATM   26  C   UNL     1      40.901  -7.933  13.368  1.00  0.00     0.176 C 
HETATM   27  C   UNL     1      42.233  -7.730  14.070  1.00  0.00     0.031 C 
HETATM   28  C   UNL     1      42.901 -10.486   9.885  1.00  0.00     0.011 A 
ENDBRANCH  18  19
ENDBRANCH   2  18
TORSDOF 4
ENDMDL
MODEL 6
REMARK VINA RESULT:      -9.1      7.173     10.623
REMARK  4 active torsions:
REMARK  status: ('A' for Active; 'I' for Inactive)
REMARK    1  A    between atoms: C_2  and  C_3 
REMARK    2  A    between atoms: C_7  and  C_8 
REMARK       I    between atoms: C_8  and  N_9 
REMARK    3  A    between atoms: N_9  and  C_10 
REMARK    4  A    between atoms: C_10  and  C_11 
ROOT
HETATM    1  C   UNL     1      42.000 -14.975   0.794  1.00  0.00     0.270 C 
HETATM    2  N   UNL     1      41.884 -15.104  -0.568  1.00  0.00    -0.351 N 
HETATM    3  O   UNL     1      41.897 -13.897   1.368  1.00  0.00    -0.266 OA
HETATM    4  H   UNL     1      41.884 -16.020  -0.990  1.00  0.00     0.163 HD
ENDROOT
BRANCH   1   5
HETATM    5  C   UNL     1      42.260 -16.194   1.511  1.00  0.00     0.120 A 
HETATM    6  N   UNL     1      41.666 -16.442   2.717  1.00  0.00    -0.272 N 
HETATM    7  N   UNL     1      41.996 -17.621   3.261  1.00  0.00    -0.174 NA
HETATM    8  H   UNL     1      41.021 -15.834   3.212  1.00  0.00     0.189 HD
HETATM    9  C   UNL     1      42.851 -18.174   2.386  1.00  0.00     0.089 A 
HETATM   10  C   UNL     1      43.044 -17.305   1.273  1.00  0.00     0.071 A 
BRANCH   9  11
HETATM   11  C   UNL     1      43.443 -19.496   2.628  1.00  0.00    -0.005 A 
HETATM   12  C   UNL     1      44.211 -19.726   3.783  1.00  0.00     0.017 A 
HETATM   13  C   UNL     1      44.774 -20.980   4.033  1.00  0.00     0.043 A 
HETATM   14  C   UNL     1      44.574 -22.010   3.125  1.00  0.00     0.116 A 
HETATM   15  C   UNL     1      43.825 -21.809   1.973  1.00  0.00     0.043 A 
HETATM   16  F   UNL     1      45.113 -23.214   3.361  1.00  0.00    -0.206 F 
HETATM   17  C   UNL     1      43.260 -20.555   1.723  1.00  0.00     0.017 A 
ENDBRANCH   9  11
ENDBRANCH   1   5
BRANCH   2  18
HETATM   18  C   UNL     1      41.587 -13.972  -1.415  1.00  0.00     0.161 C 
BRANCH  18  19
HETATM   19  C   UNL     1      40.423 -14.256  -2.329  1.00  0.00    -0.040 A 
HETATM   20  C   UNL     1      39.373 -13.333  -2.457  1.00  0.00     0.018 A 
HETATM   21  C   UNL     1      38.266 -13.603  -3.276  1.00  0.00    -0.024 A 
HETATM   22  C   UNL     1      38.195 -14.832  -3.938  1.00  0.00     0.075 A 
HETATM   23  C   UNL     1      37.162 -12.593  -3.402  1.00  0.00     0.043 C 
HETATM   24  O   UNL     1      37.148 -15.198  -4.743  1.00  0.00    -0.351 OA
HETATM   25  C   UNL     1      39.232 -15.755  -3.823  1.00  0.00     0.038 A 
HETATM   26  C   UNL     1      35.963 -14.417  -4.564  1.00  0.00     0.176 C 
HETATM   27  C   UNL     1      36.261 -12.928  -4.582  1.00  0.00     0.031 C 
HETATM   28  C   UNL     1      40.339 -15.472  -3.020  1.00  0.00     0.011 A 
ENDBRANCH  18  19
ENDBRANCH   2  18
TORSDOF 4
ENDMDL
MODEL 7
REMARK VINA RESULT:      -8.9      4.031     10.275
REMARK  4 active torsions:
REMARK  status: ('A' for Active; 'I' for Inactive)
REMARK    1  A    between atoms: C_2  and  C_3 
REMARK    2  A    between atoms: C_7  and  C_8 
REMARK       I    between atoms: C_8  and  N_9 
REMARK    3  A    between atoms: N_9  and  C_10 
REMARK    4  A    between atoms: C_10  and  C_11 
ROOT
HETATM    1  C   UNL     1      42.212 -12.872   5.479  1.00  0.00     0.270 C 
HETATM    2  N   UNL     1      42.040 -12.437   6.769  1.00  0.00    -0.351 N 
HETATM    3  O   UNL     1      42.076 -12.136   4.508  1.00  0.00    -0.266 OA
HETATM    4  H   UNL     1      42.251 -13.051   7.542  1.00  0.00     0.163 HD
ENDROOT
BRANCH   1   5
HETATM    5  C   UNL     1      42.558 -14.260   5.335  1.00  0.00     0.120 A 
HETATM    6  N   UNL     1      42.509 -15.114   6.401  1.00  0.00    -0.272 N 
HETATM    7  N   UNL     1      42.849 -16.377   6.112  1.00  0.00    -0.174 NA
HETATM    8  H   UNL     1      42.244 -14.880   7.353  1.00  0.00     0.189 HD
HETATM    9  C   UNL     1      43.147 -16.360   4.803  1.00  0.00     0.089 A 
HETATM   10  C   UNL     1      42.978 -15.045   4.279  1.00  0.00     0.071 A 
BRANCH   9  11
HETATM   11  C   UNL     1      43.568 -17.578   4.100  1.00  0.00    -0.005 A 
HETATM   12  C   UNL     1      44.107 -18.660   4.819  1.00  0.00     0.017 A 
HETATM   13  C   UNL     1      44.505 -19.829   4.166  1.00  0.00     0.043 A 
HETATM   14  C   UNL     1      44.369 -19.921   2.788  1.00  0.00     0.116 A 
HETATM   15  C   UNL     1      43.845 -18.866   2.052  1.00  0.00     0.043 A 
HETATM   16  F   UNL     1      44.750 -21.040   2.159  1.00  0.00    -0.206 F 
HETATM   17  C   UNL     1      43.445 -17.695   2.705  1.00  0.00     0.017 A 
ENDBRANCH   9  11
ENDBRANCH   1   5
BRANCH   2  18
HETATM   18  C   UNL     1      41.726 -11.059   7.070  1.00  0.00     0.161 C 
BRANCH  18  19
HETATM   19  C   UNL     1      41.601 -10.832   8.555  1.00  0.00    -0.040 A 
HETATM   20  C   UNL     1      42.745 -10.658   9.350  1.00  0.00     0.018 A 
HETATM   21  C   UNL     1      42.643 -10.483  10.738  1.00  0.00    -0.024 A 
HETATM   22  C   UNL     1      41.381 -10.529  11.338  1.00  0.00     0.075 A 
HETATM   23  C   UNL     1      43.882 -10.289  11.563  1.00  0.00     0.043 C 
HETATM   24  O   UNL     1      41.178 -10.390  12.686  1.00  0.00    -0.351 OA
HETATM   25  C   UNL     1      40.238 -10.697  10.559  1.00  0.00     0.038 A 
HETATM   26  C   UNL     1      42.351 -10.578  13.483  1.00  0.00     0.176 C 
HETATM   27  C   UNL     1      43.528  -9.778  12.952  1.00  0.00     0.031 C 
HETATM   28  C   UNL     1      40.345 -10.852   9.175  1.00  0.00     0.011 A 
ENDBRANCH  18  19
ENDBRANCH   2  18
TORSDOF 4
ENDMDL
MODEL 8
REMARK VINA RESULT:      -8.8      6.091      8.674
REMARK  4 active torsions:
REMARK  status: ('A' for Active; 'I' for Inactive)
REMARK    1  A    between atoms: C_2  and  C_3 
REMARK    2  A    between atoms: C_7  and  C_8 
REMARK       I    between atoms: C_8  and  N_9 
REMARK    3  A    between atoms: N_9  and  C_10 
REMARK    4  A    between atoms: C_10  and  C_11 
ROOT
HETATM    1  C   UNL     1      41.347 -15.643   2.186  1.00  0.00     0.270 C 
HETATM    2  N   UNL     1      42.613 -15.939   2.625  1.00  0.00    -0.351 N 
HETATM    3  O   UNL     1      40.356 -15.754   2.898  1.00  0.00    -0.266 OA
HETATM    4  H   UNL     1      43.410 -15.746   2.038  1.00  0.00     0.163 HD
ENDROOT
BRANCH   1   5
HETATM    5  C   UNL     1      41.254 -15.195   0.823  1.00  0.00     0.120 A 
HETATM    6  N   UNL     1      41.056 -16.080  -0.199  1.00  0.00    -0.272 N 
HETATM    7  N   UNL     1      40.981 -15.516  -1.411  1.00  0.00    -0.174 NA
HETATM    8  H   UNL     1      40.962 -17.089  -0.117  1.00  0.00     0.189 HD
HETATM    9  C   UNL     1      41.147 -14.203  -1.187  1.00  0.00     0.089 A 
HETATM   10  C   UNL     1      41.324 -13.961   0.206  1.00  0.00     0.071 A 
BRANCH   9  11
HETATM   11  C   UNL     1      41.123 -13.231  -2.288  1.00  0.00    -0.005 A 
HETATM   12  C   UNL     1      39.897 -12.795  -2.820  1.00  0.00     0.017 A 
HETATM   13  C   UNL     1      39.856 -11.865  -3.862  1.00  0.00     0.043 A 
HETATM   14  C   UNL     1      41.044 -11.368  -4.379  1.00  0.00     0.116 A 
HETATM   15  C   UNL     1      42.270 -11.786  -3.877  1.00  0.00     0.043 A 
HETATM   16  F   UNL     1      41.009 -10.477  -5.378  1.00  0.00    -0.206 F 
HETATM   17  C   UNL     1      42.311 -12.716  -2.833  1.00  0.00     0.017 A 
ENDBRANCH   9  11
ENDBRANCH   1   5
BRANCH   2  18
HETATM   18  C   UNL     1      42.865 -16.366   3.983  1.00  0.00     0.161 C 
BRANCH  18  19
HETATM   19  C   UNL     1      43.486 -17.739   4.025  1.00  0.00    -0.040 A 
HETATM   20  C   UNL     1      43.298 -18.641   2.965  1.00  0.00     0.018 A 
HETATM   21  C   UNL     1      43.840 -19.934   3.011  1.00  0.00    -0.024 A 
HETATM   22  C   UNL     1      44.539 -20.338   4.152  1.00  0.00     0.075 A 
HETATM   23  C   UNL     1      43.631 -20.875   1.859  1.00  0.00     0.043 C 
HETATM   24  O   UNL     1      45.087 -21.585   4.301  1.00  0.00    -0.351 OA
HETATM   25  C   UNL     1      44.736 -19.451   5.208  1.00  0.00     0.038 A 
HETATM   26  C   UNL     1      44.579 -22.567   3.393  1.00  0.00     0.176 C 
HETATM   27  C   UNL     1      44.576 -22.064   1.960  1.00  0.00     0.031 C 
HETATM   28  C   UNL     1      44.209 -18.159   5.149  1.00  0.00     0.011 A 
ENDBRANCH  18  19
ENDBRANCH   2  18
TORSDOF 4
ENDMDL
MODEL 9
REMARK VINA RESULT:      -8.4      6.866     10.652
REMARK  4 active torsions:
REMARK  status: ('A' for Active; 'I' for Inactive)
REMARK    1  A    between atoms: C_2  and  C_3 
REMARK    2  A    between atoms: C_7  and  C_8 
REMARK       I    between atoms: C_8  and  N_9 
REMARK    3  A    between atoms: N_9  and  C_10 
REMARK    4  A    between atoms: C_10  and  C_11 
ROOT
HETATM    1  C   UNL     1      40.720 -14.957  -1.242  1.00  0.00     0.270 C 
HETATM    2  N   UNL     1      41.746 -14.733  -2.125  1.00  0.00    -0.351 N 
HETATM    3  O   UNL     1      39.590 -14.517  -1.414  1.00  0.00    -0.266 OA
HETATM    4  H   UNL     1      42.636 -15.189  -1.993  1.00  0.00     0.163 HD
ENDROOT
BRANCH   1   5
HETATM    5  C   UNL     1      41.059 -15.744  -0.086  1.00  0.00     0.120 A 
HETATM    6  N   UNL     1      40.194 -15.862   0.965  1.00  0.00    -0.272 N 
HETATM    7  N   UNL     1      40.642 -16.633   1.964  1.00  0.00    -0.174 NA
HETATM    8  H   UNL     1      39.276 -15.434   1.046  1.00  0.00     0.189 HD
HETATM    9  C   UNL     1      41.859 -17.035   1.565  1.00  0.00     0.089 A 
HETATM   10  C   UNL     1      42.158 -16.494   0.281  1.00  0.00     0.071 A 
BRANCH   9  11
HETATM   11  C   UNL     1      42.685 -17.915   2.402  1.00  0.00    -0.005 A 
HETATM   12  C   UNL     1      43.429 -18.955   1.815  1.00  0.00     0.017 A 
HETATM   13  C   UNL     1      44.226 -19.796   2.595  1.00  0.00     0.043 A 
HETATM   14  C   UNL     1      44.281 -19.603   3.968  1.00  0.00     0.116 A 
HETATM   15  C   UNL     1      43.552 -18.588   4.575  1.00  0.00     0.043 A 
HETATM   16  F   UNL     1      45.044 -20.408   4.720  1.00  0.00    -0.206 F 
HETATM   17  C   UNL     1      42.755 -17.745   3.795  1.00  0.00     0.017 A 
ENDBRANCH   9  11
ENDBRANCH   1   5
BRANCH   2  18
HETATM   18  C   UNL     1      41.546 -13.991  -3.348  1.00  0.00     0.161 C 
BRANCH  18  19
HETATM   19  C   UNL     1      41.988 -12.557  -3.204  1.00  0.00    -0.040 A 
HETATM   20  C   UNL     1      42.348 -12.043  -1.949  1.00  0.00     0.018 A 
HETATM   21  C   UNL     1      42.725 -10.700  -1.797  1.00  0.00    -0.024 A 
HETATM   22  C   UNL     1      42.696  -9.856  -2.911  1.00  0.00     0.075 A 
HETATM   23  C   UNL     1      43.114 -10.179  -0.444  1.00  0.00     0.043 C 
HETATM   24  O   UNL     1      43.026  -8.527  -2.862  1.00  0.00    -0.351 OA
HETATM   25  C   UNL     1      42.344 -10.355  -4.163  1.00  0.00     0.038 A 
HETATM   26  C   UNL     1      43.030  -7.967  -1.545  1.00  0.00     0.176 C 
HETATM   27  C   UNL     1      43.808  -8.830  -0.567  1.00  0.00     0.031 C 
HETATM   28  C   UNL     1      41.988 -11.697  -4.311  1.00  0.00     0.011 A 
ENDBRANCH  18  19
ENDBRANCH   2  18
TORSDOF 4
ENDMDL
MODEL 10
REMARK VINA RESULT:      -8.3      6.365      9.681
REMARK  4 active torsions:
REMARK  status: ('A' for Active; 'I' for Inactive)
REMARK    1  A    between atoms: C_2  and  C_3 
REMARK    2  A    between atoms: C_7  and  C_8 
REMARK       I    between atoms: C_8  and  N_9 
REMARK    3  A    between atoms: N_9  and  C_10 
REMARK    4  A    between atoms: C_10  and  C_11 
ROOT
HETATM    1  C   UNL     1      41.373 -15.021   2.703  1.00  0.00     0.270 C 
HETATM    2  N   UNL     1      41.820 -14.308   1.619  1.00  0.00    -0.351 N 
HETATM    3  O   UNL     1      40.359 -14.718   3.322  1.00  0.00    -0.266 OA
HETATM    4  H   UNL     1      42.606 -14.644   1.082  1.00  0.00     0.163 HD
ENDROOT
BRANCH   1   5
HETATM    5  C   UNL     1      42.178 -16.153   3.075  1.00  0.00     0.120 A 
HETATM    6  N   UNL     1      43.111 -16.058   4.069  1.00  0.00    -0.272 N 
HETATM    7  N   UNL     1      43.777 -17.195   4.310  1.00  0.00    -0.174 NA
HETATM    8  H   UNL     1      43.331 -15.232   4.618  1.00  0.00     0.189 HD
HETATM    9  C   UNL     1      43.273 -18.078   3.434  1.00  0.00     0.089 A 
HETATM   10  C   UNL     1      42.266 -17.459   2.638  1.00  0.00     0.071 A 
BRANCH   9  11
HETATM   11  C   UNL     1      43.751 -19.466   3.388  1.00  0.00    -0.005 A 
HETATM   12  C   UNL     1      44.391 -20.031   4.506  1.00  0.00     0.017 A 
HETATM   13  C   UNL     1      44.844 -21.353   4.482  1.00  0.00     0.043 A 
HETATM   14  C   UNL     1      44.663 -22.115   3.337  1.00  0.00     0.116 A 
HETATM   15  C   UNL     1      44.039 -21.580   2.216  1.00  0.00     0.043 A 
HETATM   16  F   UNL     1      45.096 -23.382   3.310  1.00  0.00    -0.206 F 
HETATM   17  C   UNL     1      43.584 -20.258   2.240  1.00  0.00     0.017 A 
ENDBRANCH   9  11
ENDBRANCH   1   5
BRANCH   2  18
HETATM   18  C   UNL     1      41.094 -13.169   1.108  1.00  0.00     0.161 C 
BRANCH  18  19
HETATM   19  C   UNL     1      40.118 -13.572   0.032  1.00  0.00    -0.040 A 
HETATM   20  C   UNL     1      40.541 -14.339  -1.066  1.00  0.00     0.018 A 
HETATM   21  C   UNL     1      39.651 -14.688  -2.092  1.00  0.00    -0.024 A 
HETATM   22  C   UNL     1      38.333 -14.225  -2.035  1.00  0.00     0.075 A 
HETATM   23  C   UNL     1      40.128 -15.516  -3.249  1.00  0.00     0.043 C 
HETATM   24  O   UNL     1      37.394 -14.494  -2.996  1.00  0.00    -0.351 OA
HETATM   25  C   UNL     1      37.900 -13.467  -0.949  1.00  0.00     0.038 A 
HETATM   26  C   UNL     1      37.935 -14.948  -4.240  1.00  0.00     0.176 C 
HETATM   27  C   UNL     1      38.949 -16.062  -4.042  1.00  0.00     0.031 C 
HETATM   28  C   UNL     1      38.787 -13.138   0.078  1.00  0.00     0.011 A 
ENDBRANCH  18  19
ENDBRANCH   2  18
TORSDOF 4
ENDMDL
