MODEL 1
REMARK VINA RESULT:      -8.5      0.000      0.000
REMARK  6 active torsions:
REMARK  status: ('A' for Active; 'I' for Inactive)
REMARK    1  A    between atoms: C_2  and  C_3 
REMARK    2  A    between atoms: C_3  and  C_4 
REMARK    3  A    between atoms: C_4  and  C_5 
REMARK    4  A    between atoms: C_4  and  C_21 
REMARK       I    between atoms: C_5  and  N_6 
REMARK    5  A    between atoms: N_6  and  C_7 
REMARK    6  A    between atoms: C_14  and  C_15 
REMARK       I    between atoms: C_15  and  N_16 
ROOT
HETATM    1  C   UNL     1      41.589 -16.255   1.850  1.00  0.00     0.035 A 
HETATM    2  C   UNL     1      41.385 -16.309   0.464  1.00  0.00     0.046 A 
HETATM    3  C   UNL     1      40.750 -15.229  -0.185  1.00  0.00     0.030 A 
HETATM    4  C   UNL     1      40.298 -14.159   0.579  1.00  0.00     0.063 A 
HETATM    5  N   UNL     1      39.706 -13.306  -0.309  1.00  0.00    -0.277 N 
HETATM    6  H   UNL     1      39.247 -12.426  -0.101  1.00  0.00     0.189 HD
HETATM    7  N   UNL     1      39.783 -13.694  -1.592  1.00  0.00    -0.168 NA
HETATM    8  C   UNL     1      40.435 -14.878  -1.533  1.00  0.00     0.156 A 
HETATM    9  C   UNL     1      40.479 -14.079   1.962  1.00  0.00     0.034 A 
HETATM   10  C   UNL     1      41.159 -15.138   2.576  1.00  0.00     0.032 A 
ENDROOT
BRANCH   1  11
HETATM   11  N   UNL     1      42.268 -17.265   2.563  1.00  0.00    -0.327 N 
HETATM   12  C   UNL     1      43.628 -17.531   2.515  1.00  0.00     0.231 C 
HETATM   13  O   UNL     1      44.411 -16.959   1.759  1.00  0.00    -0.272 OA
HETATM   14  H   UNL     1      41.681 -17.945   3.029  1.00  0.00     0.169 HD
BRANCH  12  15
HETATM   15  C   UNL     1      44.126 -18.552   3.568  1.00  0.00     0.115 C 
BRANCH  15  16
HETATM   16  C   UNL     1      43.735 -20.041   3.288  1.00  0.00    -0.001 C 
HETATM   17  C   UNL     1      44.654 -21.010   4.046  1.00  0.00     0.011 C 
BRANCH  16  18
HETATM   18  C   UNL     1      43.648 -20.392   1.784  1.00  0.00     0.001 C 
HETATM   19  C   UNL     1      44.003 -21.840   1.467  1.00  0.00     0.005 C 
ENDBRANCH  16  18
ENDBRANCH  15  16
BRANCH  15  20
HETATM   20  C   UNL     1      43.868 -18.172   5.030  1.00  0.00    -0.045 A 
HETATM   21  C   UNL     1      44.953 -18.108   5.921  1.00  0.00     0.008 A 
HETATM   22  C   UNL     1      44.760 -17.750   7.256  1.00  0.00     0.001 A 
HETATM   23  C   UNL     1      43.482 -17.458   7.721  1.00  0.00     0.000 A 
HETATM   24  C   UNL     1      42.395 -17.526   6.854  1.00  0.00     0.001 A 
HETATM   25  C   UNL     1      42.584 -17.883   5.516  1.00  0.00     0.008 A 
ENDBRANCH  15  20
ENDBRANCH  12  15
ENDBRANCH   1  11
BRANCH   8  26
HETATM   26  C   UNL     1      40.770 -15.624  -2.754  1.00  0.00     0.270 C 
HETATM   27  N   UNL     1      39.866 -16.599  -3.079  1.00  0.00    -0.365 N 
HETATM   28  H   UNL     1      39.044 -16.708  -2.496  1.00  0.00     0.159 HD
HETATM   29  H   UNL     1      39.983 -17.121  -3.932  1.00  0.00     0.159 HD
HETATM   30  O   UNL     1      41.747 -15.405  -3.462  1.00  0.00    -0.266 OA
ENDBRANCH   8  26
TORSDOF 6
ENDMDL
MODEL 2
REMARK VINA RESULT:      -8.4      1.553      3.491
REMARK  6 active torsions:
REMARK  status: ('A' for Active; 'I' for Inactive)
REMARK    1  A    between atoms: C_2  and  C_3 
REMARK    2  A    between atoms: C_3  and  C_4 
REMARK    3  A    between atoms: C_4  and  C_5 
REMARK    4  A    between atoms: C_4  and  C_21 
REMARK       I    between atoms: C_5  and  N_6 
REMARK    5  A    between atoms: N_6  and  C_7 
REMARK    6  A    between atoms: C_14  and  C_15 
REMARK       I    between atoms: C_15  and  N_16 
ROOT
HETATM    1  C   UNL     1      40.237 -15.507   1.488  1.00  0.00     0.035 A 
HETATM    2  C   UNL     1      40.731 -15.373   0.184  1.00  0.00     0.046 A 
HETATM    3  C   UNL     1      40.282 -14.304  -0.621  1.00  0.00     0.030 A 
HETATM    4  C   UNL     1      39.321 -13.440  -0.111  1.00  0.00     0.063 A 
HETATM    5  N   UNL     1      39.066 -12.549  -1.116  1.00  0.00    -0.277 N 
HETATM    6  H   UNL     1      38.400 -11.785  -1.104  1.00  0.00     0.189 HD
HETATM    7  N   UNL     1      39.818 -12.720  -2.215  1.00  0.00    -0.168 NA
HETATM    8  C   UNL     1      40.583 -13.796  -1.921  1.00  0.00     0.156 A 
HETATM    9  C   UNL     1      38.803 -13.550   1.181  1.00  0.00     0.034 A 
HETATM   10  C   UNL     1      39.303 -14.587   1.979  1.00  0.00     0.032 A 
ENDROOT
BRANCH   1  11
HETATM   11  N   UNL     1      40.680 -16.511   2.375  1.00  0.00    -0.327 N 
HETATM   12  C   UNL     1      41.958 -16.638   2.899  1.00  0.00     0.231 C 
HETATM   13  O   UNL     1      42.904 -15.922   2.578  1.00  0.00    -0.272 OA
HETATM   14  H   UNL     1      40.045 -17.287   2.513  1.00  0.00     0.169 HD
BRANCH  12  15
HETATM   15  C   UNL     1      42.097 -17.703   4.015  1.00  0.00     0.115 C 
BRANCH  15  16
HETATM   16  C   UNL     1      42.272 -17.132   5.462  1.00  0.00    -0.001 C 
HETATM   17  C   UNL     1      40.912 -16.817   6.103  1.00  0.00     0.011 C 
BRANCH  16  18
HETATM   18  C   UNL     1      43.237 -15.926   5.546  1.00  0.00     0.001 C 
HETATM   19  C   UNL     1      44.143 -15.945   6.771  1.00  0.00     0.005 C 
ENDBRANCH  16  18
ENDBRANCH  15  16
BRANCH  15  20
HETATM   20  C   UNL     1      43.099 -18.827   3.735  1.00  0.00    -0.045 A 
HETATM   21  C   UNL     1      43.111 -19.431   2.466  1.00  0.00     0.008 A 
HETATM   22  C   UNL     1      44.021 -20.447   2.166  1.00  0.00     0.001 A 
HETATM   23  C   UNL     1      44.925 -20.878   3.132  1.00  0.00     0.000 A 
HETATM   24  C   UNL     1      44.919 -20.298   4.398  1.00  0.00     0.001 A 
HETATM   25  C   UNL     1      44.012 -19.280   4.700  1.00  0.00     0.008 A 
ENDBRANCH  15  20
ENDBRANCH  12  15
ENDBRANCH   1  11
BRANCH   8  26
HETATM   26  C   UNL     1      41.598 -14.289  -2.862  1.00  0.00     0.270 C 
HETATM   27  N   UNL     1      42.698 -13.482  -2.969  1.00  0.00    -0.365 N 
HETATM   28  H   UNL     1      42.748 -12.653  -2.387  1.00  0.00     0.159 HD
HETATM   29  H   UNL     1      43.472 -13.770  -3.547  1.00  0.00     0.159 HD
HETATM   30  O   UNL     1      41.517 -15.337  -3.494  1.00  0.00    -0.266 OA
ENDBRANCH   8  26
TORSDOF 6
ENDMDL
MODEL 3
REMARK VINA RESULT:      -8.2      2.613      8.355
REMARK  6 active torsions:
REMARK  status: ('A' for Active; 'I' for Inactive)
REMARK    1  A    between atoms: C_2  and  C_3 
REMARK    2  A    between atoms: C_3  and  C_4 
REMARK    3  A    between atoms: C_4  and  C_5 
REMARK    4  A    between atoms: C_4  and  C_21 
REMARK       I    between atoms: C_5  and  N_6 
REMARK    5  A    between atoms: N_6  and  C_7 
REMARK    6  A    between atoms: C_14  and  C_15 
REMARK       I    between atoms: C_15  and  N_16 
ROOT
HETATM    1  C   UNL     1      43.090 -17.417   2.762  1.00  0.00     0.035 A 
HETATM    2  C   UNL     1      42.984 -17.530   4.155  1.00  0.00     0.046 A 
HETATM    3  C   UNL     1      43.545 -18.651   4.804  1.00  0.00     0.030 A 
HETATM    4  C   UNL     1      44.146 -19.640   4.034  1.00  0.00     0.063 A 
HETATM    5  N   UNL     1      44.553 -20.593   4.925  1.00  0.00    -0.277 N 
HETATM    6  H   UNL     1      45.014 -21.471   4.715  1.00  0.00     0.189 HD
HETATM    7  N   UNL     1      44.323 -20.288   6.212  1.00  0.00    -0.168 NA
HETATM    8  C   UNL     1      43.709 -19.084   6.154  1.00  0.00     0.156 A 
HETATM    9  C   UNL     1      44.261 -19.561   2.645  1.00  0.00     0.034 A 
HETATM   10  C   UNL     1      43.744 -18.414   2.029  1.00  0.00     0.032 A 
ENDROOT
BRANCH   1  11
HETATM   11  N   UNL     1      42.610 -16.301   2.046  1.00  0.00    -0.327 N 
HETATM   12  C   UNL     1      41.318 -16.123   1.572  1.00  0.00     0.231 C 
HETATM   13  O   UNL     1      40.438 -16.978   1.646  1.00  0.00    -0.272 OA
HETATM   14  H   UNL     1      43.313 -15.649   1.724  1.00  0.00     0.169 HD
BRANCH  12  15
HETATM   15  C   UNL     1      41.022 -14.708   1.016  1.00  0.00     0.115 C 
BRANCH  15  16
HETATM   16  C   UNL     1      39.796 -13.983   1.665  1.00  0.00    -0.001 C 
HETATM   17  C   UNL     1      39.960 -13.870   3.189  1.00  0.00     0.011 C 
BRANCH  16  18
HETATM   18  C   UNL     1      38.430 -14.597   1.280  1.00  0.00     0.001 C 
HETATM   19  C   UNL     1      37.521 -13.648   0.510  1.00  0.00     0.005 C 
ENDBRANCH  16  18
ENDBRANCH  15  16
BRANCH  15  20
HETATM   20  C   UNL     1      40.996 -14.589  -0.511  1.00  0.00    -0.045 A 
HETATM   21  C   UNL     1      40.964 -13.312  -1.097  1.00  0.00     0.008 A 
HETATM   22  C   UNL     1      40.958 -13.163  -2.484  1.00  0.00     0.001 A 
HETATM   23  C   UNL     1      40.975 -14.286  -3.306  1.00  0.00     0.000 A 
HETATM   24  C   UNL     1      40.997 -15.559  -2.741  1.00  0.00     0.001 A 
HETATM   25  C   UNL     1      41.005 -15.712  -1.353  1.00  0.00     0.008 A 
ENDBRANCH  15  20
ENDBRANCH  12  15
ENDBRANCH   1  11
BRANCH   8  26
HETATM   26  C   UNL     1      43.328 -18.366   7.378  1.00  0.00     0.270 C 
HETATM   27  N   UNL     1      44.038 -18.738   8.488  1.00  0.00    -0.365 N 
HETATM   28  H   UNL     1      44.771 -19.429   8.382  1.00  0.00     0.159 HD
HETATM   29  H   UNL     1      43.886 -18.256   9.360  1.00  0.00     0.159 HD
HETATM   30  O   UNL     1      42.475 -17.486   7.437  1.00  0.00    -0.266 OA
ENDBRANCH   8  26
TORSDOF 6
ENDMDL
MODEL 4
REMARK VINA RESULT:      -8.2      2.613      8.068
REMARK  6 active torsions:
REMARK  status: ('A' for Active; 'I' for Inactive)
REMARK    1  A    between atoms: C_2  and  C_3 
REMARK    2  A    between atoms: C_3  and  C_4 
REMARK    3  A    between atoms: C_4  and  C_5 
REMARK    4  A    between atoms: C_4  and  C_21 
REMARK       I    between atoms: C_5  and  N_6 
REMARK    5  A    between atoms: N_6  and  C_7 
REMARK    6  A    between atoms: C_14  and  C_15 
REMARK       I    between atoms: C_15  and  N_16 
ROOT
HETATM    1  C   UNL     1      43.168 -16.980   1.433  1.00  0.00     0.035 A 
HETATM    2  C   UNL     1      43.425 -18.355   1.344  1.00  0.00     0.046 A 
HETATM    3  C   UNL     1      43.771 -19.072   2.510  1.00  0.00     0.030 A 
HETATM    4  C   UNL     1      43.896 -18.381   3.709  1.00  0.00     0.063 A 
HETATM    5  N   UNL     1      44.269 -19.320   4.630  1.00  0.00    -0.277 N 
HETATM    6  H   UNL     1      44.470 -19.170   5.612  1.00  0.00     0.189 HD
HETATM    7  N   UNL     1      44.341 -20.572   4.151  1.00  0.00    -0.168 NA
HETATM    8  C   UNL     1      44.027 -20.437   2.842  1.00  0.00     0.156 A 
HETATM    9  C   UNL     1      43.654 -17.011   3.830  1.00  0.00     0.034 A 
HETATM   10  C   UNL     1      43.261 -16.331   2.671  1.00  0.00     0.032 A 
ENDROOT
BRANCH   1  11
HETATM   11  N   UNL     1      42.759 -16.206   0.328  1.00  0.00    -0.327 N 
HETATM   12  C   UNL     1      41.500 -15.658   0.130  1.00  0.00     0.231 C 
HETATM   13  O   UNL     1      40.541 -15.861   0.872  1.00  0.00    -0.272 OA
HETATM   14  H   UNL     1      43.401 -16.181  -0.454  1.00  0.00     0.169 HD
BRANCH  12  15
HETATM   15  C   UNL     1      41.402 -14.673  -1.061  1.00  0.00     0.115 C 
BRANCH  15  16
HETATM   16  C   UNL     1      41.537 -13.160  -0.685  1.00  0.00    -0.001 C 
HETATM   17  C   UNL     1      42.481 -12.429  -1.652  1.00  0.00     0.011 C 
BRANCH  16  18
HETATM   18  C   UNL     1      41.927 -12.914   0.791  1.00  0.00     0.001 C 
HETATM   19  C   UNL     1      40.807 -12.316   1.634  1.00  0.00     0.005 C 
ENDBRANCH  16  18
ENDBRANCH  15  16
BRANCH  15  20
HETATM   20  C   UNL     1      40.229 -14.908  -2.019  1.00  0.00    -0.045 A 
HETATM   21  C   UNL     1      40.359 -15.869  -3.036  1.00  0.00     0.008 A 
HETATM   22  C   UNL     1      39.307 -16.123  -3.917  1.00  0.00     0.001 A 
HETATM   23  C   UNL     1      38.113 -15.417  -3.798  1.00  0.00     0.000 A 
HETATM   24  C   UNL     1      37.972 -14.454  -2.803  1.00  0.00     0.001 A 
HETATM   25  C   UNL     1      39.023 -14.198  -1.918  1.00  0.00     0.008 A 
ENDBRANCH  15  20
ENDBRANCH  12  15
ENDBRANCH   1  11
BRANCH   8  26
HETATM   26  C   UNL     1      43.943 -21.606   1.955  1.00  0.00     0.270 C 
HETATM   27  N   UNL     1      42.683 -21.859   1.483  1.00  0.00    -0.365 N 
HETATM   28  H   UNL     1      41.935 -21.226   1.742  1.00  0.00     0.159 HD
HETATM   29  H   UNL     1      42.541 -22.605   0.822  1.00  0.00     0.159 HD
HETATM   30  O   UNL     1      44.896 -22.301   1.621  1.00  0.00    -0.266 OA
ENDBRANCH   8  26
TORSDOF 6
ENDMDL
MODEL 5
REMARK VINA RESULT:      -8.1      2.876      8.242
REMARK  6 active torsions:
REMARK  status: ('A' for Active; 'I' for Inactive)
REMARK    1  A    between atoms: C_2  and  C_3 
REMARK    2  A    between atoms: C_3  and  C_4 
REMARK    3  A    between atoms: C_4  and  C_5 
REMARK    4  A    between atoms: C_4  and  C_21 
REMARK       I    between atoms: C_5  and  N_6 
REMARK    5  A    between atoms: N_6  and  C_7 
REMARK    6  A    between atoms: C_14  and  C_15 
REMARK       I    between atoms: C_15  and  N_16 
ROOT
HETATM    1  C   UNL     1      43.169 -17.654   2.953  1.00  0.00     0.035 A 
HETATM    2  C   UNL     1      43.224 -18.052   4.296  1.00  0.00     0.046 A 
HETATM    3  C   UNL     1      43.828 -19.284   4.629  1.00  0.00     0.030 A 
HETATM    4  C   UNL     1      44.308 -20.093   3.606  1.00  0.00     0.063 A 
HETATM    5  N   UNL     1      44.792 -21.210   4.226  1.00  0.00    -0.277 N 
HETATM    6  H   UNL     1      45.202 -22.027   3.787  1.00  0.00     0.189 HD
HETATM    7  N   UNL     1      44.724 -21.177   5.567  1.00  0.00    -0.168 NA
HETATM    8  C   UNL     1      44.138 -19.987   5.832  1.00  0.00     0.156 A 
HETATM    9  C   UNL     1      44.261 -19.729   2.258  1.00  0.00     0.034 A 
HETATM   10  C   UNL     1      43.706 -18.479   1.958  1.00  0.00     0.032 A 
ENDROOT
BRANCH   1  11
HETATM   11  N   UNL     1      42.637 -16.414   2.545  1.00  0.00    -0.327 N 
HETATM   12  C   UNL     1      41.313 -16.154   2.219  1.00  0.00     0.231 C 
HETATM   13  O   UNL     1      40.441 -17.018   2.163  1.00  0.00    -0.272 OA
HETATM   14  H   UNL     1      43.315 -15.695   2.326  1.00  0.00     0.169 HD
BRANCH  12  15
HETATM   15  C   UNL     1      40.977 -14.655   2.020  1.00  0.00     0.115 C 
BRANCH  15  16
HETATM   16  C   UNL     1      40.754 -13.843   3.339  1.00  0.00    -0.001 C 
HETATM   17  C   UNL     1      41.981 -12.983   3.677  1.00  0.00     0.011 C 
BRANCH  16  18
HETATM   18  C   UNL     1      40.314 -14.711   4.541  1.00  0.00     0.001 C 
HETATM   19  C   UNL     1      40.177 -13.936   5.846  1.00  0.00     0.005 C 
ENDBRANCH  16  18
ENDBRANCH  15  16
BRANCH  15  20
HETATM   20  C   UNL     1      39.886 -14.354   0.988  1.00  0.00    -0.045 A 
HETATM   21  C   UNL     1      38.554 -14.227   1.418  1.00  0.00     0.008 A 
HETATM   22  C   UNL     1      37.535 -13.936   0.510  1.00  0.00     0.001 A 
HETATM   23  C   UNL     1      37.830 -13.775  -0.841  1.00  0.00     0.000 A 
HETATM   24  C   UNL     1      39.143 -13.908  -1.285  1.00  0.00     0.001 A 
HETATM   25  C   UNL     1      40.166 -14.197  -0.379  1.00  0.00     0.008 A 
ENDBRANCH  15  20
ENDBRANCH  12  15
ENDBRANCH   1  11
BRANCH   8  26
HETATM   26  C   UNL     1      43.923 -19.536   7.214  1.00  0.00     0.270 C 
HETATM   27  N   UNL     1      43.552 -20.534   8.075  1.00  0.00    -0.365 N 
HETATM   28  H   UNL     1      43.490 -21.480   7.718  1.00  0.00     0.159 HD
HETATM   29  H   UNL     1      43.440 -20.329   9.055  1.00  0.00     0.159 HD
HETATM   30  O   UNL     1      44.077 -18.385   7.607  1.00  0.00    -0.266 OA
ENDBRANCH   8  26
TORSDOF 6
ENDMDL
MODEL 6
REMARK VINA RESULT:      -8.0      3.024      5.267
REMARK  6 active torsions:
REMARK  status: ('A' for Active; 'I' for Inactive)
REMARK    1  A    between atoms: C_2  and  C_3 
REMARK    2  A    between atoms: C_3  and  C_4 
REMARK    3  A    between atoms: C_4  and  C_5 
REMARK    4  A    between atoms: C_4  and  C_21 
REMARK       I    between atoms: C_5  and  N_6 
REMARK    5  A    between atoms: N_6  and  C_7 
REMARK    6  A    between atoms: C_14  and  C_15 
REMARK       I    between atoms: C_15  and  N_16 
ROOT
HETATM    1  C   UNL     1      39.893 -14.987   3.100  1.00  0.00     0.035 A 
HETATM    2  C   UNL     1      39.824 -13.716   3.686  1.00  0.00     0.046 A 
HETATM    3  C   UNL     1      39.081 -12.699   3.049  1.00  0.00     0.030 A 
HETATM    4  C   UNL     1      38.477 -12.975   1.828  1.00  0.00     0.063 A 
HETATM    5  N   UNL     1      37.875 -11.808   1.451  1.00  0.00    -0.277 N 
HETATM    6  H   UNL     1      37.355 -11.634   0.598  1.00  0.00     0.189 HD
HETATM    7  N   UNL     1      37.982 -10.811   2.344  1.00  0.00    -0.168 NA
HETATM    8  C   UNL     1      38.718 -11.350   3.343  1.00  0.00     0.156 A 
HETATM    9  C   UNL     1      38.533 -14.229   1.215  1.00  0.00     0.034 A 
HETATM   10  C   UNL     1      39.231 -15.236   1.892  1.00  0.00     0.032 A 
ENDROOT
BRANCH   1  11
HETATM   11  N   UNL     1      40.563 -16.072   3.703  1.00  0.00    -0.327 N 
HETATM   12  C   UNL     1      41.898 -16.410   3.531  1.00  0.00     0.231 C 
HETATM   13  O   UNL     1      42.652 -15.841   2.746  1.00  0.00    -0.272 OA
HETATM   14  H   UNL     1      39.975 -16.743   4.179  1.00  0.00     0.169 HD
BRANCH  12  15
HETATM   15  C   UNL     1      42.414 -17.515   4.487  1.00  0.00     0.115 C 
BRANCH  15  16
HETATM   16  C   UNL     1      43.147 -16.996   5.768  1.00  0.00    -0.001 C 
HETATM   17  C   UNL     1      42.329 -17.291   7.035  1.00  0.00     0.011 C 
BRANCH  16  18
HETATM   18  C   UNL     1      43.566 -15.509   5.691  1.00  0.00     0.001 C 
HETATM   19  C   UNL     1      44.337 -15.020   6.911  1.00  0.00     0.005 C 
ENDBRANCH  16  18
ENDBRANCH  15  16
BRANCH  15  20
HETATM   20  C   UNL     1      43.192 -18.654   3.821  1.00  0.00    -0.045 A 
HETATM   21  C   UNL     1      44.224 -19.285   4.536  1.00  0.00     0.008 A 
HETATM   22  C   UNL     1      44.945 -20.338   3.970  1.00  0.00     0.001 A 
HETATM   23  C   UNL     1      44.650 -20.770   2.680  1.00  0.00     0.000 A 
HETATM   24  C   UNL     1      43.637 -20.148   1.954  1.00  0.00     0.001 A 
HETATM   25  C   UNL     1      42.913 -19.095   2.518  1.00  0.00     0.008 A 
ENDBRANCH  15  20
ENDBRANCH  12  15
ENDBRANCH   1  11
BRANCH   8  26
HETATM   26  C   UNL     1      39.024 -10.585   4.560  1.00  0.00     0.270 C 
HETATM   27  N   UNL     1      39.548  -9.343   4.321  1.00  0.00    -0.365 N 
HETATM   28  H   UNL     1      39.650  -9.039   3.360  1.00  0.00     0.159 HD
HETATM   29  H   UNL     1      39.734  -8.725   5.094  1.00  0.00     0.159 HD
HETATM   30  O   UNL     1      38.819 -10.976   5.704  1.00  0.00    -0.266 OA
ENDBRANCH   8  26
TORSDOF 6
ENDMDL
MODEL 7
REMARK VINA RESULT:      -7.9      2.373      8.293
REMARK  6 active torsions:
REMARK  status: ('A' for Active; 'I' for Inactive)
REMARK    1  A    between atoms: C_2  and  C_3 
REMARK    2  A    between atoms: C_3  and  C_4 
REMARK    3  A    between atoms: C_4  and  C_5 
REMARK    4  A    between atoms: C_4  and  C_21 
REMARK       I    between atoms: C_5  and  N_6 
REMARK    5  A    between atoms: N_6  and  C_7 
REMARK    6  A    between atoms: C_14  and  C_15 
REMARK       I    between atoms: C_15  and  N_16 
ROOT
HETATM    1  C   UNL     1      43.325 -17.329   2.108  1.00  0.00     0.035 A 
HETATM    2  C   UNL     1      43.326 -17.125   3.494  1.00  0.00     0.046 A 
HETATM    3  C   UNL     1      43.768 -18.160   4.346  1.00  0.00     0.030 A 
HETATM    4  C   UNL     1      44.145 -19.375   3.785  1.00  0.00     0.063 A 
HETATM    5  N   UNL     1      44.481 -20.172   4.843  1.00  0.00    -0.277 N 
HETATM    6  H   UNL     1      44.786 -21.138   4.810  1.00  0.00     0.189 HD
HETATM    7  N   UNL     1      44.414 -19.568   6.040  1.00  0.00    -0.168 NA
HETATM    8  C   UNL     1      43.983 -18.319   5.749  1.00  0.00     0.156 A 
HETATM    9  C   UNL     1      44.148 -19.612   2.409  1.00  0.00     0.034 A 
HETATM   10  C   UNL     1      43.756 -18.553   1.582  1.00  0.00     0.032 A 
ENDROOT
BRANCH   1  11
HETATM   11  N   UNL     1      42.956 -16.326   1.188  1.00  0.00    -0.327 N 
HETATM   12  C   UNL     1      41.662 -15.982   0.823  1.00  0.00     0.231 C 
HETATM   13  O   UNL     1      40.661 -16.584   1.203  1.00  0.00    -0.272 OA
HETATM   14  H   UNL     1      43.710 -15.934   0.638  1.00  0.00     0.169 HD
BRANCH  12  15
HETATM   15  C   UNL     1      41.552 -14.699  -0.039  1.00  0.00     0.115 C 
BRANCH  15  16
HETATM   16  C   UNL     1      41.336 -13.375   0.767  1.00  0.00    -0.001 C 
HETATM   17  C   UNL     1      42.173 -12.227   0.182  1.00  0.00     0.011 C 
BRANCH  16  18
HETATM   18  C   UNL     1      41.556 -13.525   2.290  1.00  0.00     0.001 C 
HETATM   19  C   UNL     1      40.272 -13.457   3.109  1.00  0.00     0.005 C 
ENDBRANCH  16  18
ENDBRANCH  15  16
BRANCH  15  20
HETATM   20  C   UNL     1      40.600 -14.786  -1.235  1.00  0.00    -0.045 A 
HETATM   21  C   UNL     1      40.935 -15.619  -2.316  1.00  0.00     0.008 A 
HETATM   22  C   UNL     1      40.084 -15.738  -3.417  1.00  0.00     0.001 A 
HETATM   23  C   UNL     1      38.892 -15.022  -3.456  1.00  0.00     0.000 A 
HETATM   24  C   UNL     1      38.549 -14.185  -2.398  1.00  0.00     0.001 A 
HETATM   25  C   UNL     1      39.397 -14.064  -1.294  1.00  0.00     0.008 A 
ENDBRANCH  15  20
ENDBRANCH  12  15
ENDBRANCH   1  11
BRANCH   8  26
HETATM   26  C   UNL     1      43.823 -17.304   6.800  1.00  0.00     0.270 C 
HETATM   27  N   UNL     1      43.107 -17.734   7.885  1.00  0.00    -0.365 N 
HETATM   28  H   UNL     1      42.782 -18.694   7.900  1.00  0.00     0.159 HD
HETATM   29  H   UNL     1      42.997 -17.125   8.680  1.00  0.00     0.159 HD
HETATM   30  O   UNL     1      44.295 -16.173   6.760  1.00  0.00    -0.266 OA
ENDBRANCH   8  26
TORSDOF 6
ENDMDL
MODEL 8
REMARK VINA RESULT:      -7.9      3.007      7.521
REMARK  6 active torsions:
REMARK  status: ('A' for Active; 'I' for Inactive)
REMARK    1  A    between atoms: C_2  and  C_3 
REMARK    2  A    between atoms: C_3  and  C_4 
REMARK    3  A    between atoms: C_4  and  C_5 
REMARK    4  A    between atoms: C_4  and  C_21 
REMARK       I    between atoms: C_5  and  N_6 
REMARK    5  A    between atoms: N_6  and  C_7 
REMARK    6  A    between atoms: C_14  and  C_15 
REMARK       I    between atoms: C_15  and  N_16 
ROOT
HETATM    1  C   UNL     1      42.486 -17.314   3.223  1.00  0.00     0.035 A 
HETATM    2  C   UNL     1      42.676 -17.881   4.490  1.00  0.00     0.046 A 
HETATM    3  C   UNL     1      43.558 -18.974   4.635  1.00  0.00     0.030 A 
HETATM    4  C   UNL     1      44.177 -19.490   3.503  1.00  0.00     0.063 A 
HETATM    5  N   UNL     1      44.925 -20.543   3.949  1.00  0.00    -0.277 N 
HETATM    6  H   UNL     1      45.497 -21.168   3.392  1.00  0.00     0.189 HD
HETATM    7  N   UNL     1      44.896 -20.724   5.279  1.00  0.00    -0.168 NA
HETATM    8  C   UNL     1      44.062 -19.754   5.719  1.00  0.00     0.156 A 
HETATM    9  C   UNL     1      44.003 -18.953   2.225  1.00  0.00     0.034 A 
HETATM   10  C   UNL     1      43.165 -17.836   2.115  1.00  0.00     0.032 A 
ENDROOT
BRANCH   1  11
HETATM   11  N   UNL     1      41.670 -16.185   3.005  1.00  0.00    -0.327 N 
HETATM   12  C   UNL     1      40.394 -16.186   2.460  1.00  0.00     0.231 C 
HETATM   13  O   UNL     1      39.843 -17.189   2.011  1.00  0.00    -0.272 OA
HETATM   14  H   UNL     1      42.122 -15.287   3.117  1.00  0.00     0.169 HD
BRANCH  12  15
HETATM   15  C   UNL     1      39.652 -14.829   2.544  1.00  0.00     0.115 C 
BRANCH  15  16
HETATM   16  C   UNL     1      39.484 -14.078   1.181  1.00  0.00    -0.001 C 
HETATM   17  C   UNL     1      38.014 -14.057   0.736  1.00  0.00     0.011 C 
BRANCH  16  18
HETATM   18  C   UNL     1      40.414 -14.599   0.061  1.00  0.00     0.001 C 
HETATM   19  C   UNL     1      41.637 -13.723  -0.185  1.00  0.00     0.005 C 
ENDBRANCH  16  18
ENDBRANCH  15  16
BRANCH  15  20
HETATM   20  C   UNL     1      40.130 -13.882   3.648  1.00  0.00    -0.045 A 
HETATM   21  C   UNL     1      40.870 -12.740   3.296  1.00  0.00     0.008 A 
HETATM   22  C   UNL     1      41.309 -11.844   4.272  1.00  0.00     0.001 A 
HETATM   23  C   UNL     1      41.021 -12.079   5.613  1.00  0.00     0.000 A 
HETATM   24  C   UNL     1      40.298 -13.211   5.980  1.00  0.00     0.001 A 
HETATM   25  C   UNL     1      39.856 -14.109   5.006  1.00  0.00     0.008 A 
ENDBRANCH  15  20
ENDBRANCH  12  15
ENDBRANCH   1  11
BRANCH   8  26
HETATM   26  C   UNL     1      43.795 -19.573   7.153  1.00  0.00     0.270 C 
HETATM   27  N   UNL     1      43.492 -20.733   7.814  1.00  0.00    -0.365 N 
HETATM   28  H   UNL     1      43.508 -21.603   7.295  1.00  0.00     0.159 HD
HETATM   29  H   UNL     1      43.352 -20.714   8.812  1.00  0.00     0.159 HD
HETATM   30  O   UNL     1      43.854 -18.503   7.747  1.00  0.00    -0.266 OA
ENDBRANCH   8  26
TORSDOF 6
ENDMDL
MODEL 9
REMARK VINA RESULT:      -7.8      2.152      3.846
REMARK  6 active torsions:
REMARK  status: ('A' for Active; 'I' for Inactive)
REMARK    1  A    between atoms: C_2  and  C_3 
REMARK    2  A    between atoms: C_3  and  C_4 
REMARK    3  A    between atoms: C_4  and  C_5 
REMARK    4  A    between atoms: C_4  and  C_21 
REMARK       I    between atoms: C_5  and  N_6 
REMARK    5  A    between atoms: N_6  and  C_7 
REMARK    6  A    between atoms: C_14  and  C_15 
REMARK       I    between atoms: C_15  and  N_16 
ROOT
HETATM    1  C   UNL     1      39.709 -14.705   0.981  1.00  0.00     0.035 A 
HETATM    2  C   UNL     1      40.399 -14.507  -0.223  1.00  0.00     0.046 A 
HETATM    3  C   UNL     1      39.727 -13.919  -1.317  1.00  0.00     0.030 A 
HETATM    4  C   UNL     1      38.381 -13.599  -1.184  1.00  0.00     0.063 A 
HETATM    5  N   UNL     1      38.009 -13.092  -2.397  1.00  0.00    -0.277 N 
HETATM    6  H   UNL     1      37.086 -12.772  -2.671  1.00  0.00     0.189 HD
HETATM    7  N   UNL     1      39.005 -12.999  -3.292  1.00  0.00    -0.168 NA
HETATM    8  C   UNL     1      40.077 -13.498  -2.636  1.00  0.00     0.156 A 
HETATM    9  C   UNL     1      37.664 -13.791  -0.001  1.00  0.00     0.034 A 
HETATM   10  C   UNL     1      38.366 -14.325   1.087  1.00  0.00     0.032 A 
ENDROOT
BRANCH   1  11
HETATM   11  N   UNL     1      40.324 -15.228   2.137  1.00  0.00    -0.327 N 
HETATM   12  C   UNL     1      40.524 -16.571   2.424  1.00  0.00     0.231 C 
HETATM   13  O   UNL     1      40.100 -17.491   1.727  1.00  0.00    -0.272 OA
HETATM   14  H   UNL     1      40.493 -14.567   2.884  1.00  0.00     0.169 HD
BRANCH  12  15
HETATM   15  C   UNL     1      41.421 -16.843   3.658  1.00  0.00     0.115 C 
BRANCH  15  16
HETATM   16  C   UNL     1      41.949 -15.565   4.390  1.00  0.00    -0.001 C 
HETATM   17  C   UNL     1      43.394 -15.246   3.978  1.00  0.00     0.011 C 
BRANCH  16  18
HETATM   18  C   UNL     1      41.790 -15.613   5.927  1.00  0.00     0.001 C 
HETATM   19  C   UNL     1      40.661 -16.520   6.403  1.00  0.00     0.005 C 
ENDBRANCH  16  18
ENDBRANCH  15  16
BRANCH  15  20
HETATM   20  C   UNL     1      42.539 -17.869   3.449  1.00  0.00    -0.045 A 
HETATM   21  C   UNL     1      43.019 -18.591   4.555  1.00  0.00     0.008 A 
HETATM   22  C   UNL     1      44.025 -19.547   4.402  1.00  0.00     0.001 A 
HETATM   23  C   UNL     1      44.570 -19.789   3.145  1.00  0.00     0.000 A 
HETATM   24  C   UNL     1      44.113 -19.075   2.041  1.00  0.00     0.001 A 
HETATM   25  C   UNL     1      43.105 -18.119   2.189  1.00  0.00     0.008 A 
ENDBRANCH  15  20
ENDBRANCH  12  15
ENDBRANCH   1  11
BRANCH   8  26
HETATM   26  C   UNL     1      41.406 -13.528  -3.262  1.00  0.00     0.270 C 
HETATM   27  N   UNL     1      41.976 -14.773  -3.302  1.00  0.00    -0.365 N 
HETATM   28  H   UNL     1      41.446 -15.558  -2.943  1.00  0.00     0.159 HD
HETATM   29  H   UNL     1      42.861 -14.899  -3.766  1.00  0.00     0.159 HD
HETATM   30  O   UNL     1      41.977 -12.555  -3.742  1.00  0.00    -0.266 OA
ENDBRANCH   8  26
TORSDOF 6
ENDMDL
MODEL 10
REMARK VINA RESULT:      -7.7      2.003      3.992
REMARK  6 active torsions:
REMARK  status: ('A' for Active; 'I' for Inactive)
REMARK    1  A    between atoms: C_2  and  C_3 
REMARK    2  A    between atoms: C_3  and  C_4 
REMARK    3  A    between atoms: C_4  and  C_5 
REMARK    4  A    between atoms: C_4  and  C_21 
REMARK       I    between atoms: C_5  and  N_6 
REMARK    5  A    between atoms: N_6  and  C_7 
REMARK    6  A    between atoms: C_14  and  C_15 
REMARK       I    between atoms: C_15  and  N_16 
ROOT
HETATM    1  C   UNL     1      40.157 -14.764   3.583  1.00  0.00     0.035 A 
HETATM    2  C   UNL     1      39.815 -14.681   2.227  1.00  0.00     0.046 A 
HETATM    3  C   UNL     1      39.234 -13.495   1.730  1.00  0.00     0.030 A 
HETATM    4  C   UNL     1      38.970 -12.456   2.616  1.00  0.00     0.063 A 
HETATM    5  N   UNL     1      38.385 -11.479   1.861  1.00  0.00    -0.277 N 
HETATM    6  H   UNL     1      38.041 -10.580   2.181  1.00  0.00     0.189 HD
HETATM    7  N   UNL     1      38.296 -11.763   0.552  1.00  0.00    -0.168 NA
HETATM    8  C   UNL     1      38.826 -13.004   0.453  1.00  0.00     0.156 A 
HETATM    9  C   UNL     1      39.292 -12.510   3.973  1.00  0.00     0.034 A 
HETATM   10  C   UNL     1      39.917 -13.676   4.432  1.00  0.00     0.032 A 
ENDROOT
BRANCH   1  11
HETATM   11  N   UNL     1      40.796 -15.889   4.144  1.00  0.00    -0.327 N 
HETATM   12  C   UNL     1      42.149 -16.188   4.071  1.00  0.00     0.231 C 
HETATM   13  O   UNL     1      42.959 -15.534   3.418  1.00  0.00    -0.272 OA
HETATM   14  H   UNL     1      40.183 -16.613   4.496  1.00  0.00     0.169 HD
BRANCH  12  15
HETATM   15  C   UNL     1      42.601 -17.370   4.964  1.00  0.00     0.115 C 
BRANCH  15  16
HETATM   16  C   UNL     1      43.353 -16.962   6.275  1.00  0.00    -0.001 C 
HETATM   17  C   UNL     1      42.844 -17.768   7.480  1.00  0.00     0.011 C 
BRANCH  16  18
HETATM   18  C   UNL     1      43.340 -15.442   6.557  1.00  0.00     0.001 C 
HETATM   19  C   UNL     1      44.725 -14.843   6.777  1.00  0.00     0.005 C 
ENDBRANCH  16  18
ENDBRANCH  15  16
BRANCH  15  20
HETATM   20  C   UNL     1      43.323 -18.509   4.238  1.00  0.00    -0.045 A 
HETATM   21  C   UNL     1      42.926 -18.848   2.933  1.00  0.00     0.008 A 
HETATM   22  C   UNL     1      43.571 -19.868   2.232  1.00  0.00     0.001 A 
HETATM   23  C   UNL     1      44.617 -20.568   2.827  1.00  0.00     0.000 A 
HETATM   24  C   UNL     1      45.016 -20.252   4.123  1.00  0.00     0.001 A 
HETATM   25  C   UNL     1      44.373 -19.230   4.827  1.00  0.00     0.008 A 
ENDBRANCH  15  20
ENDBRANCH  12  15
ENDBRANCH   1  11
BRANCH   8  26
HETATM   26  C   UNL     1      38.963 -13.671  -0.849  1.00  0.00     0.270 C 
HETATM   27  N   UNL     1      37.875 -14.420  -1.209  1.00  0.00    -0.365 N 
HETATM   28  H   UNL     1      37.071 -14.430  -0.592  1.00  0.00     0.159 HD
HETATM   29  H   UNL     1      37.855 -14.866  -2.112  1.00  0.00     0.159 HD
HETATM   30  O   UNL     1      39.935 -13.571  -1.589  1.00  0.00    -0.266 OA
ENDBRANCH   8  26
TORSDOF 6
ENDMDL
