MODEL 1
REMARK VINA RESULT:      -7.6      0.000      0.000
REMARK  5 active torsions:
REMARK  status: ('A' for Active; 'I' for Inactive)
REMARK    1  A    between atoms: C_4  and  C_5 
REMARK       I    between atoms: C_5  and  N_6 
REMARK    2  A    between atoms: N_6  and  C_7 
REMARK    3  A    between atoms: C_7  and  C_8 
REMARK    4  A    between atoms: C_8  and  C_9 
REMARK    5  A    between atoms: C_18  and  O_19 
ROOT
HETATM    1  C   UNL     1      41.140 -15.821   0.430  1.00  0.00     0.254 C 
HETATM    2  N   UNL     1      41.836 -17.006   0.466  1.00  0.00    -0.356 N 
HETATM    3  O   UNL     1      40.403 -15.465   1.345  1.00  0.00    -0.268 OA
HETATM    4  H   UNL     1      42.532 -17.151  -0.263  1.00  0.00     0.162 HD
ENDROOT
BRANCH   2   5
HETATM    5  C   UNL     1      41.853 -17.849   1.645  1.00  0.00     0.136 C 
BRANCH   5   6
HETATM    6  C   UNL     1      43.236 -17.896   2.359  1.00  0.00    -0.004 C 
HETATM    7  C   UNL     1      44.282 -17.236   1.432  1.00  0.00     0.021 C 
HETATM    8  C   UNL     1      43.142 -17.023   3.633  1.00  0.00     0.021 C 
BRANCH   6   9
HETATM    9  C   UNL     1      43.681 -19.345   2.635  1.00  0.00    -0.046 A 
HETATM   10  C   UNL     1      44.342 -19.673   3.830  1.00  0.00     0.027 A 
HETATM   11  C   UNL     1      44.740 -20.983   4.058  1.00  0.00     0.116 A 
HETATM   12  N   UNL     1      44.527 -21.994   3.194  1.00  0.00    -0.273 NA
HETATM   13  C   UNL     1      43.879 -21.677   2.056  1.00  0.00     0.116 A 
HETATM   14  C   UNL     1      43.446 -20.396   1.738  1.00  0.00     0.027 A 
ENDBRANCH   6   9
ENDBRANCH   5   6
ENDBRANCH   2   5
BRANCH   1  15
HETATM   15  C   UNL     1      41.323 -14.956  -0.781  1.00  0.00     0.065 A 
HETATM   16  C   UNL     1      41.983 -13.728  -0.591  1.00  0.00     0.026 A 
HETATM   17  C   UNL     1      42.199 -12.845  -1.659  1.00  0.00    -0.061 A 
HETATM   18  C   UNL     1      42.924 -11.549  -1.449  1.00  0.00     0.048 C 
HETATM   19  C   UNL     1      41.758 -13.203  -2.936  1.00  0.00     0.009 A 
HETATM   20  C   UNL     1      41.106 -14.420  -3.144  1.00  0.00     0.038 A 
HETATM   21  C   UNL     1      40.893 -15.294  -2.074  1.00  0.00     0.081 A 
BRANCH  21  22
HETATM   22  O   UNL     1      40.263 -16.488  -2.319  1.00  0.00    -0.360 OA
HETATM   23  H   UNL     1      40.162 -16.600  -3.281  1.00  0.00     0.217 HD
ENDBRANCH  21  22
ENDBRANCH   1  15
TORSDOF 5
ENDMDL
MODEL 2
REMARK VINA RESULT:      -7.5      3.887      6.932
REMARK  5 active torsions:
REMARK  status: ('A' for Active; 'I' for Inactive)
REMARK    1  A    between atoms: C_4  and  C_5 
REMARK       I    between atoms: C_5  and  N_6 
REMARK    2  A    between atoms: N_6  and  C_7 
REMARK    3  A    between atoms: C_7  and  C_8 
REMARK    4  A    between atoms: C_8  and  C_9 
REMARK    5  A    between atoms: C_18  and  O_19 
ROOT
HETATM    1  C   UNL     1      43.573 -17.340   2.649  1.00  0.00     0.254 C 
HETATM    2  N   UNL     1      42.496 -16.785   3.295  1.00  0.00    -0.356 N 
HETATM    3  O   UNL     1      44.216 -16.728   1.800  1.00  0.00    -0.268 OA
HETATM    4  H   UNL     1      42.115 -17.306   4.084  1.00  0.00     0.162 HD
ENDROOT
BRANCH   2   5
HETATM    5  C   UNL     1      42.130 -15.393   3.118  1.00  0.00     0.136 C 
BRANCH   5   6
HETATM    6  C   UNL     1      41.738 -14.677   4.443  1.00  0.00    -0.004 C 
HETATM    7  C   UNL     1      42.301 -13.238   4.401  1.00  0.00     0.021 C 
HETATM    8  C   UNL     1      40.195 -14.560   4.482  1.00  0.00     0.021 C 
BRANCH   6   9
HETATM    9  C   UNL     1      42.332 -15.392   5.672  1.00  0.00    -0.046 A 
HETATM   10  C   UNL     1      43.543 -14.957   6.236  1.00  0.00     0.027 A 
HETATM   11  C   UNL     1      44.064 -15.618   7.339  1.00  0.00     0.116 A 
HETATM   12  N   UNL     1      43.473 -16.675   7.930  1.00  0.00    -0.273 NA
HETATM   13  C   UNL     1      42.305 -17.080   7.394  1.00  0.00     0.116 A 
HETATM   14  C   UNL     1      41.708 -16.485   6.289  1.00  0.00     0.027 A 
ENDBRANCH   6   9
ENDBRANCH   5   6
ENDBRANCH   2   5
BRANCH   1  15
HETATM   15  C   UNL     1      43.954 -18.740   3.029  1.00  0.00     0.065 A 
HETATM   16  C   UNL     1      43.802 -19.731   2.042  1.00  0.00     0.026 A 
HETATM   17  C   UNL     1      44.126 -21.071   2.300  1.00  0.00    -0.061 A 
HETATM   18  C   UNL     1      43.982 -22.114   1.232  1.00  0.00     0.048 C 
HETATM   19  C   UNL     1      44.618 -21.420   3.561  1.00  0.00     0.009 A 
HETATM   20  C   UNL     1      44.780 -20.449   4.551  1.00  0.00     0.038 A 
HETATM   21  C   UNL     1      44.453 -19.115   4.286  1.00  0.00     0.081 A 
BRANCH  21  22
HETATM   22  O   UNL     1      44.640 -18.187   5.279  1.00  0.00    -0.360 OA
HETATM   23  H   UNL     1      45.564 -18.232   5.584  1.00  0.00     0.217 HD
ENDBRANCH  21  22
ENDBRANCH   1  15
TORSDOF 5
ENDMDL
MODEL 3
REMARK VINA RESULT:      -7.4      2.390      7.580
REMARK  5 active torsions:
REMARK  status: ('A' for Active; 'I' for Inactive)
REMARK    1  A    between atoms: C_4  and  C_5 
REMARK       I    between atoms: C_5  and  N_6 
REMARK    2  A    between atoms: N_6  and  C_7 
REMARK    3  A    between atoms: C_7  and  C_8 
REMARK    4  A    between atoms: C_8  and  C_9 
REMARK    5  A    between atoms: C_18  and  O_19 
ROOT
HETATM    1  C   UNL     1      43.161 -17.347   3.423  1.00  0.00     0.254 C 
HETATM    2  N   UNL     1      43.180 -16.835   2.147  1.00  0.00    -0.356 N 
HETATM    3  O   UNL     1      42.662 -16.740   4.366  1.00  0.00    -0.268 OA
HETATM    4  H   UNL     1      43.479 -17.465   1.405  1.00  0.00     0.162 HD
ENDROOT
BRANCH   2   5
HETATM    5  C   UNL     1      42.492 -15.606   1.806  1.00  0.00     0.136 C 
BRANCH   5   6
HETATM    6  C   UNL     1      41.208 -15.825   0.953  1.00  0.00    -0.004 C 
HETATM    7  C   UNL     1      41.039 -17.344   0.716  1.00  0.00     0.021 C 
HETATM    8  C   UNL     1      39.995 -15.359   1.793  1.00  0.00     0.021 C 
BRANCH   6   9
HETATM    9  C   UNL     1      41.312 -15.131  -0.418  1.00  0.00    -0.046 A 
HETATM   10  C   UNL     1      40.993 -15.825  -1.597  1.00  0.00     0.027 A 
HETATM   11  C   UNL     1      41.098 -15.182  -2.823  1.00  0.00     0.116 A 
HETATM   12  N   UNL     1      41.490 -13.902  -2.968  1.00  0.00    -0.273 NA
HETATM   13  C   UNL     1      41.780 -13.236  -1.833  1.00  0.00     0.116 A 
HETATM   14  C   UNL     1      41.709 -13.794  -0.563  1.00  0.00     0.027 A 
ENDBRANCH   6   9
ENDBRANCH   5   6
ENDBRANCH   2   5
BRANCH   1  15
HETATM   15  C   UNL     1      43.770 -18.702   3.626  1.00  0.00     0.065 A 
HETATM   16  C   UNL     1      43.645 -19.621   2.568  1.00  0.00     0.026 A 
HETATM   17  C   UNL     1      44.176 -20.915   2.661  1.00  0.00    -0.061 A 
HETATM   18  C   UNL     1      44.057 -21.878   1.518  1.00  0.00     0.048 C 
HETATM   19  C   UNL     1      44.850 -21.290   3.827  1.00  0.00     0.009 A 
HETATM   20  C   UNL     1      44.988 -20.390   4.885  1.00  0.00     0.038 A 
HETATM   21  C   UNL     1      44.455 -19.101   4.785  1.00  0.00     0.081 A 
BRANCH  21  22
HETATM   22  O   UNL     1      44.624 -18.239   5.839  1.00  0.00    -0.360 OA
HETATM   23  H   UNL     1      44.880 -18.750   6.626  1.00  0.00     0.217 HD
ENDBRANCH  21  22
ENDBRANCH   1  15
TORSDOF 5
ENDMDL
MODEL 4
REMARK VINA RESULT:      -7.4      3.339      4.622
REMARK  5 active torsions:
REMARK  status: ('A' for Active; 'I' for Inactive)
REMARK    1  A    between atoms: C_4  and  C_5 
REMARK       I    between atoms: C_5  and  N_6 
REMARK    2  A    between atoms: N_6  and  C_7 
REMARK    3  A    between atoms: C_7  and  C_8 
REMARK    4  A    between atoms: C_8  and  C_9 
REMARK    5  A    between atoms: C_18  and  O_19 
ROOT
HETATM    1  C   UNL     1      41.252 -15.865   4.479  1.00  0.00     0.254 C 
HETATM    2  N   UNL     1      42.252 -16.124   3.573  1.00  0.00    -0.356 N 
HETATM    3  O   UNL     1      40.980 -16.636   5.395  1.00  0.00    -0.268 OA
HETATM    4  H   UNL     1      42.505 -15.368   2.940  1.00  0.00     0.162 HD
ENDROOT
BRANCH   2   5
HETATM    5  C   UNL     1      43.142 -17.259   3.718  1.00  0.00     0.136 C 
BRANCH   5   6
HETATM    6  C   UNL     1      43.304 -18.097   2.416  1.00  0.00    -0.004 C 
HETATM    7  C   UNL     1      41.930 -18.164   1.709  1.00  0.00     0.021 C 
HETATM    8  C   UNL     1      44.262 -17.328   1.474  1.00  0.00     0.021 C 
BRANCH   6   9
HETATM    9  C   UNL     1      43.762 -19.536   2.720  1.00  0.00    -0.046 A 
HETATM   10  C   UNL     1      43.548 -20.565   1.789  1.00  0.00     0.027 A 
HETATM   11  C   UNL     1      43.964 -21.856   2.084  1.00  0.00     0.116 A 
HETATM   12  N   UNL     1      44.581 -22.203   3.231  1.00  0.00    -0.273 NA
HETATM   13  C   UNL     1      44.796 -21.209   4.114  1.00  0.00     0.116 A 
HETATM   14  C   UNL     1      44.413 -19.889   3.910  1.00  0.00     0.027 A 
ENDBRANCH   6   9
ENDBRANCH   5   6
ENDBRANCH   2   5
BRANCH   1  15
HETATM   15  C   UNL     1      40.497 -14.579   4.317  1.00  0.00     0.065 A 
HETATM   16  C   UNL     1      40.322 -14.105   3.005  1.00  0.00     0.026 A 
HETATM   17  C   UNL     1      39.635 -12.910   2.747  1.00  0.00    -0.061 A 
HETATM   18  C   UNL     1      39.434 -12.427   1.342  1.00  0.00     0.048 C 
HETATM   19  C   UNL     1      39.108 -12.186   3.820  1.00  0.00     0.009 A 
HETATM   20  C   UNL     1      39.267 -12.644   5.130  1.00  0.00     0.038 A 
HETATM   21  C   UNL     1      39.955 -13.836   5.377  1.00  0.00     0.081 A 
BRANCH  21  22
HETATM   22  O   UNL     1      40.078 -14.262   6.676  1.00  0.00    -0.360 OA
HETATM   23  H   UNL     1      40.917 -13.928   7.039  1.00  0.00     0.217 HD
ENDBRANCH  21  22
ENDBRANCH   1  15
TORSDOF 5
ENDMDL
MODEL 5
REMARK VINA RESULT:      -7.2      2.869      7.754
REMARK  5 active torsions:
REMARK  status: ('A' for Active; 'I' for Inactive)
REMARK    1  A    between atoms: C_4  and  C_5 
REMARK       I    between atoms: C_5  and  N_6 
REMARK    2  A    between atoms: N_6  and  C_7 
REMARK    3  A    between atoms: C_7  and  C_8 
REMARK    4  A    between atoms: C_8  and  C_9 
REMARK    5  A    between atoms: C_18  and  O_19 
ROOT
HETATM    1  C   UNL     1      42.764 -17.527   3.505  1.00  0.00     0.254 C 
HETATM    2  N   UNL     1      41.724 -17.486   2.608  1.00  0.00    -0.356 N 
HETATM    3  O   UNL     1      43.088 -16.552   4.178  1.00  0.00    -0.268 OA
HETATM    4  H   UNL     1      41.432 -18.375   2.203  1.00  0.00     0.162 HD
ENDROOT
BRANCH   2   5
HETATM    5  C   UNL     1      40.855 -16.332   2.494  1.00  0.00     0.136 C 
BRANCH   5   6
HETATM    6  C   UNL     1      41.177 -15.426   1.270  1.00  0.00    -0.004 C 
HETATM    7  C   UNL     1      42.142 -14.310   1.735  1.00  0.00     0.021 C 
HETATM    8  C   UNL     1      41.940 -16.283   0.233  1.00  0.00     0.021 C 
BRANCH   6   9
HETATM    9  C   UNL     1      39.906 -14.762   0.706  1.00  0.00    -0.046 A 
HETATM   10  C   UNL     1      38.729 -14.708   1.471  1.00  0.00     0.027 A 
HETATM   11  C   UNL     1      37.594 -14.110   0.942  1.00  0.00     0.116 A 
HETATM   12  N   UNL     1      37.538 -13.555  -0.284  1.00  0.00    -0.273 NA
HETATM   13  C   UNL     1      38.674 -13.596  -1.007  1.00  0.00     0.116 A 
HETATM   14  C   UNL     1      39.857 -14.176  -0.566  1.00  0.00     0.027 A 
ENDBRANCH   6   9
ENDBRANCH   5   6
ENDBRANCH   2   5
BRANCH   1  15
HETATM   15  C   UNL     1      43.496 -18.828   3.648  1.00  0.00     0.065 A 
HETATM   16  C   UNL     1      43.452 -19.706   2.550  1.00  0.00     0.026 A 
HETATM   17  C   UNL     1      44.100 -20.949   2.585  1.00  0.00    -0.061 A 
HETATM   18  C   UNL     1      44.066 -21.867   1.400  1.00  0.00     0.048 C 
HETATM   19  C   UNL     1      44.810 -21.312   3.733  1.00  0.00     0.009 A 
HETATM   20  C   UNL     1      44.869 -20.451   4.831  1.00  0.00     0.038 A 
HETATM   21  C   UNL     1      44.219 -19.214   4.788  1.00  0.00     0.081 A 
BRANCH  21  22
HETATM   22  O   UNL     1      44.312 -18.388   5.879  1.00  0.00    -0.360 OA
HETATM   23  H   UNL     1      43.804 -17.576   5.705  1.00  0.00     0.217 HD
ENDBRANCH  21  22
ENDBRANCH   1  15
TORSDOF 5
ENDMDL
MODEL 6
REMARK VINA RESULT:      -7.2      3.668      7.665
REMARK  5 active torsions:
REMARK  status: ('A' for Active; 'I' for Inactive)
REMARK    1  A    between atoms: C_4  and  C_5 
REMARK       I    between atoms: C_5  and  N_6 
REMARK    2  A    between atoms: N_6  and  C_7 
REMARK    3  A    between atoms: C_7  and  C_8 
REMARK    4  A    between atoms: C_8  and  C_9 
REMARK    5  A    between atoms: C_18  and  O_19 
ROOT
HETATM    1  C   UNL     1      43.676 -17.261   3.309  1.00  0.00     0.254 C 
HETATM    2  N   UNL     1      43.176 -16.539   4.365  1.00  0.00    -0.356 N 
HETATM    3  O   UNL     1      43.839 -16.770   2.196  1.00  0.00    -0.268 OA
HETATM    4  H   UNL     1      43.212 -16.981   5.282  1.00  0.00     0.162 HD
ENDROOT
BRANCH   2   5
HETATM    5  C   UNL     1      42.935 -15.112   4.272  1.00  0.00     0.136 C 
BRANCH   5   6
HETATM    6  C   UNL     1      41.541 -14.678   4.811  1.00  0.00    -0.004 C 
HETATM    7  C   UNL     1      40.993 -15.812   5.707  1.00  0.00     0.021 C 
HETATM    8  C   UNL     1      41.748 -13.441   5.718  1.00  0.00     0.021 C 
BRANCH   6   9
HETATM    9  C   UNL     1      40.539 -14.441   3.665  1.00  0.00    -0.046 A 
HETATM   10  C   UNL     1      40.143 -15.500   2.832  1.00  0.00     0.027 A 
HETATM   11  C   UNL     1      39.243 -15.264   1.802  1.00  0.00     0.116 A 
HETATM   12  N   UNL     1      38.701 -14.059   1.538  1.00  0.00    -0.273 NA
HETATM   13  C   UNL     1      39.072 -13.050   2.350  1.00  0.00     0.116 A 
HETATM   14  C   UNL     1      39.969 -13.187   3.402  1.00  0.00     0.027 A 
ENDBRANCH   6   9
ENDBRANCH   5   6
ENDBRANCH   2   5
BRANCH   1  15
HETATM   15  C   UNL     1      44.035 -18.694   3.568  1.00  0.00     0.065 A 
HETATM   16  C   UNL     1      43.888 -19.591   2.495  1.00  0.00     0.026 A 
HETATM   17  C   UNL     1      44.192 -20.953   2.636  1.00  0.00    -0.061 A 
HETATM   18  C   UNL     1      44.054 -21.895   1.478  1.00  0.00     0.048 C 
HETATM   19  C   UNL     1      44.660 -21.419   3.868  1.00  0.00     0.009 A 
HETATM   20  C   UNL     1      44.817 -20.542   4.944  1.00  0.00     0.038 A 
HETATM   21  C   UNL     1      44.510 -19.187   4.794  1.00  0.00     0.081 A 
BRANCH  21  22
HETATM   22  O   UNL     1      44.691 -18.353   5.869  1.00  0.00    -0.360 OA
HETATM   23  H   UNL     1      44.214 -18.717   6.635  1.00  0.00     0.217 HD
ENDBRANCH  21  22
ENDBRANCH   1  15
TORSDOF 5
ENDMDL
MODEL 7
REMARK VINA RESULT:      -7.2      4.251      8.038
REMARK  5 active torsions:
REMARK  status: ('A' for Active; 'I' for Inactive)
REMARK    1  A    between atoms: C_4  and  C_5 
REMARK       I    between atoms: C_5  and  N_6 
REMARK    2  A    between atoms: N_6  and  C_7 
REMARK    3  A    between atoms: C_7  and  C_8 
REMARK    4  A    between atoms: C_8  and  C_9 
REMARK    5  A    between atoms: C_18  and  O_19 
ROOT
HETATM    1  C   UNL     1      43.251 -17.239   3.135  1.00  0.00     0.254 C 
HETATM    2  N   UNL     1      42.294 -16.763   3.999  1.00  0.00    -0.356 N 
HETATM    3  O   UNL     1      43.660 -16.581   2.182  1.00  0.00    -0.268 OA
HETATM    4  H   UNL     1      42.123 -17.311   4.841  1.00  0.00     0.162 HD
ENDROOT
BRANCH   2   5
HETATM    5  C   UNL     1      41.803 -15.402   3.923  1.00  0.00     0.136 C 
BRANCH   5   6
HETATM    6  C   UNL     1      42.388 -14.465   5.020  1.00  0.00    -0.004 C 
HETATM    7  C   UNL     1      42.832 -15.338   6.216  1.00  0.00     0.021 C 
HETATM    8  C   UNL     1      43.661 -13.799   4.446  1.00  0.00     0.021 C 
BRANCH   6   9
HETATM    9  C   UNL     1      41.337 -13.455   5.522  1.00  0.00    -0.046 A 
HETATM   10  C   UNL     1      39.967 -13.755   5.450  1.00  0.00     0.027 A 
HETATM   11  C   UNL     1      39.037 -12.829   5.903  1.00  0.00     0.116 A 
HETATM   12  N   UNL     1      39.362 -11.632   6.428  1.00  0.00    -0.273 NA
HETATM   13  C   UNL     1      40.679 -11.357   6.509  1.00  0.00     0.116 A 
HETATM   14  C   UNL     1      41.682 -12.216   6.079  1.00  0.00     0.027 A 
ENDBRANCH   6   9
ENDBRANCH   5   6
ENDBRANCH   2   5
BRANCH   1  15
HETATM   15  C   UNL     1      43.800 -18.608   3.407  1.00  0.00     0.065 A 
HETATM   16  C   UNL     1      43.663 -19.563   2.383  1.00  0.00     0.026 A 
HETATM   17  C   UNL     1      44.138 -20.872   2.540  1.00  0.00    -0.061 A 
HETATM   18  C   UNL     1      44.008 -21.875   1.433  1.00  0.00     0.048 C 
HETATM   19  C   UNL     1      44.769 -21.227   3.737  1.00  0.00     0.009 A 
HETATM   20  C   UNL     1      44.918 -20.291   4.762  1.00  0.00     0.038 A 
HETATM   21  C   UNL     1      44.440 -18.987   4.598  1.00  0.00     0.081 A 
BRANCH  21  22
HETATM   22  O   UNL     1      44.618 -18.091   5.621  1.00  0.00    -0.360 OA
HETATM   23  H   UNL     1      45.092 -18.533   6.348  1.00  0.00     0.217 HD
ENDBRANCH  21  22
ENDBRANCH   1  15
TORSDOF 5
ENDMDL
MODEL 8
REMARK VINA RESULT:      -7.2      4.193      7.594
REMARK  5 active torsions:
REMARK  status: ('A' for Active; 'I' for Inactive)
REMARK    1  A    between atoms: C_4  and  C_5 
REMARK       I    between atoms: C_5  and  N_6 
REMARK    2  A    between atoms: N_6  and  C_7 
REMARK    3  A    between atoms: C_7  and  C_8 
REMARK    4  A    between atoms: C_8  and  C_9 
REMARK    5  A    between atoms: C_18  and  O_19 
ROOT
HETATM    1  C   UNL     1      43.152 -17.589   6.410  1.00  0.00     0.254 C 
HETATM    2  N   UNL     1      43.730 -16.480   5.840  1.00  0.00    -0.356 N 
HETATM    3  O   UNL     1      42.251 -17.506   7.240  1.00  0.00    -0.268 OA
HETATM    4  H   UNL     1      44.363 -16.643   5.058  1.00  0.00     0.162 HD
ENDROOT
BRANCH   2   5
HETATM    5  C   UNL     1      43.221 -15.144   6.078  1.00  0.00     0.136 C 
BRANCH   5   6
HETATM    6  C   UNL     1      42.276 -14.626   4.954  1.00  0.00    -0.004 C 
HETATM    7  C   UNL     1      40.838 -14.570   5.519  1.00  0.00     0.021 C 
HETATM    8  C   UNL     1      42.689 -13.173   4.619  1.00  0.00     0.021 C 
BRANCH   6   9
HETATM    9  C   UNL     1      42.279 -15.565   3.733  1.00  0.00    -0.046 A 
HETATM   10  C   UNL     1      41.195 -16.425   3.491  1.00  0.00     0.027 A 
HETATM   11  C   UNL     1      41.219 -17.267   2.388  1.00  0.00     0.116 A 
HETATM   12  N   UNL     1      42.234 -17.318   1.504  1.00  0.00    -0.273 NA
HETATM   13  C   UNL     1      43.265 -16.481   1.733  1.00  0.00     0.116 A 
HETATM   14  C   UNL     1      43.333 -15.606   2.810  1.00  0.00     0.027 A 
ENDBRANCH   6   9
ENDBRANCH   5   6
ENDBRANCH   2   5
BRANCH   1  15
HETATM   15  C   UNL     1      43.659 -18.929   5.968  1.00  0.00     0.065 A 
HETATM   16  C   UNL     1      43.959 -19.077   4.602  1.00  0.00     0.026 A 
HETATM   17  C   UNL     1      44.435 -20.292   4.088  1.00  0.00    -0.061 A 
HETATM   18  C   UNL     1      44.774 -20.431   2.634  1.00  0.00     0.048 C 
HETATM   19  C   UNL     1      44.622 -21.370   4.959  1.00  0.00     0.009 A 
HETATM   20  C   UNL     1      44.335 -21.240   6.319  1.00  0.00     0.038 A 
HETATM   21  C   UNL     1      43.859 -20.025   6.822  1.00  0.00     0.081 A 
BRANCH  21  22
HETATM   22  O   UNL     1      43.602 -19.930   8.166  1.00  0.00    -0.360 OA
HETATM   23  H   UNL     1      42.688 -19.621   8.292  1.00  0.00     0.217 HD
ENDBRANCH  21  22
ENDBRANCH   1  15
TORSDOF 5
ENDMDL
MODEL 9
REMARK VINA RESULT:      -7.2      2.767      6.740
REMARK  5 active torsions:
REMARK  status: ('A' for Active; 'I' for Inactive)
REMARK    1  A    between atoms: C_4  and  C_5 
REMARK       I    between atoms: C_5  and  N_6 
REMARK    2  A    between atoms: N_6  and  C_7 
REMARK    3  A    between atoms: C_7  and  C_8 
REMARK    4  A    between atoms: C_8  and  C_9 
REMARK    5  A    between atoms: C_18  and  O_19 
ROOT
HETATM    1  C   UNL     1      43.044 -17.989   1.757  1.00  0.00     0.254 C 
HETATM    2  N   UNL     1      41.765 -17.538   1.978  1.00  0.00    -0.356 N 
HETATM    3  O   UNL     1      43.640 -17.783   0.703  1.00  0.00    -0.268 OA
HETATM    4  H   UNL     1      41.405 -17.626   2.927  1.00  0.00     0.162 HD
ENDROOT
BRANCH   2   5
HETATM    5  C   UNL     1      41.085 -16.672   1.035  1.00  0.00     0.136 C 
BRANCH   5   6
HETATM    6  C   UNL     1      40.725 -15.275   1.619  1.00  0.00    -0.004 C 
HETATM    7  C   UNL     1      40.934 -14.218   0.510  1.00  0.00     0.021 C 
HETATM    8  C   UNL     1      39.216 -15.279   1.964  1.00  0.00     0.021 C 
BRANCH   6   9
HETATM    9  C   UNL     1      41.629 -14.909   2.812  1.00  0.00    -0.046 A 
HETATM   10  C   UNL     1      42.877 -14.301   2.602  1.00  0.00     0.027 A 
HETATM   11  C   UNL     1      43.679 -13.984   3.690  1.00  0.00     0.116 A 
HETATM   12  N   UNL     1      43.334 -14.218   4.971  1.00  0.00    -0.273 NA
HETATM   13  C   UNL     1      42.128 -14.787   5.168  1.00  0.00     0.116 A 
HETATM   14  C   UNL     1      41.260 -15.144   4.144  1.00  0.00     0.027 A 
ENDBRANCH   6   9
ENDBRANCH   5   6
ENDBRANCH   2   5
BRANCH   1  15
HETATM   15  C   UNL     1      43.705 -18.746   2.870  1.00  0.00     0.065 A 
HETATM   16  C   UNL     1      43.947 -18.041   4.063  1.00  0.00     0.026 A 
HETATM   17  C   UNL     1      44.564 -18.657   5.161  1.00  0.00    -0.061 A 
HETATM   18  C   UNL     1      44.795 -17.901   6.436  1.00  0.00     0.048 C 
HETATM   19  C   UNL     1      44.935 -20.001   5.065  1.00  0.00     0.009 A 
HETATM   20  C   UNL     1      44.698 -20.719   3.890  1.00  0.00     0.038 A 
HETATM   21  C   UNL     1      44.084 -20.096   2.800  1.00  0.00     0.081 A 
BRANCH  21  22
HETATM   22  O   UNL     1      43.854 -20.837   1.668  1.00  0.00    -0.360 OA
HETATM   23  H   UNL     1      44.497 -21.566   1.632  1.00  0.00     0.217 HD
ENDBRANCH  21  22
ENDBRANCH   1  15
TORSDOF 5
ENDMDL
MODEL 10
REMARK VINA RESULT:      -7.2      1.914      2.576
REMARK  5 active torsions:
REMARK  status: ('A' for Active; 'I' for Inactive)
REMARK    1  A    between atoms: C_4  and  C_5 
REMARK       I    between atoms: C_5  and  N_6 
REMARK    2  A    between atoms: N_6  and  C_7 
REMARK    3  A    between atoms: C_7  and  C_8 
REMARK    4  A    between atoms: C_8  and  C_9 
REMARK    5  A    between atoms: C_18  and  O_19 
ROOT
HETATM    1  C   UNL     1      40.519 -15.966   2.070  1.00  0.00     0.254 C 
HETATM    2  N   UNL     1      41.055 -17.166   1.669  1.00  0.00    -0.356 N 
HETATM    3  O   UNL     1      40.432 -15.648   3.252  1.00  0.00    -0.268 OA
HETATM    4  H   UNL     1      41.223 -17.284   0.671  1.00  0.00     0.162 HD
ENDROOT
BRANCH   2   5
HETATM    5  C   UNL     1      41.676 -18.079   2.609  1.00  0.00     0.136 C 
BRANCH   5   6
HETATM    6  C   UNL     1      43.223 -18.166   2.464  1.00  0.00    -0.004 C 
HETATM    7  C   UNL     1      43.593 -17.822   1.003  1.00  0.00     0.021 C 
HETATM    8  C   UNL     1      43.846 -17.068   3.361  1.00  0.00     0.021 C 
BRANCH   6   9
HETATM    9  C   UNL     1      43.743 -19.583   2.774  1.00  0.00    -0.046 A 
HETATM   10  C   UNL     1      43.575 -20.624   1.847  1.00  0.00     0.027 A 
HETATM   11  C   UNL     1      44.046 -21.895   2.147  1.00  0.00     0.116 A 
HETATM   12  N   UNL     1      44.677 -22.210   3.295  1.00  0.00    -0.273 NA
HETATM   13  C   UNL     1      44.849 -21.204   4.175  1.00  0.00     0.116 A 
HETATM   14  C   UNL     1      44.409 -19.903   3.965  1.00  0.00     0.027 A 
ENDBRANCH   6   9
ENDBRANCH   5   6
ENDBRANCH   2   5
BRANCH   1  15
HETATM   15  C   UNL     1      40.048 -15.033   0.994  1.00  0.00     0.065 A 
HETATM   16  C   UNL     1      38.838 -14.355   1.225  1.00  0.00     0.026 A 
HETATM   17  C   UNL     1      38.309 -13.465   0.279  1.00  0.00    -0.061 A 
HETATM   18  C   UNL     1      37.030 -12.731   0.547  1.00  0.00     0.048 C 
HETATM   19  C   UNL     1      39.010 -13.244  -0.910  1.00  0.00     0.009 A 
HETATM   20  C   UNL     1      40.216 -13.903  -1.154  1.00  0.00     0.038 A 
HETATM   21  C   UNL     1      40.735 -14.790  -0.206  1.00  0.00     0.081 A 
BRANCH  21  22
HETATM   22  O   UNL     1      41.930 -15.409  -0.475  1.00  0.00    -0.360 OA
HETATM   23  H   UNL     1      42.294 -15.765   0.355  1.00  0.00     0.217 HD
ENDBRANCH  21  22
ENDBRANCH   1  15
TORSDOF 5
ENDMDL
