MODEL 1
REMARK VINA RESULT:      -8.7      0.000      0.000
REMARK  2 active torsions:
REMARK  status: ('A' for Active; 'I' for Inactive)
REMARK    1  A    between atoms: C_8  and  C_9 
REMARK       I    between atoms: N_10  and  C_11 
REMARK    2  A    between atoms: C_11  and  C_12 
ROOT
HETATM    1  C   UNL     1      40.901 -14.376   3.033  1.00  0.00     0.124 C 
HETATM    2  N   UNL     1      41.486 -15.715   3.083  1.00  0.00    -0.339 N 
HETATM    3  C   UNL     1      42.847 -15.877   3.257  1.00  0.00     0.260 C 
HETATM    4  O   UNL     1      43.626 -14.942   3.431  1.00  0.00    -0.267 OA
HETATM    5  C   UNL     1      40.542 -16.709   2.588  1.00  0.00     0.127 C 
HETATM    6  C   UNL     1      39.574 -15.902   1.738  1.00  0.00     0.022 C 
HETATM    7  C   UNL     1      39.478 -14.586   2.495  1.00  0.00     0.032 C 
ENDROOT
BRANCH   1   8
HETATM    8  C   UNL     1      40.899 -13.701   4.374  1.00  0.00     0.014 A 
HETATM    9  C   UNL     1      40.753 -14.318   5.606  1.00  0.00     0.034 A 
HETATM   10  C   UNL     1      40.546 -15.737   5.979  1.00  0.00     0.070 C 
HETATM   11  N   UNL     1      40.815 -13.326   6.541  1.00  0.00    -0.282 N 
HETATM   12  H   UNL     1      40.727 -13.408   7.548  1.00  0.00     0.189 HD
HETATM   13  N   UNL     1      41.034 -12.112   6.024  1.00  0.00    -0.179 NA
HETATM   14  C   UNL     1      41.077 -12.322   4.703  1.00  0.00     0.061 A 
HETATM   15  C   UNL     1      41.300 -11.167   3.798  1.00  0.00     0.073 C 
ENDBRANCH   1   8
BRANCH   3  16
HETATM   16  C   UNL     1      43.361 -17.262   3.341  1.00  0.00     0.108 A 
HETATM   17  C   UNL     1      43.958 -17.937   2.175  1.00  0.00     0.304 A 
HETATM   18  O   UNL     1      44.038 -17.401   1.074  1.00  0.00    -0.259 OA
HETATM   19  O   UNL     1      44.390 -19.247   2.369  1.00  0.00    -0.274 OA
HETATM   20  C   UNL     1      44.347 -19.857   3.637  1.00  0.00     0.089 A 
HETATM   21  C   UNL     1      43.843 -19.173   4.740  1.00  0.00    -0.001 A 
HETATM   22  C   UNL     1      44.840 -21.156   3.742  1.00  0.00     0.038 A 
HETATM   23  C   UNL     1      43.850 -19.804   5.986  1.00  0.00     0.014 A 
HETATM   24  C   UNL     1      43.325 -17.829   4.556  1.00  0.00     0.037 A 
HETATM   25  C   UNL     1      44.350 -21.105   6.108  1.00  0.00     0.001 A 
HETATM   26  C   UNL     1      44.839 -21.781   4.987  1.00  0.00     0.003 A 
ENDBRANCH   3  16
TORSDOF 2
ENDMDL
MODEL 2
REMARK VINA RESULT:      -8.5      2.754      4.401
REMARK  2 active torsions:
REMARK  status: ('A' for Active; 'I' for Inactive)
REMARK    1  A    between atoms: C_8  and  C_9 
REMARK       I    between atoms: N_10  and  C_11 
REMARK    2  A    between atoms: C_11  and  C_12 
ROOT
HETATM    1  C   UNL     1      40.254 -13.547   1.616  1.00  0.00     0.124 C 
HETATM    2  N   UNL     1      41.143 -14.573   2.157  1.00  0.00    -0.339 N 
HETATM    3  C   UNL     1      40.637 -15.791   2.569  1.00  0.00     0.260 C 
HETATM    4  O   UNL     1      39.454 -16.107   2.461  1.00  0.00    -0.267 OA
HETATM    5  C   UNL     1      42.439 -14.002   2.502  1.00  0.00     0.127 C 
HETATM    6  C   UNL     1      42.153 -12.518   2.664  1.00  0.00     0.022 C 
HETATM    7  C   UNL     1      41.094 -12.262   1.603  1.00  0.00     0.032 C 
ENDROOT
BRANCH   1   8
HETATM    8  C   UNL     1      39.741 -13.896   0.248  1.00  0.00     0.014 A 
HETATM    9  C   UNL     1      38.415 -14.076  -0.112  1.00  0.00     0.034 A 
HETATM   10  C   UNL     1      37.162 -14.011   0.675  1.00  0.00     0.070 C 
HETATM   11  N   UNL     1      38.418 -14.375  -1.444  1.00  0.00    -0.282 N 
HETATM   12  H   UNL     1      37.625 -14.587  -2.040  1.00  0.00     0.189 HD
HETATM   13  N   UNL     1      39.636 -14.361  -1.996  1.00  0.00    -0.179 NA
HETATM   14  C   UNL     1      40.455 -14.082  -0.975  1.00  0.00     0.061 A 
HETATM   15  C   UNL     1      41.914 -13.995  -1.228  1.00  0.00     0.073 C 
ENDBRANCH   1   8
BRANCH   3  16
HETATM   16  C   UNL     1      41.604 -16.796   3.065  1.00  0.00     0.108 A 
HETATM   17  C   UNL     1      42.045 -16.815   4.470  1.00  0.00     0.304 A 
HETATM   18  O   UNL     1      41.659 -15.990   5.293  1.00  0.00    -0.259 OA
HETATM   19  O   UNL     1      42.973 -17.795   4.817  1.00  0.00    -0.274 OA
HETATM   20  C   UNL     1      43.389 -18.775   3.897  1.00  0.00     0.089 A 
HETATM   21  C   UNL     1      42.903 -18.778   2.591  1.00  0.00    -0.001 A 
HETATM   22  C   UNL     1      44.287 -19.739   4.347  1.00  0.00     0.038 A 
HETATM   23  C   UNL     1      43.316 -19.789   1.721  1.00  0.00     0.014 A 
HETATM   24  C   UNL     1      41.985 -17.730   2.182  1.00  0.00     0.037 A 
HETATM   25  C   UNL     1      44.211 -20.769   2.162  1.00  0.00     0.001 A 
HETATM   26  C   UNL     1      44.700 -20.742   3.471  1.00  0.00     0.003 A 
ENDBRANCH   3  16
TORSDOF 2
ENDMDL
MODEL 3
REMARK VINA RESULT:      -8.4      2.439      3.655
REMARK  2 active torsions:
REMARK  status: ('A' for Active; 'I' for Inactive)
REMARK    1  A    between atoms: C_8  and  C_9 
REMARK       I    between atoms: N_10  and  C_11 
REMARK    2  A    between atoms: C_11  and  C_12 
ROOT
HETATM    1  C   UNL     1      42.442 -14.491   6.137  1.00  0.00     0.124 C 
HETATM    2  N   UNL     1      43.044 -15.780   5.801  1.00  0.00    -0.339 N 
HETATM    3  C   UNL     1      42.251 -16.899   5.629  1.00  0.00     0.260 C 
HETATM    4  O   UNL     1      41.023 -16.876   5.688  1.00  0.00    -0.267 OA
HETATM    5  C   UNL     1      44.482 -15.755   6.037  1.00  0.00     0.127 C 
HETATM    6  C   UNL     1      44.671 -14.613   7.023  1.00  0.00     0.022 C 
HETATM    7  C   UNL     1      43.619 -13.608   6.579  1.00  0.00     0.032 C 
ENDROOT
BRANCH   1   8
HETATM    8  C   UNL     1      41.693 -13.890   4.984  1.00  0.00     0.014 A 
HETATM    9  C   UNL     1      40.447 -13.285   5.037  1.00  0.00     0.034 A 
HETATM   10  C   UNL     1      39.504 -13.068   6.159  1.00  0.00     0.070 C 
HETATM   11  N   UNL     1      40.161 -12.885   3.764  1.00  0.00    -0.282 N 
HETATM   12  H   UNL     1      39.323 -12.424   3.426  1.00  0.00     0.189 HD
HETATM   13  N   UNL     1      41.139 -13.138   2.888  1.00  0.00    -0.179 NA
HETATM   14  C   UNL     1      42.076 -13.760   3.613  1.00  0.00     0.061 A 
HETATM   15  C   UNL     1      43.325 -14.203   2.946  1.00  0.00     0.073 C 
ENDBRANCH   1   8
BRANCH   3  16
HETATM   16  C   UNL     1      42.927 -18.159   5.247  1.00  0.00     0.108 A 
HETATM   17  C   UNL     1      43.497 -19.065   6.258  1.00  0.00     0.304 A 
HETATM   18  O   UNL     1      43.466 -18.816   7.459  1.00  0.00    -0.259 OA
HETATM   19  O   UNL     1      44.126 -20.213   5.779  1.00  0.00    -0.274 OA
HETATM   20  C   UNL     1      44.129 -20.535   4.409  1.00  0.00     0.089 A 
HETATM   21  C   UNL     1      43.521 -19.695   3.479  1.00  0.00    -0.001 A 
HETATM   22  C   UNL     1      44.747 -21.724   4.029  1.00  0.00     0.038 A 
HETATM   23  C   UNL     1      43.517 -20.069   2.134  1.00  0.00     0.014 A 
HETATM   24  C   UNL     1      42.914 -18.459   3.941  1.00  0.00     0.037 A 
HETATM   25  C   UNL     1      44.126 -21.265   1.739  1.00  0.00     0.001 A 
HETATM   26  C   UNL     1      44.744 -22.089   2.684  1.00  0.00     0.003 A 
ENDBRANCH   3  16
TORSDOF 2
ENDMDL
MODEL 4
REMARK VINA RESULT:      -8.2      2.557      3.988
REMARK  2 active torsions:
REMARK  status: ('A' for Active; 'I' for Inactive)
REMARK    1  A    between atoms: C_8  and  C_9 
REMARK       I    between atoms: N_10  and  C_11 
REMARK    2  A    between atoms: C_11  and  C_12 
ROOT
HETATM    1  C   UNL     1      40.356 -13.674   1.853  1.00  0.00     0.124 C 
HETATM    2  N   UNL     1      41.292 -14.756   2.154  1.00  0.00    -0.339 N 
HETATM    3  C   UNL     1      40.839 -16.053   2.301  1.00  0.00     0.260 C 
HETATM    4  O   UNL     1      39.666 -16.384   2.140  1.00  0.00    -0.267 OA
HETATM    5  C   UNL     1      42.572 -14.220   2.599  1.00  0.00     0.127 C 
HETATM    6  C   UNL     1      42.235 -12.817   3.077  1.00  0.00     0.022 C 
HETATM    7  C   UNL     1      41.148 -12.383   2.106  1.00  0.00     0.032 C 
ENDROOT
BRANCH   1   8
HETATM    8  C   UNL     1      39.832 -13.743   0.448  1.00  0.00     0.014 A 
HETATM    9  C   UNL     1      40.584 -13.679  -0.715  1.00  0.00     0.034 A 
HETATM   10  C   UNL     1      42.038 -13.512  -0.940  1.00  0.00     0.070 C 
HETATM   11  N   UNL     1      39.699 -13.783  -1.749  1.00  0.00    -0.282 N 
HETATM   12  H   UNL     1      39.892 -13.756  -2.744  1.00  0.00     0.189 HD
HETATM   13  N   UNL     1      38.432 -13.957  -1.358  1.00  0.00    -0.179 NA
HETATM   14  C   UNL     1      38.494 -13.924  -0.021  1.00  0.00     0.061 A 
HETATM   15  C   UNL     1      37.243 -14.079   0.761  1.00  0.00     0.073 C 
ENDBRANCH   1   8
BRANCH   3  16
HETATM   16  C   UNL     1      41.850 -17.101   2.562  1.00  0.00     0.108 A 
HETATM   17  C   UNL     1      42.736 -17.602   1.497  1.00  0.00     0.304 A 
HETATM   18  O   UNL     1      42.667 -17.199   0.340  1.00  0.00    -0.259 OA
HETATM   19  O   UNL     1      43.636 -18.603   1.857  1.00  0.00    -0.274 OA
HETATM   20  C   UNL     1      43.758 -19.040   3.189  1.00  0.00     0.089 A 
HETATM   21  C   UNL     1      42.957 -18.500   4.193  1.00  0.00    -0.001 A 
HETATM   22  C   UNL     1      44.714 -20.016   3.460  1.00  0.00     0.038 A 
HETATM   23  C   UNL     1      43.134 -18.939   5.506  1.00  0.00     0.014 A 
HETATM   24  C   UNL     1      41.964 -17.502   3.837  1.00  0.00     0.037 A 
HETATM   25  C   UNL     1      44.097 -19.912   5.794  1.00  0.00     0.001 A 
HETATM   26  C   UNL     1      44.882 -20.453   4.773  1.00  0.00     0.003 A 
ENDBRANCH   3  16
TORSDOF 2
ENDMDL
MODEL 5
REMARK VINA RESULT:      -8.1      1.745      2.924
REMARK  2 active torsions:
REMARK  status: ('A' for Active; 'I' for Inactive)
REMARK    1  A    between atoms: C_8  and  C_9 
REMARK       I    between atoms: N_10  and  C_11 
REMARK    2  A    between atoms: C_11  and  C_12 
ROOT
HETATM    1  C   UNL     1      40.479 -13.262   2.411  1.00  0.00     0.124 C 
HETATM    2  N   UNL     1      41.127 -14.473   2.908  1.00  0.00    -0.339 N 
HETATM    3  C   UNL     1      42.500 -14.522   3.057  1.00  0.00     0.260 C 
HETATM    4  O   UNL     1      43.241 -13.564   2.842  1.00  0.00    -0.267 OA
HETATM    5  C   UNL     1      40.212 -15.607   2.854  1.00  0.00     0.127 C 
HETATM    6  C   UNL     1      39.176 -15.191   1.823  1.00  0.00     0.022 C 
HETATM    7  C   UNL     1      39.047 -13.694   2.060  1.00  0.00     0.032 C 
ENDROOT
BRANCH   1   8
HETATM    8  C   UNL     1      40.497 -12.147   3.417  1.00  0.00     0.014 A 
HETATM    9  C   UNL     1      40.689 -10.800   3.149  1.00  0.00     0.034 A 
HETATM   10  C   UNL     1      40.941 -10.073   1.884  1.00  0.00     0.070 C 
HETATM   11  N   UNL     1      40.625 -10.159   4.352  1.00  0.00    -0.282 N 
HETATM   12  H   UNL     1      40.740  -9.169   4.541  1.00  0.00     0.189 HD
HETATM   13  N   UNL     1      40.362 -10.971   5.382  1.00  0.00    -0.179 NA
HETATM   14  C   UNL     1      40.292 -12.188   4.830  1.00  0.00     0.061 A 
HETATM   15  C   UNL     1      40.017 -13.357   5.701  1.00  0.00     0.073 C 
ENDBRANCH   1   8
BRANCH   3  16
HETATM   16  C   UNL     1      43.081 -15.767   3.607  1.00  0.00     0.108 A 
HETATM   17  C   UNL     1      43.306 -15.942   5.052  1.00  0.00     0.304 A 
HETATM   18  O   UNL     1      43.051 -15.063   5.869  1.00  0.00    -0.259 OA
HETATM   19  O   UNL     1      43.876 -17.150   5.450  1.00  0.00    -0.274 OA
HETATM   20  C   UNL     1      44.130 -18.183   4.530  1.00  0.00     0.089 A 
HETATM   21  C   UNL     1      43.843 -18.020   3.177  1.00  0.00    -0.001 A 
HETATM   22  C   UNL     1      44.663 -19.370   5.028  1.00  0.00     0.038 A 
HETATM   23  C   UNL     1      44.080 -19.084   2.304  1.00  0.00     0.014 A 
HETATM   24  C   UNL     1      43.309 -16.748   2.722  1.00  0.00     0.037 A 
HETATM   25  C   UNL     1      44.607 -20.284   2.791  1.00  0.00     0.001 A 
HETATM   26  C   UNL     1      44.902 -20.426   4.150  1.00  0.00     0.003 A 
ENDBRANCH   3  16
TORSDOF 2
ENDMDL
MODEL 6
REMARK VINA RESULT:      -7.9      2.693      6.505
REMARK  2 active torsions:
REMARK  status: ('A' for Active; 'I' for Inactive)
REMARK    1  A    between atoms: C_8  and  C_9 
REMARK       I    between atoms: N_10  and  C_11 
REMARK    2  A    between atoms: C_11  and  C_12 
ROOT
HETATM    1  C   UNL     1      43.294 -18.886   4.713  1.00  0.00     0.124 C 
HETATM    2  N   UNL     1      42.635 -17.737   4.095  1.00  0.00    -0.339 N 
HETATM    3  C   UNL     1      41.317 -17.445   4.389  1.00  0.00     0.260 C 
HETATM    4  O   UNL     1      40.648 -18.076   5.205  1.00  0.00    -0.267 OA
HETATM    5  C   UNL     1      43.407 -17.249   2.959  1.00  0.00     0.127 C 
HETATM    6  C   UNL     1      44.267 -18.439   2.564  1.00  0.00     0.022 C 
HETATM    7  C   UNL     1      44.585 -19.085   3.903  1.00  0.00     0.032 C 
ENDROOT
BRANCH   1   8
HETATM    8  C   UNL     1      43.577 -18.670   6.171  1.00  0.00     0.014 A 
HETATM    9  C   UNL     1      43.680 -19.653   7.144  1.00  0.00     0.034 A 
HETATM   10  C   UNL     1      43.536 -21.125   7.076  1.00  0.00     0.070 C 
HETATM   11  N   UNL     1      43.944 -19.005   8.316  1.00  0.00    -0.282 N 
HETATM   12  H   UNL     1      44.064 -19.405   9.240  1.00  0.00     0.189 HD
HETATM   13  N   UNL     1      44.068 -17.680   8.182  1.00  0.00    -0.179 NA
HETATM   14  C   UNL     1      43.836 -17.458   6.883  1.00  0.00     0.061 A 
HETATM   15  C   UNL     1      43.883 -16.067   6.371  1.00  0.00     0.073 C 
ENDBRANCH   1   8
BRANCH   3  16
HETATM   16  C   UNL     1      40.730 -16.242   3.759  1.00  0.00     0.108 A 
HETATM   17  C   UNL     1      40.205 -16.268   2.384  1.00  0.00     0.304 A 
HETATM   18  O   UNL     1      40.247 -17.274   1.682  1.00  0.00    -0.259 OA
HETATM   19  O   UNL     1      39.694 -15.069   1.890  1.00  0.00    -0.274 OA
HETATM   20  C   UNL     1      39.596 -13.922   2.698  1.00  0.00     0.089 A 
HETATM   21  C   UNL     1      40.037 -13.941   4.020  1.00  0.00    -0.001 A 
HETATM   22  C   UNL     1      39.034 -12.781   2.130  1.00  0.00     0.038 A 
HETATM   23  C   UNL     1      39.890 -12.790   4.796  1.00  0.00     0.014 A 
HETATM   24  C   UNL     1      40.634 -15.158   4.543  1.00  0.00     0.037 A 
HETATM   25  C   UNL     1      39.319 -11.640   4.241  1.00  0.00     0.001 A 
HETATM   26  C   UNL     1      38.896 -11.634   2.909  1.00  0.00     0.003 A 
ENDBRANCH   3  16
TORSDOF 2
ENDMDL
MODEL 7
REMARK VINA RESULT:      -7.9      3.140      6.082
REMARK  2 active torsions:
REMARK  status: ('A' for Active; 'I' for Inactive)
REMARK    1  A    between atoms: C_8  and  C_9 
REMARK       I    between atoms: N_10  and  C_11 
REMARK    2  A    between atoms: C_11  and  C_12 
ROOT
HETATM    1  C   UNL     1      41.896 -14.451   5.102  1.00  0.00     0.124 C 
HETATM    2  N   UNL     1      41.530 -14.686   3.707  1.00  0.00    -0.339 N 
HETATM    3  C   UNL     1      42.463 -14.526   2.701  1.00  0.00     0.260 C 
HETATM    4  O   UNL     1      43.641 -14.238   2.907  1.00  0.00    -0.267 OA
HETATM    5  C   UNL     1      40.081 -14.735   3.556  1.00  0.00     0.127 C 
HETATM    6  C   UNL     1      39.561 -13.997   4.778  1.00  0.00     0.022 C 
HETATM    7  C   UNL     1      40.560 -14.386   5.857  1.00  0.00     0.032 C 
ENDROOT
BRANCH   1   8
HETATM    8  C   UNL     1      42.797 -15.521   5.647  1.00  0.00     0.014 A 
HETATM    9  C   UNL     1      43.977 -15.326   6.348  1.00  0.00     0.034 A 
HETATM   10  C   UNL     1      44.696 -14.092   6.743  1.00  0.00     0.070 C 
HETATM   11  N   UNL     1      44.455 -16.569   6.647  1.00  0.00    -0.282 N 
HETATM   12  H   UNL     1      45.309 -16.811   7.137  1.00  0.00     0.189 HD
HETATM   13  N   UNL     1      43.660 -17.563   6.237  1.00  0.00    -0.179 NA
HETATM   14  C   UNL     1      42.650 -16.942   5.616  1.00  0.00     0.061 A 
HETATM   15  C   UNL     1      41.564 -17.756   5.017  1.00  0.00     0.073 C 
ENDBRANCH   1   8
BRANCH   3  16
HETATM   16  C   UNL     1      42.031 -14.825   1.318  1.00  0.00     0.108 A 
HETATM   17  C   UNL     1      41.833 -16.207   0.852  1.00  0.00     0.304 A 
HETATM   18  O   UNL     1      42.038 -17.180   1.571  1.00  0.00    -0.259 OA
HETATM   19  O   UNL     1      41.443 -16.366  -0.477  1.00  0.00    -0.274 OA
HETATM   20  C   UNL     1      41.158 -15.260  -1.298  1.00  0.00     0.089 A 
HETATM   21  C   UNL     1      41.285 -13.960  -0.813  1.00  0.00    -0.001 A 
HETATM   22  C   UNL     1      40.735 -15.518  -2.600  1.00  0.00     0.038 A 
HETATM   23  C   UNL     1      40.961 -12.892  -1.652  1.00  0.00     0.014 A 
HETATM   24  C   UNL     1      41.753 -13.762   0.548  1.00  0.00     0.037 A 
HETATM   25  C   UNL     1      40.526 -13.137  -2.958  1.00  0.00     0.001 A 
HETATM   26  C   UNL     1      40.418 -14.447  -3.433  1.00  0.00     0.003 A 
ENDBRANCH   3  16
TORSDOF 2
ENDMDL
MODEL 8
REMARK VINA RESULT:      -7.9      3.870      7.048
REMARK  2 active torsions:
REMARK  status: ('A' for Active; 'I' for Inactive)
REMARK    1  A    between atoms: C_8  and  C_9 
REMARK       I    between atoms: N_10  and  C_11 
REMARK    2  A    between atoms: C_11  and  C_12 
ROOT
HETATM    1  C   UNL     1      43.726 -16.794   5.010  1.00  0.00     0.124 C 
HETATM    2  N   UNL     1      43.636 -15.720   5.997  1.00  0.00    -0.339 N 
HETATM    3  C   UNL     1      43.833 -14.406   5.620  1.00  0.00     0.260 C 
HETATM    4  O   UNL     1      44.037 -14.055   4.459  1.00  0.00    -0.267 OA
HETATM    5  C   UNL     1      43.680 -16.258   7.351  1.00  0.00     0.127 C 
HETATM    6  C   UNL     1      44.334 -17.620   7.181  1.00  0.00     0.022 C 
HETATM    7  C   UNL     1      43.797 -18.087   5.837  1.00  0.00     0.032 C 
ENDROOT
BRANCH   1   8
HETATM    8  C   UNL     1      42.563 -16.801   4.060  1.00  0.00     0.014 A 
HETATM    9  C   UNL     1      41.226 -16.654   4.396  1.00  0.00     0.034 A 
HETATM   10  C   UNL     1      40.551 -16.479   5.703  1.00  0.00     0.070 C 
HETATM   11  N   UNL     1      40.528 -16.720   3.225  1.00  0.00    -0.282 N 
HETATM   12  H   UNL     1      39.525 -16.670   3.090  1.00  0.00     0.189 HD
HETATM   13  N   UNL     1      41.304 -16.852   2.143  1.00  0.00    -0.179 NA
HETATM   14  C   UNL     1      42.547 -16.914   2.636  1.00  0.00     0.061 A 
HETATM   15  C   UNL     1      43.685 -17.073   1.699  1.00  0.00     0.073 C 
ENDBRANCH   1   8
BRANCH   3  16
HETATM   16  C   UNL     1      43.683 -13.369   6.665  1.00  0.00     0.108 A 
HETATM   17  C   UNL     1      42.487 -12.513   6.738  1.00  0.00     0.304 A 
HETATM   18  O   UNL     1      41.569 -12.594   5.928  1.00  0.00    -0.259 OA
HETATM   19  O   UNL     1      42.466 -11.559   7.754  1.00  0.00    -0.274 OA
HETATM   20  C   UNL     1      43.489 -11.486   8.717  1.00  0.00     0.089 A 
HETATM   21  C   UNL     1      44.577 -12.354   8.668  1.00  0.00    -0.001 A 
HETATM   22  C   UNL     1      43.361 -10.526   9.719  1.00  0.00     0.038 A 
HETATM   23  C   UNL     1      45.553 -12.268   9.663  1.00  0.00     0.014 A 
HETATM   24  C   UNL     1      44.660 -13.316   7.583  1.00  0.00     0.037 A 
HETATM   25  C   UNL     1      45.433 -11.316  10.681  1.00  0.00     0.001 A 
HETATM   26  C   UNL     1      44.341 -10.443  10.706  1.00  0.00     0.003 A 
ENDBRANCH   3  16
TORSDOF 2
ENDMDL
MODEL 9
REMARK VINA RESULT:      -7.8      2.097      2.967
REMARK  2 active torsions:
REMARK  status: ('A' for Active; 'I' for Inactive)
REMARK    1  A    between atoms: C_8  and  C_9 
REMARK       I    between atoms: N_10  and  C_11 
REMARK    2  A    between atoms: C_11  and  C_12 
ROOT
HETATM    1  C   UNL     1      41.809 -13.854   5.872  1.00  0.00     0.124 C 
HETATM    2  N   UNL     1      42.273 -14.997   5.089  1.00  0.00    -0.339 N 
HETATM    3  C   UNL     1      41.486 -16.126   4.965  1.00  0.00     0.260 C 
HETATM    4  O   UNL     1      40.357 -16.222   5.442  1.00  0.00    -0.267 OA
HETATM    5  C   UNL     1      43.702 -14.893   4.823  1.00  0.00     0.127 C 
HETATM    6  C   UNL     1      44.208 -13.950   5.902  1.00  0.00     0.022 C 
HETATM    7  C   UNL     1      43.053 -12.973   6.063  1.00  0.00     0.032 C 
ENDROOT
BRANCH   1   8
HETATM    8  C   UNL     1      40.695 -13.109   5.195  1.00  0.00     0.014 A 
HETATM    9  C   UNL     1      39.617 -12.498   5.817  1.00  0.00     0.034 A 
HETATM   10  C   UNL     1      39.225 -12.403   7.242  1.00  0.00     0.070 C 
HETATM   11  N   UNL     1      38.864 -11.946   4.821  1.00  0.00    -0.282 N 
HETATM   12  H   UNL     1      37.991 -11.436   4.905  1.00  0.00     0.189 HD
HETATM   13  N   UNL     1      39.385 -12.107   3.600  1.00  0.00    -0.179 NA
HETATM   14  C   UNL     1      40.496 -12.823   3.810  1.00  0.00     0.061 A 
HETATM   15  C   UNL     1      41.338 -13.201   2.648  1.00  0.00     0.073 C 
ENDBRANCH   1   8
BRANCH   3  16
HETATM   16  C   UNL     1      42.003 -17.226   4.122  1.00  0.00     0.108 A 
HETATM   17  C   UNL     1      41.649 -17.339   2.697  1.00  0.00     0.304 A 
HETATM   18  O   UNL     1      40.893 -16.548   2.141  1.00  0.00    -0.259 OA
HETATM   19  O   UNL     1      42.181 -18.427   2.008  1.00  0.00    -0.274 OA
HETATM   20  C   UNL     1      43.087 -19.314   2.619  1.00  0.00     0.089 A 
HETATM   21  C   UNL     1      43.461 -19.146   3.950  1.00  0.00    -0.001 A 
HETATM   22  C   UNL     1      43.598 -20.349   1.839  1.00  0.00     0.038 A 
HETATM   23  C   UNL     1      44.388 -20.030   4.507  1.00  0.00     0.014 A 
HETATM   24  C   UNL     1      42.873 -18.059   4.713  1.00  0.00     0.037 A 
HETATM   25  C   UNL     1      44.916 -21.069   3.732  1.00  0.00     0.001 A 
HETATM   26  C   UNL     1      44.518 -21.231   2.403  1.00  0.00     0.003 A 
ENDBRANCH   3  16
TORSDOF 2
ENDMDL
MODEL 10
REMARK VINA RESULT:      -7.8      2.240      3.593
REMARK  2 active torsions:
REMARK  status: ('A' for Active; 'I' for Inactive)
REMARK    1  A    between atoms: C_8  and  C_9 
REMARK       I    between atoms: N_10  and  C_11 
REMARK    2  A    between atoms: C_11  and  C_12 
ROOT
HETATM    1  C   UNL     1      41.691 -14.177   3.606  1.00  0.00     0.124 C 
HETATM    2  N   UNL     1      42.430 -15.437   3.644  1.00  0.00    -0.339 N 
HETATM    3  C   UNL     1      41.870 -16.559   4.224  1.00  0.00     0.260 C 
HETATM    4  O   UNL     1      40.730 -16.589   4.681  1.00  0.00    -0.267 OA
HETATM    5  C   UNL     1      43.840 -15.217   3.346  1.00  0.00     0.127 C 
HETATM    6  C   UNL     1      44.052 -13.743   3.650  1.00  0.00     0.022 C 
HETATM    7  C   UNL     1      42.734 -13.117   3.220  1.00  0.00     0.032 C 
ENDROOT
BRANCH   1   8
HETATM    8  C   UNL     1      40.545 -14.213   2.636  1.00  0.00     0.014 A 
HETATM    9  C   UNL     1      39.387 -13.453   2.702  1.00  0.00     0.034 A 
HETATM   10  C   UNL     1      38.923 -12.448   3.686  1.00  0.00     0.070 C 
HETATM   11  N   UNL     1      38.634 -13.810   1.622  1.00  0.00    -0.282 N 
HETATM   12  H   UNL     1      37.714 -13.472   1.360  1.00  0.00     0.189 HD
HETATM   13  N   UNL     1      39.224 -14.710   0.828  1.00  0.00    -0.179 NA
HETATM   14  C   UNL     1      40.385 -14.974   1.438  1.00  0.00     0.061 A 
HETATM   15  C   UNL     1      41.312 -15.958   0.826  1.00  0.00     0.073 C 
ENDBRANCH   1   8
BRANCH   3  16
HETATM   16  C   UNL     1      42.661 -17.810   4.186  1.00  0.00     0.108 A 
HETATM   17  C   UNL     1      43.388 -18.299   5.370  1.00  0.00     0.304 A 
HETATM   18  O   UNL     1      43.399 -17.690   6.435  1.00  0.00    -0.259 OA
HETATM   19  O   UNL     1      44.113 -19.478   5.210  1.00  0.00    -0.274 OA
HETATM   20  C   UNL     1      44.072 -20.212   4.010  1.00  0.00     0.089 A 
HETATM   21  C   UNL     1      43.320 -19.764   2.926  1.00  0.00    -0.001 A 
HETATM   22  C   UNL     1      44.797 -21.400   3.958  1.00  0.00     0.038 A 
HETATM   23  C   UNL     1      43.280 -20.540   1.766  1.00  0.00     0.014 A 
HETATM   24  C   UNL     1      42.605 -18.505   3.041  1.00  0.00     0.037 A 
HETATM   25  C   UNL     1      43.996 -21.740   1.703  1.00  0.00     0.001 A 
HETATM   26  C   UNL     1      44.757 -22.167   2.795  1.00  0.00     0.003 A 
ENDBRANCH   3  16
TORSDOF 2
ENDMDL
