MODEL 1
REMARK VINA RESULT:     -10.0      0.000      0.000
REMARK  4 active torsions:
REMARK  status: ('A' for Active; 'I' for Inactive)
REMARK    1  A    between atoms: C_5  and  C_6 
REMARK    2  A    between atoms: C_7  and  C_8 
REMARK       I    between atoms: C_8  and  N_9 
REMARK    3  A    between atoms: N_9  and  C_10 
REMARK    4  A    between atoms: C_17  and  C_18 
REMARK       I    between atoms: C_18  and  N_19 
ROOT
HETATM    1  C   UNL     1      43.827 -16.012   6.835  1.00  0.00     0.245 C 
HETATM    2  N   UNL     1      44.245 -14.753   6.458  1.00  0.00    -0.324 N 
HETATM    3  O   UNL     1      43.766 -16.468   7.969  1.00  0.00    -0.268 OA
HETATM    4  H   UNL     1      44.265 -14.552   5.467  1.00  0.00     0.169 HD
ENDROOT
BRANCH   2   5
HETATM    5  C   UNL     1      44.725 -13.723   7.298  1.00  0.00     0.035 A 
HETATM    6  C   UNL     1      43.966 -13.127   8.314  1.00  0.00     0.046 A 
HETATM    7  C   UNL     1      44.543 -12.120   9.120  1.00  0.00     0.030 A 
HETATM    8  C   UNL     1      45.858 -11.742   8.880  1.00  0.00     0.063 A 
HETATM    9  C   UNL     1      44.119 -11.305  10.213  1.00  0.00     0.156 A 
HETATM   10  N   UNL     1      46.133 -10.775   9.806  1.00  0.00    -0.277 N 
HETATM   11  C   UNL     1      46.641 -12.305   7.871  1.00  0.00     0.034 A 
HETATM   12  H   UNL     1      47.006 -10.274   9.928  1.00  0.00     0.189 HD
HETATM   13  N   UNL     1      45.112 -10.484  10.626  1.00  0.00    -0.168 NA
HETATM   14  C   UNL     1      46.045 -13.300   7.085  1.00  0.00     0.032 A 
BRANCH   9  15
HETATM   15  C   UNL     1      42.803 -11.294  10.868  1.00  0.00     0.270 C 
HETATM   16  N   UNL     1      42.760 -11.988  12.047  1.00  0.00    -0.365 N 
HETATM   17  H   UNL     1      43.604 -12.442  12.373  1.00  0.00     0.159 HD
HETATM   18  H   UNL     1      41.899 -12.032  12.568  1.00  0.00     0.159 HD
HETATM   19  O   UNL     1      41.809 -10.725  10.431  1.00  0.00    -0.266 OA
ENDBRANCH   9  15
ENDBRANCH   2   5
BRANCH   1  20
HETATM   20  C   UNL     1      43.464 -16.848   5.657  1.00  0.00     0.075 C 
HETATM   21  C   UNL     1      44.344 -17.750   5.195  1.00  0.00     0.018 C 
BRANCH  21  22
HETATM   22  C   UNL     1      44.093 -18.616   4.028  1.00  0.00    -0.025 A 
HETATM   23  C   UNL     1      44.314 -20.022   4.082  1.00  0.00    -0.016 A 
HETATM   24  C   UNL     1      44.122 -20.787   2.902  1.00  0.00    -0.025 A 
HETATM   25  C   UNL     1      44.711 -20.715   5.251  1.00  0.00     0.013 A 
HETATM   26  C   UNL     1      44.340 -22.175   2.919  1.00  0.00     0.012 A 
HETATM   27  C   UNL     1      43.718 -20.155   1.716  1.00  0.00     0.012 A 
HETATM   28  C   UNL     1      44.741 -22.825   4.085  1.00  0.00     0.001 A 
HETATM   29  C   UNL     1      44.924 -22.095   5.252  1.00  0.00     0.001 A 
HETATM   30  C   UNL     1      43.508 -18.781   1.674  1.00  0.00     0.002 A 
HETATM   31  C   UNL     1      43.701 -18.016   2.821  1.00  0.00     0.012 A 
ENDBRANCH  21  22
ENDBRANCH   1  20
TORSDOF 4
ENDMDL
MODEL 2
REMARK VINA RESULT:      -9.7      6.145      9.102
REMARK  4 active torsions:
REMARK  status: ('A' for Active; 'I' for Inactive)
REMARK    1  A    between atoms: C_5  and  C_6 
REMARK    2  A    between atoms: C_7  and  C_8 
REMARK       I    between atoms: C_8  and  N_9 
REMARK    3  A    between atoms: N_9  and  C_10 
REMARK    4  A    between atoms: C_17  and  C_18 
REMARK       I    between atoms: C_18  and  N_19 
ROOT
HETATM    1  C   UNL     1      40.959 -15.707   2.483  1.00  0.00     0.245 C 
HETATM    2  N   UNL     1      41.635 -15.555   1.290  1.00  0.00    -0.324 N 
HETATM    3  O   UNL     1      39.925 -15.153   2.828  1.00  0.00    -0.268 OA
HETATM    4  H   UNL     1      42.500 -16.068   1.183  1.00  0.00     0.169 HD
ENDROOT
BRANCH   2   5
HETATM    5  C   UNL     1      41.297 -14.700   0.217  1.00  0.00     0.035 A 
HETATM    6  C   UNL     1      40.522 -15.096  -0.882  1.00  0.00     0.046 A 
HETATM    7  C   UNL     1      40.214 -14.160  -1.894  1.00  0.00     0.030 A 
HETATM    8  C   UNL     1      40.695 -12.862  -1.775  1.00  0.00     0.063 A 
HETATM    9  C   UNL     1      39.481 -14.171  -3.119  1.00  0.00     0.156 A 
HETATM   10  N   UNL     1      40.235 -12.201  -2.879  1.00  0.00    -0.277 N 
HETATM   11  C   UNL     1      41.477 -12.435  -0.702  1.00  0.00     0.034 A 
HETATM   12  H   UNL     1      40.389 -11.229  -3.121  1.00  0.00     0.189 HD
HETATM   13  N   UNL     1      39.501 -12.955  -3.713  1.00  0.00    -0.168 NA
HETATM   14  C   UNL     1      41.769 -13.381   0.289  1.00  0.00     0.032 A 
BRANCH   9  15
HETATM   15  C   UNL     1      38.767 -15.301  -3.730  1.00  0.00     0.270 C 
HETATM   16  N   UNL     1      37.508 -15.501  -3.232  1.00  0.00    -0.365 N 
HETATM   17  H   UNL     1      37.169 -14.880  -2.508  1.00  0.00     0.159 HD
HETATM   18  H   UNL     1      36.943 -16.253  -3.594  1.00  0.00     0.159 HD
HETATM   19  O   UNL     1      39.223 -16.024  -4.609  1.00  0.00    -0.266 OA
ENDBRANCH   9  15
ENDBRANCH   2   5
BRANCH   1  20
HETATM   20  C   UNL     1      41.666 -16.644   3.401  1.00  0.00     0.075 C 
HETATM   21  C   UNL     1      42.800 -17.233   2.992  1.00  0.00     0.018 C 
BRANCH  21  22
HETATM   22  C   UNL     1      43.569 -18.187   3.812  1.00  0.00    -0.025 A 
HETATM   23  C   UNL     1      43.834 -19.513   3.361  1.00  0.00    -0.016 A 
HETATM   24  C   UNL     1      44.518 -20.403   4.230  1.00  0.00    -0.025 A 
HETATM   25  C   UNL     1      43.459 -20.003   2.087  1.00  0.00     0.013 A 
HETATM   26  C   UNL     1      44.785 -21.720   3.821  1.00  0.00     0.012 A 
HETATM   27  C   UNL     1      44.923 -19.968   5.501  1.00  0.00     0.012 A 
HETATM   28  C   UNL     1      44.393 -22.175   2.563  1.00  0.00     0.001 A 
HETATM   29  C   UNL     1      43.732 -21.316   1.695  1.00  0.00     0.001 A 
HETATM   30  C   UNL     1      44.657 -18.672   5.931  1.00  0.00     0.002 A 
HETATM   31  C   UNL     1      43.980 -17.790   5.095  1.00  0.00     0.012 A 
ENDBRANCH  21  22
ENDBRANCH   1  20
TORSDOF 4
ENDMDL
MODEL 3
REMARK VINA RESULT:      -9.6      5.970      8.950
REMARK  4 active torsions:
REMARK  status: ('A' for Active; 'I' for Inactive)
REMARK    1  A    between atoms: C_5  and  C_6 
REMARK    2  A    between atoms: C_7  and  C_8 
REMARK       I    between atoms: C_8  and  N_9 
REMARK    3  A    between atoms: N_9  and  C_10 
REMARK    4  A    between atoms: C_17  and  C_18 
REMARK       I    between atoms: C_18  and  N_19 
ROOT
HETATM    1  C   UNL     1      41.680 -15.064   2.921  1.00  0.00     0.245 C 
HETATM    2  N   UNL     1      40.732 -15.616   2.084  1.00  0.00    -0.324 N 
HETATM    3  O   UNL     1      42.048 -13.898   2.962  1.00  0.00    -0.268 OA
HETATM    4  H   UNL     1      40.574 -16.612   2.162  1.00  0.00     0.169 HD
ENDROOT
BRANCH   2   5
HETATM    5  C   UNL     1      40.000 -14.961   1.069  1.00  0.00     0.035 A 
HETATM    6  C   UNL     1      40.483 -14.753  -0.230  1.00  0.00     0.046 A 
HETATM    7  C   UNL     1      39.665 -14.109  -1.186  1.00  0.00     0.030 A 
HETATM    8  C   UNL     1      38.395 -13.693  -0.808  1.00  0.00     0.063 A 
HETATM    9  C   UNL     1      39.786 -13.730  -2.557  1.00  0.00     0.156 A 
HETATM   10  N   UNL     1      37.852 -13.124  -1.926  1.00  0.00    -0.277 N 
HETATM   11  C   UNL     1      37.885 -13.874   0.477  1.00  0.00     0.034 A 
HETATM   12  H   UNL     1      36.929 -12.715  -2.019  1.00  0.00     0.189 HD
HETATM   13  N   UNL     1      38.658 -13.126  -2.999  1.00  0.00    -0.168 NA
HETATM   14  C   UNL     1      38.715 -14.513   1.407  1.00  0.00     0.032 A 
BRANCH   9  15
HETATM   15  C   UNL     1      40.938 -13.929  -3.447  1.00  0.00     0.270 C 
HETATM   16  N   UNL     1      41.557 -12.770  -3.829  1.00  0.00    -0.365 N 
HETATM   17  H   UNL     1      41.192 -11.890  -3.484  1.00  0.00     0.159 HD
HETATM   18  H   UNL     1      42.359 -12.810  -4.437  1.00  0.00     0.159 HD
HETATM   19  O   UNL     1      41.344 -15.020  -3.834  1.00  0.00    -0.266 OA
ENDBRANCH   9  15
ENDBRANCH   2   5
BRANCH   1  20
HETATM   20  C   UNL     1      42.292 -16.089   3.813  1.00  0.00     0.075 C 
HETATM   21  C   UNL     1      43.071 -17.043   3.279  1.00  0.00     0.018 C 
BRANCH  21  22
HETATM   22  C   UNL     1      43.711 -18.112   4.066  1.00  0.00    -0.025 A 
HETATM   23  C   UNL     1      43.914 -19.415   3.526  1.00  0.00    -0.016 A 
HETATM   24  C   UNL     1      44.471 -20.419   4.361  1.00  0.00    -0.025 A 
HETATM   25  C   UNL     1      43.597 -19.776   2.195  1.00  0.00     0.013 A 
HETATM   26  C   UNL     1      44.675 -21.716   3.864  1.00  0.00     0.012 A 
HETATM   27  C   UNL     1      44.815 -20.115   5.687  1.00  0.00     0.012 A 
HETATM   28  C   UNL     1      44.341 -22.042   2.550  1.00  0.00     0.001 A 
HETATM   29  C   UNL     1      43.806 -21.071   1.714  1.00  0.00     0.001 A 
HETATM   30  C   UNL     1      44.610 -18.839   6.205  1.00  0.00     0.002 A 
HETATM   31  C   UNL     1      44.057 -17.847   5.401  1.00  0.00     0.012 A 
ENDBRANCH  21  22
ENDBRANCH   1  20
TORSDOF 4
ENDMDL
MODEL 4
REMARK VINA RESULT:      -9.5      6.173      8.667
REMARK  4 active torsions:
REMARK  status: ('A' for Active; 'I' for Inactive)
REMARK    1  A    between atoms: C_5  and  C_6 
REMARK    2  A    between atoms: C_7  and  C_8 
REMARK       I    between atoms: C_8  and  N_9 
REMARK    3  A    between atoms: N_9  and  C_10 
REMARK    4  A    between atoms: C_17  and  C_18 
REMARK       I    between atoms: C_18  and  N_19 
ROOT
HETATM    1  C   UNL     1      40.916 -16.128   1.559  1.00  0.00     0.245 C 
HETATM    2  N   UNL     1      41.808 -15.855   0.542  1.00  0.00    -0.324 N 
HETATM    3  O   UNL     1      39.762 -15.735   1.662  1.00  0.00    -0.268 OA
HETATM    4  H   UNL     1      42.740 -16.236   0.634  1.00  0.00     0.169 HD
ENDROOT
BRANCH   2   5
HETATM    5  C   UNL     1      41.593 -15.035  -0.588  1.00  0.00     0.035 A 
HETATM    6  C   UNL     1      42.020 -13.704  -0.679  1.00  0.00     0.046 A 
HETATM    7  C   UNL     1      41.780 -12.972  -1.863  1.00  0.00     0.030 A 
HETATM    8  C   UNL     1      41.120 -13.595  -2.915  1.00  0.00     0.063 A 
HETATM    9  C   UNL     1      42.050 -11.649  -2.330  1.00  0.00     0.156 A 
HETATM   10  N   UNL     1      41.046 -12.657  -3.905  1.00  0.00    -0.277 N 
HETATM   11  C   UNL     1      40.672 -14.915  -2.857  1.00  0.00     0.034 A 
HETATM   12  H   UNL     1      40.631 -12.765  -4.823  1.00  0.00     0.189 HD
HETATM   13  N   UNL     1      41.594 -11.472  -3.591  1.00  0.00    -0.168 NA
HETATM   14  C   UNL     1      40.920 -15.619  -1.672  1.00  0.00     0.032 A 
BRANCH   9  15
HETATM   15  C   UNL     1      42.729 -10.563  -1.609  1.00  0.00     0.270 C 
HETATM   16  N   UNL     1      42.172  -9.328  -1.807  1.00  0.00    -0.365 N 
HETATM   17  H   UNL     1      41.363  -9.253  -2.412  1.00  0.00     0.159 HD
HETATM   18  H   UNL     1      42.570  -8.523  -1.349  1.00  0.00     0.159 HD
HETATM   19  O   UNL     1      43.707 -10.708  -0.883  1.00  0.00    -0.266 OA
ENDBRANCH   9  15
ENDBRANCH   2   5
BRANCH   1  20
HETATM   20  C   UNL     1      41.531 -16.973   2.620  1.00  0.00     0.075 C 
HETATM   21  C   UNL     1      42.819 -17.333   2.507  1.00  0.00     0.018 C 
BRANCH  21  22
HETATM   22  C   UNL     1      43.522 -18.180   3.489  1.00  0.00    -0.025 A 
HETATM   23  C   UNL     1      43.829 -19.543   3.214  1.00  0.00    -0.016 A 
HETATM   24  C   UNL     1      44.443 -20.322   4.230  1.00  0.00    -0.025 A 
HETATM   25  C   UNL     1      43.565 -20.178   1.976  1.00  0.00     0.013 A 
HETATM   26  C   UNL     1      44.750 -21.672   3.994  1.00  0.00     0.012 A 
HETATM   27  C   UNL     1      44.738 -19.742   5.473  1.00  0.00     0.012 A 
HETATM   28  C   UNL     1      44.466 -22.269   2.767  1.00  0.00     0.001 A 
HETATM   29  C   UNL     1      43.876 -21.521   1.757  1.00  0.00     0.001 A 
HETATM   30  C   UNL     1      44.431 -18.410   5.732  1.00  0.00     0.002 A 
HETATM   31  C   UNL     1      43.822 -17.636   4.749  1.00  0.00     0.012 A 
ENDBRANCH  21  22
ENDBRANCH   1  20
TORSDOF 4
ENDMDL
MODEL 5
REMARK VINA RESULT:      -9.1      6.636      9.414
REMARK  4 active torsions:
REMARK  status: ('A' for Active; 'I' for Inactive)
REMARK    1  A    between atoms: C_5  and  C_6 
REMARK    2  A    between atoms: C_7  and  C_8 
REMARK       I    between atoms: C_8  and  N_9 
REMARK    3  A    between atoms: N_9  and  C_10 
REMARK    4  A    between atoms: C_17  and  C_18 
REMARK       I    between atoms: C_18  and  N_19 
ROOT
HETATM    1  C   UNL     1      41.468 -16.102   0.342  1.00  0.00     0.245 C 
HETATM    2  N   UNL     1      41.786 -15.758  -0.956  1.00  0.00    -0.324 N 
HETATM    3  O   UNL     1      40.536 -15.683   1.016  1.00  0.00    -0.268 OA
HETATM    4  H   UNL     1      42.616 -16.178  -1.352  1.00  0.00     0.169 HD
ENDROOT
BRANCH   2   5
HETATM    5  C   UNL     1      41.123 -14.822  -1.781  1.00  0.00     0.035 A 
HETATM    6  C   UNL     1      41.371 -13.443  -1.752  1.00  0.00     0.046 A 
HETATM    7  C   UNL     1      40.675 -12.589  -2.636  1.00  0.00     0.030 A 
HETATM    8  C   UNL     1      39.752 -13.142  -3.515  1.00  0.00     0.063 A 
HETATM    9  C   UNL     1      40.648 -11.187  -2.906  1.00  0.00     0.156 A 
HETATM   10  N   UNL     1      39.258 -12.089  -4.233  1.00  0.00    -0.277 N 
HETATM   11  C   UNL     1      39.471 -14.507  -3.565  1.00  0.00     0.034 A 
HETATM   12  H   UNL     1      38.564 -12.122  -4.971  1.00  0.00     0.189 HD
HETATM   13  N   UNL     1      39.772 -10.896  -3.896  1.00  0.00    -0.168 NA
HETATM   14  C   UNL     1      40.174 -15.333  -2.678  1.00  0.00     0.032 A 
BRANCH   9  15
HETATM   15  C   UNL     1      41.432 -10.130  -2.252  1.00  0.00     0.270 C 
HETATM   16  N   UNL     1      42.723 -10.036  -2.698  1.00  0.00    -0.365 N 
HETATM   17  H   UNL     1      43.035 -10.675  -3.419  1.00  0.00     0.159 HD
HETATM   18  H   UNL     1      43.335  -9.337  -2.308  1.00  0.00     0.159 HD
HETATM   19  O   UNL     1      41.006  -9.377  -1.383  1.00  0.00    -0.266 OA
ENDBRANCH   9  15
ENDBRANCH   2   5
BRANCH   1  20
HETATM   20  C   UNL     1      42.447 -17.070   0.911  1.00  0.00     0.075 C 
HETATM   21  C   UNL     1      42.035 -17.955   1.832  1.00  0.00     0.018 C 
BRANCH  21  22
HETATM   22  C   UNL     1      42.922 -18.944   2.471  1.00  0.00    -0.025 A 
HETATM   23  C   UNL     1      43.541 -18.688   3.729  1.00  0.00    -0.016 A 
HETATM   24  C   UNL     1      44.440 -19.652   4.254  1.00  0.00    -0.025 A 
HETATM   25  C   UNL     1      43.311 -17.523   4.499  1.00  0.00     0.013 A 
HETATM   26  C   UNL     1      45.075 -19.426   5.486  1.00  0.00     0.012 A 
HETATM   27  C   UNL     1      44.698 -20.831   3.538  1.00  0.00     0.012 A 
HETATM   28  C   UNL     1      44.834 -18.262   6.215  1.00  0.00     0.001 A 
HETATM   29  C   UNL     1      43.950 -17.312   5.723  1.00  0.00     0.001 A 
HETATM   30  C   UNL     1      44.090 -21.070   2.310  1.00  0.00     0.002 A 
HETATM   31  C   UNL     1      43.213 -20.130   1.778  1.00  0.00     0.012 A 
ENDBRANCH  21  22
ENDBRANCH   1  20
TORSDOF 4
ENDMDL
MODEL 6
REMARK VINA RESULT:      -9.0      5.949      8.467
REMARK  4 active torsions:
REMARK  status: ('A' for Active; 'I' for Inactive)
REMARK    1  A    between atoms: C_5  and  C_6 
REMARK    2  A    between atoms: C_7  and  C_8 
REMARK       I    between atoms: C_8  and  N_9 
REMARK    3  A    between atoms: N_9  and  C_10 
REMARK    4  A    between atoms: C_17  and  C_18 
REMARK       I    between atoms: C_18  and  N_19 
ROOT
HETATM    1  C   UNL     1      42.436 -14.947   2.139  1.00  0.00     0.245 C 
HETATM    2  N   UNL     1      41.527 -15.598   1.330  1.00  0.00    -0.324 N 
HETATM    3  O   UNL     1      42.778 -13.774   2.080  1.00  0.00    -0.268 OA
HETATM    4  H   UNL     1      41.387 -16.585   1.498  1.00  0.00     0.169 HD
ENDROOT
BRANCH   2   5
HETATM    5  C   UNL     1      40.817 -15.059   0.234  1.00  0.00     0.035 A 
HETATM    6  C   UNL     1      39.822 -14.080   0.355  1.00  0.00     0.046 A 
HETATM    7  C   UNL     1      39.184 -13.584  -0.805  1.00  0.00     0.030 A 
HETATM    8  C   UNL     1      39.561 -14.087  -2.044  1.00  0.00     0.063 A 
HETATM    9  C   UNL     1      38.168 -12.623  -1.091  1.00  0.00     0.156 A 
HETATM   10  N   UNL     1      38.791 -13.422  -2.956  1.00  0.00    -0.277 N 
HETATM   11  C   UNL     1      40.540 -15.069  -2.202  1.00  0.00     0.034 A 
HETATM   12  H   UNL     1      38.801 -13.531  -3.963  1.00  0.00     0.189 HD
HETATM   13  N   UNL     1      37.939 -12.532  -2.422  1.00  0.00    -0.168 NA
HETATM   14  C   UNL     1      41.156 -15.545  -1.037  1.00  0.00     0.032 A 
BRANCH   9  15
HETATM   15  C   UNL     1      37.419 -11.795  -0.135  1.00  0.00     0.270 C 
HETATM   16  N   UNL     1      36.585 -12.506   0.686  1.00  0.00    -0.365 N 
HETATM   17  H   UNL     1      36.544 -13.512   0.580  1.00  0.00     0.159 HD
HETATM   18  H   UNL     1      36.033 -12.021   1.376  1.00  0.00     0.159 HD
HETATM   19  O   UNL     1      37.507 -10.575  -0.045  1.00  0.00    -0.266 OA
ENDBRANCH   9  15
ENDBRANCH   2   5
BRANCH   1  20
HETATM   20  C   UNL     1      43.039 -15.868   3.143  1.00  0.00     0.075 C 
HETATM   21  C   UNL     1      43.225 -17.157   2.822  1.00  0.00     0.018 C 
BRANCH  21  22
HETATM   22  C   UNL     1      43.798 -18.156   3.744  1.00  0.00    -0.025 A 
HETATM   23  C   UNL     1      43.993 -19.510   3.347  1.00  0.00    -0.016 A 
HETATM   24  C   UNL     1      44.481 -20.436   4.306  1.00  0.00    -0.025 A 
HETATM   25  C   UNL     1      43.734 -19.996   2.043  1.00  0.00     0.013 A 
HETATM   26  C   UNL     1      44.676 -21.781   3.950  1.00  0.00     0.012 A 
HETATM   27  C   UNL     1      44.766 -20.008   5.611  1.00  0.00     0.012 A 
HETATM   28  C   UNL     1      44.401 -22.230   2.660  1.00  0.00     0.001 A 
HETATM   29  C   UNL     1      43.933 -21.337   1.705  1.00  0.00     0.001 A 
HETATM   30  C   UNL     1      44.569 -18.683   5.988  1.00  0.00     0.002 A 
HETATM   31  C   UNL     1      44.082 -17.765   5.062  1.00  0.00     0.012 A 
ENDBRANCH  21  22
ENDBRANCH   1  20
TORSDOF 4
ENDMDL
MODEL 7
REMARK VINA RESULT:      -8.9      3.837      4.885
REMARK  4 active torsions:
REMARK  status: ('A' for Active; 'I' for Inactive)
REMARK    1  A    between atoms: C_5  and  C_6 
REMARK    2  A    between atoms: C_7  and  C_8 
REMARK       I    between atoms: C_8  and  N_9 
REMARK    3  A    between atoms: N_9  and  C_10 
REMARK    4  A    between atoms: C_17  and  C_18 
REMARK       I    between atoms: C_18  and  N_19 
ROOT
HETATM    1  C   UNL     1      42.222 -16.003   4.584  1.00  0.00     0.245 C 
HETATM    2  N   UNL     1      40.921 -15.646   4.877  1.00  0.00    -0.324 N 
HETATM    3  O   UNL     1      43.131 -15.270   4.221  1.00  0.00    -0.268 OA
HETATM    4  H   UNL     1      40.287 -16.391   5.132  1.00  0.00     0.169 HD
ENDROOT
BRANCH   2   5
HETATM    5  C   UNL     1      40.346 -14.358   4.789  1.00  0.00     0.035 A 
HETATM    6  C   UNL     1      40.202 -13.493   5.882  1.00  0.00     0.046 A 
HETATM    7  C   UNL     1      39.637 -12.212   5.689  1.00  0.00     0.030 A 
HETATM    8  C   UNL     1      39.234 -11.843   4.412  1.00  0.00     0.063 A 
HETATM    9  C   UNL     1      39.335 -11.085   6.512  1.00  0.00     0.156 A 
HETATM   10  N   UNL     1      38.746 -10.572   4.538  1.00  0.00    -0.277 N 
HETATM   11  C   UNL     1      39.353 -12.681   3.304  1.00  0.00     0.034 A 
HETATM   12  H   UNL     1      38.367  -9.985   3.804  1.00  0.00     0.189 HD
HETATM   13  N   UNL     1      38.789 -10.081   5.787  1.00  0.00    -0.168 NA
HETATM   14  C   UNL     1      39.914 -13.946   3.521  1.00  0.00     0.032 A 
BRANCH   9  15
HETATM   15  C   UNL     1      39.555 -10.943   7.958  1.00  0.00     0.270 C 
HETATM   16  N   UNL     1      40.852 -11.142   8.348  1.00  0.00    -0.365 N 
HETATM   17  H   UNL     1      41.542 -11.365   7.640  1.00  0.00     0.159 HD
HETATM   18  H   UNL     1      41.098 -11.062   9.322  1.00  0.00     0.159 HD
HETATM   19  O   UNL     1      38.683 -10.668   8.776  1.00  0.00    -0.266 OA
ENDBRANCH   9  15
ENDBRANCH   2   5
BRANCH   1  20
HETATM   20  C   UNL     1      42.434 -17.471   4.722  1.00  0.00     0.075 C 
HETATM   21  C   UNL     1      43.674 -17.938   4.935  1.00  0.00     0.018 C 
BRANCH  21  22
HETATM   22  C   UNL     1      43.999 -19.370   5.070  1.00  0.00    -0.025 A 
HETATM   23  C   UNL     1      44.146 -20.211   3.929  1.00  0.00    -0.016 A 
HETATM   24  C   UNL     1      44.387 -21.595   4.132  1.00  0.00    -0.025 A 
HETATM   25  C   UNL     1      44.071 -19.750   2.593  1.00  0.00     0.013 A 
HETATM   26  C   UNL     1      44.526 -22.454   3.029  1.00  0.00     0.012 A 
HETATM   27  C   UNL     1      44.482 -22.106   5.435  1.00  0.00     0.012 A 
HETATM   28  C   UNL     1      44.436 -21.970   1.725  1.00  0.00     0.001 A 
HETATM   29  C   UNL     1      44.211 -20.617   1.507  1.00  0.00     0.001 A 
HETATM   30  C   UNL     1      44.334 -21.275   6.541  1.00  0.00     0.002 A 
HETATM   31  C   UNL     1      44.088 -19.918   6.359  1.00  0.00     0.012 A 
ENDBRANCH  21  22
ENDBRANCH   1  20
TORSDOF 4
ENDMDL
MODEL 8
REMARK VINA RESULT:      -8.8      3.971      4.670
REMARK  4 active torsions:
REMARK  status: ('A' for Active; 'I' for Inactive)
REMARK    1  A    between atoms: C_5  and  C_6 
REMARK    2  A    between atoms: C_7  and  C_8 
REMARK       I    between atoms: C_8  and  N_9 
REMARK    3  A    between atoms: N_9  and  C_10 
REMARK    4  A    between atoms: C_17  and  C_18 
REMARK       I    between atoms: C_18  and  N_19 
ROOT
HETATM    1  C   UNL     1      42.070 -15.946   4.126  1.00  0.00     0.245 C 
HETATM    2  N   UNL     1      40.737 -15.596   4.194  1.00  0.00    -0.324 N 
HETATM    3  O   UNL     1      43.040 -15.208   4.229  1.00  0.00    -0.268 OA
HETATM    4  H   UNL     1      40.060 -16.333   4.053  1.00  0.00     0.169 HD
ENDROOT
BRANCH   2   5
HETATM    5  C   UNL     1      40.200 -14.300   4.367  1.00  0.00     0.035 A 
HETATM    6  C   UNL     1      40.116 -13.649   5.605  1.00  0.00     0.046 A 
HETATM    7  C   UNL     1      39.585 -12.341   5.672  1.00  0.00     0.030 A 
HETATM    8  C   UNL     1      39.155 -11.732   4.500  1.00  0.00     0.063 A 
HETATM    9  C   UNL     1      39.344 -11.379   6.699  1.00  0.00     0.156 A 
HETATM   10  N   UNL     1      38.710 -10.495   4.876  1.00  0.00    -0.277 N 
HETATM   11  C   UNL     1      39.214 -12.353   3.252  1.00  0.00     0.034 A 
HETATM   12  H   UNL     1      38.328  -9.772   4.276  1.00  0.00     0.189 HD
HETATM   13  N   UNL     1      38.807 -10.245   6.191  1.00  0.00    -0.168 NA
HETATM   14  C   UNL     1      39.742 -13.649   3.212  1.00  0.00     0.032 A 
BRANCH   9  15
HETATM   15  C   UNL     1      39.613 -11.513   8.137  1.00  0.00     0.270 C 
HETATM   16  N   UNL     1      38.877 -12.488   8.754  1.00  0.00    -0.365 N 
HETATM   17  H   UNL     1      38.226 -13.029   8.198  1.00  0.00     0.159 HD
HETATM   18  H   UNL     1      38.997 -12.654   9.741  1.00  0.00     0.159 HD
HETATM   19  O   UNL     1      40.417 -10.833   8.766  1.00  0.00    -0.266 OA
ENDBRANCH   9  15
ENDBRANCH   2   5
BRANCH   1  20
HETATM   20  C   UNL     1      42.244 -17.402   3.859  1.00  0.00     0.075 C 
HETATM   21  C   UNL     1      43.430 -17.852   3.421  1.00  0.00     0.018 C 
BRANCH  21  22
HETATM   22  C   UNL     1      43.705 -19.267   3.111  1.00  0.00    -0.025 A 
HETATM   23  C   UNL     1      44.014 -20.207   4.136  1.00  0.00    -0.016 A 
HETATM   24  C   UNL     1      44.339 -21.538   3.763  1.00  0.00    -0.025 A 
HETATM   25  C   UNL     1      44.012 -19.899   5.518  1.00  0.00     0.013 A 
HETATM   26  C   UNL     1      44.658 -22.487   4.747  1.00  0.00     0.012 A 
HETATM   27  C   UNL     1      44.346 -21.903   2.408  1.00  0.00     0.012 A 
HETATM   28  C   UNL     1      44.658 -22.148   6.100  1.00  0.00     0.001 A 
HETATM   29  C   UNL     1      44.332 -20.855   6.485  1.00  0.00     0.001 A 
HETATM   30  C   UNL     1      44.045 -20.975   1.416  1.00  0.00     0.002 A 
HETATM   31  C   UNL     1      43.733 -19.665   1.765  1.00  0.00     0.012 A 
ENDBRANCH  21  22
ENDBRANCH   1  20
TORSDOF 4
ENDMDL
MODEL 9
REMARK VINA RESULT:      -8.7      5.865      7.374
REMARK  4 active torsions:
REMARK  status: ('A' for Active; 'I' for Inactive)
REMARK    1  A    between atoms: C_5  and  C_6 
REMARK    2  A    between atoms: C_7  and  C_8 
REMARK       I    between atoms: C_8  and  N_9 
REMARK    3  A    between atoms: N_9  and  C_10 
REMARK    4  A    between atoms: C_17  and  C_18 
REMARK       I    between atoms: C_18  and  N_19 
ROOT
HETATM    1  C   UNL     1      42.179 -14.286   2.634  1.00  0.00     0.245 C 
HETATM    2  N   UNL     1      40.858 -14.638   2.816  1.00  0.00    -0.324 N 
HETATM    3  O   UNL     1      42.615 -13.335   2.001  1.00  0.00    -0.268 OA
HETATM    4  H   UNL     1      40.675 -15.481   3.344  1.00  0.00     0.169 HD
ENDROOT
BRANCH   2   5
HETATM    5  C   UNL     1      39.719 -13.994   2.284  1.00  0.00     0.035 A 
HETATM    6  C   UNL     1      39.375 -12.663   2.558  1.00  0.00     0.046 A 
HETATM    7  C   UNL     1      38.228 -12.099   1.956  1.00  0.00     0.030 A 
HETATM    8  C   UNL     1      37.463 -12.885   1.103  1.00  0.00     0.063 A 
HETATM    9  C   UNL     1      37.571 -10.831   1.978  1.00  0.00     0.156 A 
HETATM   10  N   UNL     1      36.447 -12.077   0.677  1.00  0.00    -0.277 N 
HETATM   11  C   UNL     1      37.769 -14.215   0.815  1.00  0.00     0.034 A 
HETATM   12  H   UNL     1      35.698 -12.318   0.039  1.00  0.00     0.189 HD
HETATM   13  N   UNL     1      36.476 -10.833   1.182  1.00  0.00    -0.168 NA
HETATM   14  C   UNL     1      38.910 -14.752   1.425  1.00  0.00     0.032 A 
BRANCH   9  15
HETATM   15  C   UNL     1      37.960  -9.630   2.729  1.00  0.00     0.270 C 
HETATM   16  N   UNL     1      37.852  -9.761   4.088  1.00  0.00    -0.365 N 
HETATM   17  H   UNL     1      37.524 -10.642   4.464  1.00  0.00     0.159 HD
HETATM   18  H   UNL     1      38.100  -8.988   4.684  1.00  0.00     0.159 HD
HETATM   19  O   UNL     1      38.355  -8.584   2.224  1.00  0.00    -0.266 OA
ENDBRANCH   9  15
ENDBRANCH   2   5
BRANCH   1  20
HETATM   20  C   UNL     1      43.103 -15.253   3.291  1.00  0.00     0.075 C 
HETATM   21  C   UNL     1      42.689 -16.511   3.509  1.00  0.00     0.018 C 
BRANCH  21  22
HETATM   22  C   UNL     1      43.514 -17.542   4.164  1.00  0.00    -0.025 A 
HETATM   23  C   UNL     1      43.739 -18.813   3.559  1.00  0.00    -0.016 A 
HETATM   24  C   UNL     1      44.483 -19.786   4.276  1.00  0.00    -0.025 A 
HETATM   25  C   UNL     1      43.268 -19.169   2.273  1.00  0.00     0.013 A 
HETATM   26  C   UNL     1      44.714 -21.051   3.712  1.00  0.00     0.012 A 
HETATM   27  C   UNL     1      44.985 -19.484   5.551  1.00  0.00     0.012 A 
HETATM   28  C   UNL     1      44.227 -21.374   2.447  1.00  0.00     0.001 A 
HETATM   29  C   UNL     1      43.506 -20.432   1.726  1.00  0.00     0.001 A 
HETATM   30  C   UNL     1      44.757 -18.241   6.133  1.00  0.00     0.002 A 
HETATM   31  C   UNL     1      44.021 -17.279   5.447  1.00  0.00     0.012 A 
ENDBRANCH  21  22
ENDBRANCH   1  20
TORSDOF 4
ENDMDL
MODEL 10
REMARK VINA RESULT:      -8.5      6.190      9.982
REMARK  4 active torsions:
REMARK  status: ('A' for Active; 'I' for Inactive)
REMARK    1  A    between atoms: C_5  and  C_6 
REMARK    2  A    between atoms: C_7  and  C_8 
REMARK       I    between atoms: C_8  and  N_9 
REMARK    3  A    between atoms: N_9  and  C_10 
REMARK    4  A    between atoms: C_17  and  C_18 
REMARK       I    between atoms: C_18  and  N_19 
ROOT
HETATM    1  C   UNL     1      41.423 -16.413   0.999  1.00  0.00     0.245 C 
HETATM    2  N   UNL     1      42.731 -16.713   1.321  1.00  0.00    -0.324 N 
HETATM    3  O   UNL     1      40.416 -16.698   1.633  1.00  0.00    -0.268 OA
HETATM    4  H   UNL     1      43.443 -16.429   0.662  1.00  0.00     0.169 HD
ENDROOT
BRANCH   2   5
HETATM    5  C   UNL     1      43.191 -17.444   2.439  1.00  0.00     0.035 A 
HETATM    6  C   UNL     1      43.550 -18.798   2.393  1.00  0.00     0.046 A 
HETATM    7  C   UNL     1      44.025 -19.436   3.560  1.00  0.00     0.030 A 
HETATM    8  C   UNL     1      44.122 -18.699   4.734  1.00  0.00     0.063 A 
HETATM    9  C   UNL     1      44.476 -20.745   3.908  1.00  0.00     0.156 A 
HETATM   10  N   UNL     1      44.611 -19.568   5.669  1.00  0.00    -0.277 N 
HETATM   11  C   UNL     1      43.766 -17.353   4.821  1.00  0.00     0.034 A 
HETATM   12  H   UNL     1      44.814 -19.371   6.642  1.00  0.00     0.189 HD
HETATM   13  N   UNL     1      44.837 -20.809   5.211  1.00  0.00    -0.168 NA
HETATM   14  C   UNL     1      43.296 -16.743   3.650  1.00  0.00     0.032 A 
BRANCH   9  15
HETATM   15  C   UNL     1      44.572 -21.924   3.035  1.00  0.00     0.270 C 
HETATM   16  N   UNL     1      44.741 -23.104   3.707  1.00  0.00    -0.365 N 
HETATM   17  H   UNL     1      44.786 -23.084   4.719  1.00  0.00     0.159 HD
HETATM   18  H   UNL     1      44.814 -23.966   3.190  1.00  0.00     0.159 HD
HETATM   19  O   UNL     1      44.508 -21.896   1.811  1.00  0.00    -0.266 OA
ENDBRANCH   9  15
ENDBRANCH   2   5
BRANCH   1  20
HETATM   20  C   UNL     1      41.327 -15.692  -0.301  1.00  0.00     0.075 C 
HETATM   21  C   UNL     1      41.692 -14.402  -0.364  1.00  0.00     0.018 C 
BRANCH  21  22
HETATM   22  C   UNL     1      41.622 -13.591  -1.593  1.00  0.00    -0.025 A 
HETATM   23  C   UNL     1      42.114 -12.254  -1.633  1.00  0.00    -0.016 A 
HETATM   24  C   UNL     1      41.951 -11.504  -2.827  1.00  0.00    -0.025 A 
HETATM   25  C   UNL     1      42.768 -11.621  -0.549  1.00  0.00     0.013 A 
HETATM   26  C   UNL     1      42.416 -10.181  -2.897  1.00  0.00     0.012 A 
HETATM   27  C   UNL     1      41.320 -12.085  -3.938  1.00  0.00     0.012 A 
HETATM   28  C   UNL     1      43.046  -9.582  -1.807  1.00  0.00     0.001 A 
HETATM   29  C   UNL     1      43.225 -10.303  -0.634  1.00  0.00     0.001 A 
HETATM   30  C   UNL     1      40.841 -13.390  -3.887  1.00  0.00     0.002 A 
HETATM   31  C   UNL     1      40.985 -14.135  -2.720  1.00  0.00     0.012 A 
ENDBRANCH  21  22
ENDBRANCH   1  20
TORSDOF 4
ENDMDL
