MODEL 1
REMARK VINA RESULT:      -7.3      0.000      0.000
REMARK  6 active torsions:
REMARK  status: ('A' for Active; 'I' for Inactive)
REMARK    1  A    between atoms: C_2  and  S_3 
REMARK    2  A    between atoms: C_2  and  C_11 
REMARK    3  A    between atoms: S_3  and  C_4 
REMARK    4  A    between atoms: C_4  and  C_5 
REMARK       I    between atoms: C_11  and  N_12 
REMARK    5  A    between atoms: N_12  and  C_13 
REMARK    6  A    between atoms: C_15  and  C_16 
ROOT
HETATM    1  C   UNL     1      39.577 -15.441   1.923  1.00  0.00     0.235 C 
HETATM    2  N   UNL     1      40.245 -16.575   1.564  1.00  0.00    -0.326 N 
HETATM    3  O   UNL     1      38.359 -15.433   1.693  1.00  0.00    -0.272 OA
HETATM    4  H   UNL     1      39.606 -17.198   1.081  1.00  0.00     0.169 HD
ENDROOT
BRANCH   2   5
HETATM    5  C   UNL     1      41.569 -17.037   1.666  1.00  0.00     0.035 A 
HETATM    6  C   UNL     1      41.962 -18.353   1.904  1.00  0.00     0.042 A 
HETATM    7  C   UNL     1      43.322 -18.706   1.998  1.00  0.00    -0.021 A 
HETATM    8  C   UNL     1      44.297 -17.716   1.843  1.00  0.00     0.012 A 
HETATM    9  C   UNL     1      43.922 -16.402   1.578  1.00  0.00     0.003 A 
HETATM   10  C   UNL     1      42.569 -16.070   1.483  1.00  0.00     0.029 A 
BRANCH   7  11
HETATM   11  C   UNL     1      43.718 -20.080   2.256  1.00  0.00     0.010 A 
HETATM   12  C   UNL     1      43.356 -21.286   1.610  1.00  0.00     0.152 A 
HETATM   13  N   UNL     1      43.928 -22.360   2.158  1.00  0.00    -0.187 NA
HETATM   14  N   UNL     1      44.659 -21.848   3.162  1.00  0.00    -0.289 N 
HETATM   15  H   UNL     1      45.195 -22.486   3.743  1.00  0.00     0.188 HD
HETATM   16  C   UNL     1      44.566 -20.490   3.264  1.00  0.00     0.123 A 
ENDBRANCH   7  11
ENDBRANCH   2   5
BRANCH   1  17
HETATM   17  C   UNL     1      40.255 -14.220   2.536  1.00  0.00     0.135 C 
HETATM   18  C   UNL     1      39.680 -12.924   1.961  1.00  0.00     0.031 C 
BRANCH  17  19
HETATM   19  S   UNL     1      40.098 -14.241   4.371  1.00  0.00    -0.150 SA
BRANCH  19  20
HETATM   20  C   UNL     1      41.848 -14.376   4.879  1.00  0.00     0.113 C 
BRANCH  20  21
HETATM   21  C   UNL     1      42.222 -15.814   5.149  1.00  0.00    -0.049 A 
HETATM   22  C   UNL     1      41.234 -16.805   5.242  1.00  0.00     0.008 A 
HETATM   23  C   UNL     1      41.583 -18.134   5.491  1.00  0.00     0.001 A 
HETATM   24  C   UNL     1      42.921 -18.486   5.649  1.00  0.00     0.000 A 
HETATM   25  C   UNL     1      43.913 -17.510   5.565  1.00  0.00     0.001 A 
HETATM   26  C   UNL     1      43.566 -16.180   5.320  1.00  0.00     0.008 A 
ENDBRANCH  20  21
ENDBRANCH  19  20
ENDBRANCH  17  19
ENDBRANCH   1  17
TORSDOF 6
ENDMDL
MODEL 2
REMARK VINA RESULT:      -7.2      2.084      2.415
REMARK  6 active torsions:
REMARK  status: ('A' for Active; 'I' for Inactive)
REMARK    1  A    between atoms: C_2  and  S_3 
REMARK    2  A    between atoms: C_2  and  C_11 
REMARK    3  A    between atoms: S_3  and  C_4 
REMARK    4  A    between atoms: C_4  and  C_5 
REMARK       I    between atoms: C_11  and  N_12 
REMARK    5  A    between atoms: N_12  and  C_13 
REMARK    6  A    between atoms: C_15  and  C_16 
ROOT
HETATM    1  C   UNL     1      41.703 -15.346   4.569  1.00  0.00     0.235 C 
HETATM    2  N   UNL     1      41.550 -16.512   3.879  1.00  0.00    -0.326 N 
HETATM    3  O   UNL     1      40.705 -14.946   5.186  1.00  0.00    -0.272 OA
HETATM    4  H   UNL     1      40.580 -16.808   3.936  1.00  0.00     0.169 HD
ENDROOT
BRANCH   2   5
HETATM    5  C   UNL     1      42.382 -17.338   3.103  1.00  0.00     0.035 A 
HETATM    6  C   UNL     1      42.826 -18.613   3.450  1.00  0.00     0.042 A 
HETATM    7  C   UNL     1      43.669 -19.353   2.598  1.00  0.00    -0.021 A 
HETATM    8  C   UNL     1      44.062 -18.798   1.377  1.00  0.00     0.012 A 
HETATM    9  C   UNL     1      43.605 -17.538   1.003  1.00  0.00     0.003 A 
HETATM   10  C   UNL     1      42.766 -16.820   1.857  1.00  0.00     0.029 A 
BRANCH   7  11
HETATM   11  C   UNL     1      44.133 -20.677   2.977  1.00  0.00     0.010 A 
HETATM   12  C   UNL     1      44.189 -21.884   2.242  1.00  0.00     0.152 A 
HETATM   13  N   UNL     1      44.674 -22.904   2.955  1.00  0.00    -0.187 NA
HETATM   14  N   UNL     1      44.929 -22.355   4.154  1.00  0.00    -0.289 N 
HETATM   15  H   UNL     1      45.308 -22.947   4.885  1.00  0.00     0.188 HD
HETATM   16  C   UNL     1      44.621 -21.026   4.219  1.00  0.00     0.123 A 
ENDBRANCH   7  11
ENDBRANCH   2   5
BRANCH   1  17
HETATM   17  C   UNL     1      42.993 -14.533   4.578  1.00  0.00     0.135 C 
HETATM   18  C   UNL     1      43.023 -13.535   3.418  1.00  0.00     0.031 C 
BRANCH  17  19
HETATM   19  S   UNL     1      43.205 -13.665   6.188  1.00  0.00    -0.150 SA
BRANCH  19  20
HETATM   20  C   UNL     1      44.640 -14.553   6.888  1.00  0.00     0.113 C 
BRANCH  20  21
HETATM   21  C   UNL     1      44.371 -16.037   6.967  1.00  0.00    -0.049 A 
HETATM   22  C   UNL     1      43.284 -16.528   7.704  1.00  0.00     0.008 A 
HETATM   23  C   UNL     1      43.036 -17.900   7.775  1.00  0.00     0.001 A 
HETATM   24  C   UNL     1      43.873 -18.795   7.112  1.00  0.00     0.000 A 
HETATM   25  C   UNL     1      44.961 -18.321   6.382  1.00  0.00     0.001 A 
HETATM   26  C   UNL     1      45.212 -16.949   6.312  1.00  0.00     0.008 A 
ENDBRANCH  20  21
ENDBRANCH  19  20
ENDBRANCH  17  19
ENDBRANCH   1  17
TORSDOF 6
ENDMDL
MODEL 3
REMARK VINA RESULT:      -7.1      2.794      5.672
REMARK  6 active torsions:
REMARK  status: ('A' for Active; 'I' for Inactive)
REMARK    1  A    between atoms: C_2  and  S_3 
REMARK    2  A    between atoms: C_2  and  C_11 
REMARK    3  A    between atoms: S_3  and  C_4 
REMARK    4  A    between atoms: C_4  and  C_5 
REMARK       I    between atoms: C_11  and  N_12 
REMARK    5  A    between atoms: N_12  and  C_13 
REMARK    6  A    between atoms: C_15  and  C_16 
ROOT
HETATM    1  C   UNL     1      41.191 -16.986   4.115  1.00  0.00     0.235 C 
HETATM    2  N   UNL     1      40.273 -16.605   3.181  1.00  0.00    -0.326 N 
HETATM    3  O   UNL     1      40.913 -18.004   4.764  1.00  0.00    -0.272 OA
HETATM    4  H   UNL     1      39.460 -17.208   3.249  1.00  0.00     0.169 HD
ENDROOT
BRANCH   2   5
HETATM    5  C   UNL     1      40.182 -15.584   2.219  1.00  0.00     0.035 A 
HETATM    6  C   UNL     1      40.661 -15.645   0.910  1.00  0.00     0.042 A 
HETATM    7  C   UNL     1      40.525 -14.555   0.029  1.00  0.00    -0.021 A 
HETATM    8  C   UNL     1      39.891 -13.391   0.474  1.00  0.00     0.012 A 
HETATM    9  C   UNL     1      39.383 -13.324   1.768  1.00  0.00     0.003 A 
HETATM   10  C   UNL     1      39.522 -14.416   2.628  1.00  0.00     0.029 A 
BRANCH   7  11
HETATM   11  C   UNL     1      41.037 -14.628  -1.329  1.00  0.00     0.010 A 
HETATM   12  C   UNL     1      40.873 -15.615  -2.329  1.00  0.00     0.152 A 
HETATM   13  N   UNL     1      41.523 -15.322  -3.459  1.00  0.00    -0.187 NA
HETATM   14  N   UNL     1      42.111 -14.145  -3.186  1.00  0.00    -0.289 N 
HETATM   15  H   UNL     1      42.679 -13.711  -3.906  1.00  0.00     0.188 HD
HETATM   16  C   UNL     1      41.853 -13.689  -1.925  1.00  0.00     0.123 A 
ENDBRANCH   7  11
ENDBRANCH   2   5
BRANCH   1  17
HETATM   17  C   UNL     1      42.475 -16.214   4.401  1.00  0.00     0.135 C 
HETATM   18  C   UNL     1      42.341 -15.376   5.674  1.00  0.00     0.031 C 
BRANCH  17  19
HETATM   19  S   UNL     1      43.910 -17.361   4.527  1.00  0.00    -0.150 SA
BRANCH  19  20
HETATM   20  C   UNL     1      43.934 -18.090   2.852  1.00  0.00     0.113 C 
BRANCH  20  21
HETATM   21  C   UNL     1      44.111 -19.589   2.919  1.00  0.00    -0.049 A 
HETATM   22  C   UNL     1      43.723 -20.403   1.844  1.00  0.00     0.008 A 
HETATM   23  C   UNL     1      43.888 -21.788   1.908  1.00  0.00     0.001 A 
HETATM   24  C   UNL     1      44.440 -22.373   3.044  1.00  0.00     0.000 A 
HETATM   25  C   UNL     1      44.824 -21.576   4.122  1.00  0.00     0.001 A 
HETATM   26  C   UNL     1      44.656 -20.192   4.062  1.00  0.00     0.008 A 
ENDBRANCH  20  21
ENDBRANCH  19  20
ENDBRANCH  17  19
ENDBRANCH   1  17
TORSDOF 6
ENDMDL
MODEL 4
REMARK VINA RESULT:      -7.0      3.011      5.968
REMARK  6 active torsions:
REMARK  status: ('A' for Active; 'I' for Inactive)
REMARK    1  A    between atoms: C_2  and  S_3 
REMARK    2  A    between atoms: C_2  and  C_11 
REMARK    3  A    between atoms: S_3  and  C_4 
REMARK    4  A    between atoms: C_4  and  C_5 
REMARK       I    between atoms: C_11  and  N_12 
REMARK    5  A    between atoms: N_12  and  C_13 
REMARK    6  A    between atoms: C_15  and  C_16 
ROOT
HETATM    1  C   UNL     1      41.380 -16.771   5.465  1.00  0.00     0.235 C 
HETATM    2  N   UNL     1      40.669 -16.392   4.365  1.00  0.00    -0.326 N 
HETATM    3  O   UNL     1      40.731 -16.900   6.513  1.00  0.00    -0.272 OA
HETATM    4  H   UNL     1      39.711 -16.200   4.638  1.00  0.00     0.169 HD
ENDROOT
BRANCH   2   5
HETATM    5  C   UNL     1      40.959 -16.172   3.007  1.00  0.00     0.035 A 
HETATM    6  C   UNL     1      41.286 -14.948   2.426  1.00  0.00     0.042 A 
HETATM    7  C   UNL     1      41.549 -14.838   1.046  1.00  0.00    -0.021 A 
HETATM    8  C   UNL     1      41.488 -15.983   0.246  1.00  0.00     0.012 A 
HETATM    9  C   UNL     1      41.191 -17.218   0.816  1.00  0.00     0.003 A 
HETATM   10  C   UNL     1      40.937 -17.310   2.186  1.00  0.00     0.029 A 
BRANCH   7  11
HETATM   11  C   UNL     1      41.878 -13.554   0.451  1.00  0.00     0.010 A 
HETATM   12  C   UNL     1      42.148 -12.299   1.046  1.00  0.00     0.152 A 
HETATM   13  N   UNL     1      42.398 -11.342   0.149  1.00  0.00    -0.187 NA
HETATM   14  N   UNL     1      42.285 -11.980  -1.028  1.00  0.00    -0.289 N 
HETATM   15  H   UNL     1      42.430 -11.448  -1.880  1.00  0.00     0.188 HD
HETATM   16  C   UNL     1      41.974 -13.303  -0.902  1.00  0.00     0.123 A 
ENDBRANCH   7  11
ENDBRANCH   2   5
BRANCH   1  17
HETATM   17  C   UNL     1      42.889 -16.996   5.460  1.00  0.00     0.135 C 
HETATM   18  C   UNL     1      43.614 -15.886   6.223  1.00  0.00     0.031 C 
BRANCH  17  19
HETATM   19  S   UNL     1      43.304 -18.646   6.164  1.00  0.00    -0.150 SA
BRANCH  19  20
HETATM   20  C   UNL     1      44.801 -19.078   5.210  1.00  0.00     0.113 C 
BRANCH  20  21
HETATM   21  C   UNL     1      44.457 -19.967   4.038  1.00  0.00    -0.049 A 
HETATM   22  C   UNL     1      44.782 -21.331   4.056  1.00  0.00     0.008 A 
HETATM   23  C   UNL     1      44.462 -22.151   2.972  1.00  0.00     0.001 A 
HETATM   24  C   UNL     1      43.816 -21.616   1.860  1.00  0.00     0.000 A 
HETATM   25  C   UNL     1      43.493 -20.261   1.826  1.00  0.00     0.001 A 
HETATM   26  C   UNL     1      43.815 -19.438   2.908  1.00  0.00     0.008 A 
ENDBRANCH  20  21
ENDBRANCH  19  20
ENDBRANCH  17  19
ENDBRANCH   1  17
TORSDOF 6
ENDMDL
MODEL 5
REMARK VINA RESULT:      -7.0      2.184      4.232
REMARK  6 active torsions:
REMARK  status: ('A' for Active; 'I' for Inactive)
REMARK    1  A    between atoms: C_2  and  S_3 
REMARK    2  A    between atoms: C_2  and  C_11 
REMARK    3  A    between atoms: S_3  and  C_4 
REMARK    4  A    between atoms: C_4  and  C_5 
REMARK       I    between atoms: C_11  and  N_12 
REMARK    5  A    between atoms: N_12  and  C_13 
REMARK    6  A    between atoms: C_15  and  C_16 
ROOT
HETATM    1  C   UNL     1      42.665 -14.555   4.469  1.00  0.00     0.235 C 
HETATM    2  N   UNL     1      43.587 -15.147   5.282  1.00  0.00    -0.326 N 
HETATM    3  O   UNL     1      43.010 -13.486   3.946  1.00  0.00    -0.272 OA
HETATM    4  H   UNL     1      44.391 -14.535   5.374  1.00  0.00     0.169 HD
ENDROOT
BRANCH   2   5
HETATM    5  C   UNL     1      43.655 -16.339   6.024  1.00  0.00     0.035 A 
HETATM    6  C   UNL     1      43.989 -17.597   5.525  1.00  0.00     0.042 A 
HETATM    7  C   UNL     1      44.017 -18.732   6.359  1.00  0.00    -0.021 A 
HETATM    8  C   UNL     1      43.710 -18.591   7.715  1.00  0.00     0.012 A 
HETATM    9  C   UNL     1      43.402 -17.337   8.234  1.00  0.00     0.003 A 
HETATM   10  C   UNL     1      43.383 -16.221   7.395  1.00  0.00     0.029 A 
BRANCH   7  11
HETATM   11  C   UNL     1      44.357 -20.040   5.824  1.00  0.00     0.010 A 
HETATM   12  C   UNL     1      45.055 -20.408   4.650  1.00  0.00     0.152 A 
HETATM   13  N   UNL     1      45.153 -21.731   4.498  1.00  0.00    -0.187 NA
HETATM   14  N   UNL     1      44.513 -22.219   5.574  1.00  0.00    -0.289 N 
HETATM   15  H   UNL     1      44.449 -23.226   5.682  1.00  0.00     0.188 HD
HETATM   16  C   UNL     1      44.017 -21.248   6.397  1.00  0.00     0.123 A 
ENDBRANCH   7  11
ENDBRANCH   2   5
BRANCH   1  17
HETATM   17  C   UNL     1      41.270 -15.120   4.223  1.00  0.00     0.135 C 
HETATM   18  C   UNL     1      40.307 -14.716   5.341  1.00  0.00     0.031 C 
BRANCH  17  19
HETATM   19  S   UNL     1      40.627 -14.577   2.585  1.00  0.00    -0.150 SA
BRANCH  19  20
HETATM   20  C   UNL     1      40.404 -16.181   1.738  1.00  0.00     0.113 C 
BRANCH  20  21
HETATM   21  C   UNL     1      41.686 -16.981   1.751  1.00  0.00    -0.049 A 
HETATM   22  C   UNL     1      41.696 -18.307   2.206  1.00  0.00     0.008 A 
HETATM   23  C   UNL     1      42.881 -19.045   2.217  1.00  0.00     0.001 A 
HETATM   24  C   UNL     1      44.068 -18.465   1.773  1.00  0.00     0.000 A 
HETATM   25  C   UNL     1      44.073 -17.145   1.325  1.00  0.00     0.001 A 
HETATM   26  C   UNL     1      42.889 -16.405   1.317  1.00  0.00     0.008 A 
ENDBRANCH  20  21
ENDBRANCH  19  20
ENDBRANCH  17  19
ENDBRANCH   1  17
TORSDOF 6
ENDMDL
MODEL 6
REMARK VINA RESULT:      -6.8      3.203      5.951
REMARK  6 active torsions:
REMARK  status: ('A' for Active; 'I' for Inactive)
REMARK    1  A    between atoms: C_2  and  S_3 
REMARK    2  A    between atoms: C_2  and  C_11 
REMARK    3  A    between atoms: S_3  and  C_4 
REMARK    4  A    between atoms: C_4  and  C_5 
REMARK       I    between atoms: C_11  and  N_12 
REMARK    5  A    between atoms: N_12  and  C_13 
REMARK    6  A    between atoms: C_15  and  C_16 
ROOT
HETATM    1  C   UNL     1      42.233 -15.405   4.027  1.00  0.00     0.235 C 
HETATM    2  N   UNL     1      41.543 -14.413   3.393  1.00  0.00    -0.326 N 
HETATM    3  O   UNL     1      42.752 -15.099   5.109  1.00  0.00    -0.272 OA
HETATM    4  H   UNL     1      41.654 -13.548   3.911  1.00  0.00     0.169 HD
ENDROOT
BRANCH   2   5
HETATM    5  C   UNL     1      40.784 -14.311   2.214  1.00  0.00     0.035 A 
HETATM    6  C   UNL     1      41.269 -14.436   0.913  1.00  0.00     0.042 A 
HETATM    7  C   UNL     1      40.419 -14.305  -0.202  1.00  0.00    -0.021 A 
HETATM    8  C   UNL     1      39.059 -14.052   0.002  1.00  0.00     0.012 A 
HETATM    9  C   UNL     1      38.554 -13.952   1.295  1.00  0.00     0.003 A 
HETATM   10  C   UNL     1      39.410 -14.089   2.390  1.00  0.00     0.029 A 
BRANCH   7  11
HETATM   11  C   UNL     1      40.939 -14.427  -1.553  1.00  0.00     0.010 A 
HETATM   12  C   UNL     1      40.650 -15.360  -2.577  1.00  0.00     0.152 A 
HETATM   13  N   UNL     1      41.356 -15.145  -3.689  1.00  0.00    -0.187 NA
HETATM   14  N   UNL     1      42.105 -14.072  -3.383  1.00  0.00    -0.289 N 
HETATM   15  H   UNL     1      42.743 -13.713  -4.085  1.00  0.00     0.188 HD
HETATM   16  C   UNL     1      41.895 -13.607  -2.117  1.00  0.00     0.123 A 
ENDBRANCH   7  11
ENDBRANCH   2   5
BRANCH   1  17
HETATM   17  C   UNL     1      42.412 -16.807   3.454  1.00  0.00     0.135 C 
HETATM   18  C   UNL     1      43.619 -16.868   2.515  1.00  0.00     0.031 C 
BRANCH  17  19
HETATM   19  S   UNL     1      42.579 -18.046   4.806  1.00  0.00    -0.150 SA
BRANCH  19  20
HETATM   20  C   UNL     1      44.328 -18.541   4.626  1.00  0.00     0.113 C 
BRANCH  20  21
HETATM   21  C   UNL     1      44.441 -20.000   4.250  1.00  0.00    -0.049 A 
HETATM   22  C   UNL     1      44.707 -20.971   5.226  1.00  0.00     0.008 A 
HETATM   23  C   UNL     1      44.810 -22.319   4.876  1.00  0.00     0.001 A 
HETATM   24  C   UNL     1      44.648 -22.710   3.549  1.00  0.00     0.000 A 
HETATM   25  C   UNL     1      44.390 -21.754   2.568  1.00  0.00     0.001 A 
HETATM   26  C   UNL     1      44.290 -20.405   2.915  1.00  0.00     0.008 A 
ENDBRANCH  20  21
ENDBRANCH  19  20
ENDBRANCH  17  19
ENDBRANCH   1  17
TORSDOF 6
ENDMDL
MODEL 7
REMARK VINA RESULT:      -6.8      1.495      2.162
REMARK  6 active torsions:
REMARK  status: ('A' for Active; 'I' for Inactive)
REMARK    1  A    between atoms: C_2  and  S_3 
REMARK    2  A    between atoms: C_2  and  C_11 
REMARK    3  A    between atoms: S_3  and  C_4 
REMARK    4  A    between atoms: C_4  and  C_5 
REMARK       I    between atoms: C_11  and  N_12 
REMARK    5  A    between atoms: N_12  and  C_13 
REMARK    6  A    between atoms: C_15  and  C_16 
ROOT
HETATM    1  C   UNL     1      39.750 -15.376   1.989  1.00  0.00     0.235 C 
HETATM    2  N   UNL     1      40.271 -16.618   1.775  1.00  0.00    -0.326 N 
HETATM    3  O   UNL     1      38.526 -15.265   1.831  1.00  0.00    -0.272 OA
HETATM    4  H   UNL     1      39.538 -17.231   1.434  1.00  0.00     0.169 HD
ENDROOT
BRANCH   2   5
HETATM    5  C   UNL     1      41.544 -17.205   1.872  1.00  0.00     0.035 A 
HETATM    6  C   UNL     1      42.006 -17.993   2.924  1.00  0.00     0.042 A 
HETATM    7  C   UNL     1      43.311 -18.525   2.925  1.00  0.00    -0.021 A 
HETATM    8  C   UNL     1      44.155 -18.262   1.843  1.00  0.00     0.012 A 
HETATM    9  C   UNL     1      43.700 -17.499   0.770  1.00  0.00     0.003 A 
HETATM   10  C   UNL     1      42.403 -16.983   0.784  1.00  0.00     0.029 A 
BRANCH   7  11
HETATM   11  C   UNL     1      43.783 -19.337   4.033  1.00  0.00     0.010 A 
HETATM   12  C   UNL     1      44.654 -20.452   4.059  1.00  0.00     0.152 A 
HETATM   13  N   UNL     1      44.834 -20.940   5.289  1.00  0.00    -0.187 NA
HETATM   14  N   UNL     1      44.076 -20.141   6.058  1.00  0.00    -0.289 N 
HETATM   15  H   UNL     1      44.046 -20.319   7.057  1.00  0.00     0.188 HD
HETATM   16  C   UNL     1      43.426 -19.168   5.354  1.00  0.00     0.123 A 
ENDBRANCH   7  11
ENDBRANCH   2   5
BRANCH   1  17
HETATM   17  C   UNL     1      40.592 -14.160   2.363  1.00  0.00     0.135 C 
HETATM   18  C   UNL     1      40.343 -12.999   1.397  1.00  0.00     0.031 C 
BRANCH  17  19
HETATM   19  S   UNL     1      40.257 -13.644   4.099  1.00  0.00    -0.150 SA
BRANCH  19  20
HETATM   20  C   UNL     1      40.625 -15.185   5.008  1.00  0.00     0.113 C 
BRANCH  20  21
HETATM   21  C   UNL     1      41.984 -15.113   5.664  1.00  0.00    -0.049 A 
HETATM   22  C   UNL     1      42.870 -14.070   5.361  1.00  0.00     0.008 A 
HETATM   23  C   UNL     1      44.125 -14.005   5.969  1.00  0.00     0.001 A 
HETATM   24  C   UNL     1      44.507 -14.982   6.886  1.00  0.00     0.000 A 
HETATM   25  C   UNL     1      43.639 -16.029   7.191  1.00  0.00     0.001 A 
HETATM   26  C   UNL     1      42.385 -16.097   6.581  1.00  0.00     0.008 A 
ENDBRANCH  20  21
ENDBRANCH  19  20
ENDBRANCH  17  19
ENDBRANCH   1  17
TORSDOF 6
ENDMDL
MODEL 8
REMARK VINA RESULT:      -6.8      3.692      6.185
REMARK  6 active torsions:
REMARK  status: ('A' for Active; 'I' for Inactive)
REMARK    1  A    between atoms: C_2  and  S_3 
REMARK    2  A    between atoms: C_2  and  C_11 
REMARK    3  A    between atoms: S_3  and  C_4 
REMARK    4  A    between atoms: C_4  and  C_5 
REMARK       I    between atoms: C_11  and  N_12 
REMARK    5  A    between atoms: N_12  and  C_13 
REMARK    6  A    between atoms: C_15  and  C_16 
ROOT
HETATM    1  C   UNL     1      41.128 -15.522   2.954  1.00  0.00     0.235 C 
HETATM    2  N   UNL     1      41.434 -14.861   4.107  1.00  0.00    -0.326 N 
HETATM    3  O   UNL     1      40.346 -14.942   2.187  1.00  0.00    -0.272 OA
HETATM    4  H   UNL     1      40.878 -14.014   4.162  1.00  0.00     0.169 HD
ENDROOT
BRANCH   2   5
HETATM    5  C   UNL     1      42.273 -15.098   5.209  1.00  0.00     0.035 A 
HETATM    6  C   UNL     1      43.205 -14.205   5.737  1.00  0.00     0.042 A 
HETATM    7  C   UNL     1      44.006 -14.551   6.843  1.00  0.00    -0.021 A 
HETATM    8  C   UNL     1      43.856 -15.812   7.427  1.00  0.00     0.012 A 
HETATM    9  C   UNL     1      42.910 -16.705   6.930  1.00  0.00     0.003 A 
HETATM   10  C   UNL     1      42.122 -16.345   5.835  1.00  0.00     0.029 A 
BRANCH   7  11
HETATM   11  C   UNL     1      44.981 -13.616   7.377  1.00  0.00     0.010 A 
HETATM   12  C   UNL     1      46.271 -13.260   6.919  1.00  0.00     0.152 A 
HETATM   13  N   UNL     1      46.871 -12.360   7.703  1.00  0.00    -0.187 NA
HETATM   14  N   UNL     1      45.967 -12.137   8.671  1.00  0.00    -0.289 N 
HETATM   15  H   UNL     1      46.201 -11.477   9.406  1.00  0.00     0.188 HD
HETATM   16  C   UNL     1      44.821 -12.865   8.523  1.00  0.00     0.123 A 
ENDBRANCH   7  11
ENDBRANCH   2   5
BRANCH   1  17
HETATM   17  C   UNL     1      41.662 -16.908   2.608  1.00  0.00     0.135 C 
HETATM   18  C   UNL     1      40.922 -17.499   1.406  1.00  0.00     0.031 C 
BRANCH  17  19
HETATM   19  S   UNL     1      43.474 -16.847   2.289  1.00  0.00    -0.150 SA
BRANCH  19  20
HETATM   20  C   UNL     1      43.767 -18.497   1.562  1.00  0.00     0.113 C 
BRANCH  20  21
HETATM   21  C   UNL     1      44.119 -19.504   2.632  1.00  0.00    -0.049 A 
HETATM   22  C   UNL     1      44.226 -20.868   2.323  1.00  0.00     0.008 A 
HETATM   23  C   UNL     1      44.553 -21.796   3.313  1.00  0.00     0.001 A 
HETATM   24  C   UNL     1      44.775 -21.372   4.621  1.00  0.00     0.000 A 
HETATM   25  C   UNL     1      44.666 -20.020   4.943  1.00  0.00     0.001 A 
HETATM   26  C   UNL     1      44.336 -19.091   3.955  1.00  0.00     0.008 A 
ENDBRANCH  20  21
ENDBRANCH  19  20
ENDBRANCH  17  19
ENDBRANCH   1  17
TORSDOF 6
ENDMDL
MODEL 9
REMARK VINA RESULT:      -6.7      3.023      5.393
REMARK  6 active torsions:
REMARK  status: ('A' for Active; 'I' for Inactive)
REMARK    1  A    between atoms: C_2  and  S_3 
REMARK    2  A    between atoms: C_2  and  C_11 
REMARK    3  A    between atoms: S_3  and  C_4 
REMARK    4  A    between atoms: C_4  and  C_5 
REMARK       I    between atoms: C_11  and  N_12 
REMARK    5  A    between atoms: N_12  and  C_13 
REMARK    6  A    between atoms: C_15  and  C_16 
ROOT
HETATM    1  C   UNL     1      40.504 -15.711   2.404  1.00  0.00     0.235 C 
HETATM    2  N   UNL     1      40.837 -16.544   3.431  1.00  0.00    -0.326 N 
HETATM    3  O   UNL     1      39.377 -15.199   2.464  1.00  0.00    -0.272 OA
HETATM    4  H   UNL     1      40.034 -16.657   4.041  1.00  0.00     0.169 HD
ENDROOT
BRANCH   2   5
HETATM    5  C   UNL     1      41.975 -17.286   3.796  1.00  0.00     0.035 A 
HETATM    6  C   UNL     1      42.381 -18.494   3.233  1.00  0.00     0.042 A 
HETATM    7  C   UNL     1      43.538 -19.161   3.683  1.00  0.00    -0.021 A 
HETATM    8  C   UNL     1      44.295 -18.593   4.712  1.00  0.00     0.012 A 
HETATM    9  C   UNL     1      43.918 -17.373   5.266  1.00  0.00     0.003 A 
HETATM   10  C   UNL     1      42.772 -16.723   4.804  1.00  0.00     0.029 A 
BRANCH   7  11
HETATM   11  C   UNL     1      43.945 -20.425   3.095  1.00  0.00     0.010 A 
HETATM   12  C   UNL     1      43.737 -20.953   1.799  1.00  0.00     0.152 A 
HETATM   13  N   UNL     1      44.261 -22.172   1.646  1.00  0.00    -0.187 NA
HETATM   14  N   UNL     1      44.806 -22.433   2.846  1.00  0.00    -0.289 N 
HETATM   15  H   UNL     1      45.271 -23.324   2.981  1.00  0.00     0.188 HD
HETATM   16  C   UNL     1      44.642 -21.420   3.747  1.00  0.00     0.123 A 
ENDBRANCH   7  11
ENDBRANCH   2   5
BRANCH   1  17
HETATM   17  C   UNL     1      41.417 -15.430   1.214  1.00  0.00     0.135 C 
HETATM   18  C   UNL     1      41.532 -16.657   0.307  1.00  0.00     0.031 C 
BRANCH  17  19
HETATM   19  S   UNL     1      40.815 -13.972   0.263  1.00  0.00    -0.150 SA
BRANCH  19  20
HETATM   20  C   UNL     1      41.339 -14.410  -1.432  1.00  0.00     0.113 C 
BRANCH  20  21
HETATM   21  C   UNL     1      40.148 -14.771  -2.289  1.00  0.00    -0.049 A 
HETATM   22  C   UNL     1      40.246 -15.775  -3.263  1.00  0.00     0.008 A 
HETATM   23  C   UNL     1      39.144 -16.107  -4.053  1.00  0.00     0.001 A 
HETATM   24  C   UNL     1      37.934 -15.439  -3.878  1.00  0.00     0.000 A 
HETATM   25  C   UNL     1      37.825 -14.435  -2.919  1.00  0.00     0.001 A 
HETATM   26  C   UNL     1      38.927 -14.099  -2.130  1.00  0.00     0.008 A 
ENDBRANCH  20  21
ENDBRANCH  19  20
ENDBRANCH  17  19
ENDBRANCH   1  17
TORSDOF 6
ENDMDL
MODEL 10
REMARK VINA RESULT:      -6.6      3.364      6.319
REMARK  6 active torsions:
REMARK  status: ('A' for Active; 'I' for Inactive)
REMARK    1  A    between atoms: C_2  and  S_3 
REMARK    2  A    between atoms: C_2  and  C_11 
REMARK    3  A    between atoms: S_3  and  C_4 
REMARK    4  A    between atoms: C_4  and  C_5 
REMARK       I    between atoms: C_11  and  N_12 
REMARK    5  A    between atoms: N_12  and  C_13 
REMARK    6  A    between atoms: C_15  and  C_16 
ROOT
HETATM    1  C   UNL     1      41.802 -16.345   6.513  1.00  0.00     0.235 C 
HETATM    2  N   UNL     1      40.643 -15.672   6.261  1.00  0.00    -0.326 N 
HETATM    3  O   UNL     1      41.758 -17.179   7.428  1.00  0.00    -0.272 OA
HETATM    4  H   UNL     1      39.949 -15.936   6.953  1.00  0.00     0.169 HD
ENDROOT
BRANCH   2   5
HETATM    5  C   UNL     1      40.222 -14.706   5.331  1.00  0.00     0.035 A 
HETATM    6  C   UNL     1      40.063 -14.903   3.960  1.00  0.00     0.042 A 
HETATM    7  C   UNL     1      39.644 -13.858   3.113  1.00  0.00    -0.021 A 
HETATM    8  C   UNL     1      39.377 -12.600   3.661  1.00  0.00     0.012 A 
HETATM    9  C   UNL     1      39.504 -12.395   5.032  1.00  0.00     0.003 A 
HETATM   10  C   UNL     1      39.916 -13.442   5.858  1.00  0.00     0.029 A 
BRANCH   7  11
HETATM   11  C   UNL     1      39.492 -14.074   1.684  1.00  0.00     0.010 A 
HETATM   12  C   UNL     1      40.452 -14.335   0.679  1.00  0.00     0.152 A 
HETATM   13  N   UNL     1      39.912 -14.461  -0.535  1.00  0.00    -0.187 NA
HETATM   14  N   UNL     1      38.599 -14.277  -0.315  1.00  0.00    -0.289 N 
HETATM   15  H   UNL     1      37.966 -14.323  -1.106  1.00  0.00     0.188 HD
HETATM   16  C   UNL     1      38.297 -14.040   0.996  1.00  0.00     0.123 A 
ENDBRANCH   7  11
ENDBRANCH   2   5
BRANCH   1  17
HETATM   17  C   UNL     1      43.107 -16.088   5.765  1.00  0.00     0.135 C 
HETATM   18  C   UNL     1      44.317 -16.330   6.669  1.00  0.00     0.031 C 
BRANCH  17  19
HETATM   19  S   UNL     1      43.206 -17.134   4.252  1.00  0.00    -0.150 SA
BRANCH  19  20
HETATM   20  C   UNL     1      44.336 -18.459   4.806  1.00  0.00     0.113 C 
BRANCH  20  21
HETATM   21  C   UNL     1      44.251 -19.659   3.892  1.00  0.00    -0.049 A 
HETATM   22  C   UNL     1      43.670 -19.549   2.621  1.00  0.00     0.008 A 
HETATM   23  C   UNL     1      43.592 -20.659   1.778  1.00  0.00     0.001 A 
HETATM   24  C   UNL     1      44.093 -21.890   2.197  1.00  0.00     0.000 A 
HETATM   25  C   UNL     1      44.667 -22.014   3.461  1.00  0.00     0.001 A 
HETATM   26  C   UNL     1      44.742 -20.906   4.307  1.00  0.00     0.008 A 
ENDBRANCH  20  21
ENDBRANCH  19  20
ENDBRANCH  17  19
ENDBRANCH   1  17
TORSDOF 6
ENDMDL
