MODEL 1
REMARK VINA RESULT:      -9.5      0.000      0.000
REMARK  5 active torsions:
REMARK  status: ('A' for Active; 'I' for Inactive)
REMARK    1  A    between atoms: C_5  and  C_6 
REMARK    2  A    between atoms: C_14  and  C_15 
REMARK       I    between atoms: C_15  and  N_16 
REMARK    3  A    between atoms: N_16  and  C_17 
REMARK    4  A    between atoms: C_20  and  C_21 
REMARK    5  A    between atoms: C_23  and  N_24 
ROOT
HETATM    1  C   UNL     1      41.451 -13.477  -0.380  1.00  0.00     0.262 C 
HETATM    2  N   UNL     1      42.009 -14.734  -0.343  1.00  0.00    -0.301 N 
HETATM    3  O   UNL     1      40.842 -12.963   0.551  1.00  0.00    -0.267 OA
HETATM    4  H   UNL     1      42.745 -14.985  -0.983  1.00  0.00     0.171 HD
ENDROOT
BRANCH   1   5
HETATM    5  C   UNL     1      41.677 -12.721  -1.607  1.00  0.00     0.095 A 
HETATM    6  C   UNL     1      42.556 -11.685  -1.870  1.00  0.00     0.093 A 
HETATM    7  C   UNL     1      43.586 -10.945  -1.113  1.00  0.00     0.080 C 
HETATM    8  O   UNL     1      42.425 -11.300  -3.167  1.00  0.00    -0.217 OA
HETATM    9  N   UNL     1      41.487 -12.082  -3.797  1.00  0.00    -0.127 NA
HETATM   10  C   UNL     1      41.044 -12.947  -2.875  1.00  0.00     0.117 A 
BRANCH  10  11
HETATM   11  C   UNL     1      40.052 -13.953  -3.223  1.00  0.00     0.056 A 
HETATM   12  C   UNL     1      38.684 -13.664  -3.303  1.00  0.00     0.049 A 
HETATM   13 CL   UNL     1      38.052 -12.080  -3.001  1.00  0.00    -0.083 Cl
HETATM   14  C   UNL     1      37.763 -14.677  -3.609  1.00  0.00     0.025 A 
HETATM   15  C   UNL     1      38.200 -15.984  -3.826  1.00  0.00     0.005 A 
HETATM   16  C   UNL     1      39.557 -16.281  -3.749  1.00  0.00     0.043 A 
HETATM   17  C   UNL     1      40.470 -15.268  -3.457  1.00  0.00     0.130 A 
HETATM   18  F   UNL     1      41.772 -15.587  -3.392  1.00  0.00    -0.205 F 
ENDBRANCH  10  11
ENDBRANCH   1   5
BRANCH   2  19
HETATM   19  C   UNL     1      41.791 -15.678   0.632  1.00  0.00     0.173 A 
HETATM   20  S   UNL     1      40.260 -15.918   1.345  1.00  0.00    -0.061 SA
HETATM   21  C   UNL     1      40.902 -17.196   2.281  1.00  0.00     0.085 A 
HETATM   22  C   UNL     1      42.236 -17.377   1.973  1.00  0.00     0.076 A 
HETATM   23  N   UNL     1      42.735 -16.508   1.009  1.00  0.00    -0.223 NA
BRANCH  22  24
HETATM   24  C   UNL     1      43.089 -18.367   2.622  1.00  0.00    -0.004 A 
HETATM   25  C   UNL     1      43.263 -19.651   2.084  1.00  0.00     0.050 A 
HETATM   26  C   UNL     1      44.062 -20.588   2.758  1.00  0.00     0.103 A 
HETATM   27  C   UNL     1      44.693 -20.257   3.963  1.00  0.00     0.036 A 
HETATM   28  C   UNL     1      44.531 -18.977   4.490  1.00  0.00     0.003 A 
HETATM   29  C   UNL     1      43.738 -18.040   3.821  1.00  0.00     0.014 A 
BRANCH  26  30
HETATM   30  N   UNL     1      44.230 -21.933   2.194  1.00  0.00    -0.116 N 
HETATM   31  O   UNL     1      44.664 -22.821   2.942  1.00  0.00    -0.532 OA
HETATM   32  O   UNL     1      43.933 -22.100   1.003  1.00  0.00    -0.532 OA
ENDBRANCH  26  30
ENDBRANCH  22  24
ENDBRANCH   2  19
TORSDOF 5
ENDMDL
MODEL 2
REMARK VINA RESULT:      -9.2      1.698      1.944
REMARK  5 active torsions:
REMARK  status: ('A' for Active; 'I' for Inactive)
REMARK    1  A    between atoms: C_5  and  C_6 
REMARK    2  A    between atoms: C_14  and  C_15 
REMARK       I    between atoms: C_15  and  N_16 
REMARK    3  A    between atoms: N_16  and  C_17 
REMARK    4  A    between atoms: C_20  and  C_21 
REMARK    5  A    between atoms: C_23  and  N_24 
ROOT
HETATM    1  C   UNL     1      41.423 -13.314  -0.421  1.00  0.00     0.262 C 
HETATM    2  N   UNL     1      41.945 -14.587  -0.360  1.00  0.00    -0.301 N 
HETATM    3  O   UNL     1      40.847 -12.758   0.507  1.00  0.00    -0.267 OA
HETATM    4  H   UNL     1      42.661 -14.875  -1.007  1.00  0.00     0.171 HD
ENDROOT
BRANCH   1   5
HETATM    5  C   UNL     1      41.650 -12.597  -1.671  1.00  0.00     0.095 A 
HETATM    6  C   UNL     1      42.526 -11.566  -1.964  1.00  0.00     0.093 A 
HETATM    7  C   UNL     1      43.549 -10.797  -1.228  1.00  0.00     0.080 C 
HETATM    8  O   UNL     1      42.396 -11.223  -3.273  1.00  0.00    -0.217 OA
HETATM    9  N   UNL     1      41.464 -12.029  -3.881  1.00  0.00    -0.127 NA
HETATM   10  C   UNL     1      41.022 -12.867  -2.932  1.00  0.00     0.117 A 
BRANCH  10  11
HETATM   11  C   UNL     1      40.036 -13.888  -3.251  1.00  0.00     0.056 A 
HETATM   12  C   UNL     1      38.663 -13.615  -3.311  1.00  0.00     0.049 A 
HETATM   13 CL   UNL     1      38.019 -12.036  -3.016  1.00  0.00    -0.083 Cl
HETATM   14  C   UNL     1      37.750 -14.642  -3.588  1.00  0.00     0.025 A 
HETATM   15  C   UNL     1      38.197 -15.947  -3.797  1.00  0.00     0.005 A 
HETATM   16  C   UNL     1      39.559 -16.227  -3.741  1.00  0.00     0.043 A 
HETATM   17  C   UNL     1      40.465 -15.201  -3.477  1.00  0.00     0.130 A 
HETATM   18  F   UNL     1      41.772 -15.504  -3.431  1.00  0.00    -0.205 F 
ENDBRANCH  10  11
ENDBRANCH   1   5
BRANCH   2  19
HETATM   19  C   UNL     1      41.716 -15.498   0.642  1.00  0.00     0.173 A 
HETATM   20  S   UNL     1      40.203 -15.646   1.415  1.00  0.00    -0.061 SA
HETATM   21  C   UNL     1      40.814 -16.936   2.355  1.00  0.00     0.085 A 
HETATM   22  C   UNL     1      42.125 -17.190   2.003  1.00  0.00     0.076 A 
HETATM   23  N   UNL     1      42.631 -16.367   1.004  1.00  0.00    -0.223 NA
BRANCH  22  24
HETATM   24  C   UNL     1      42.951 -18.209   2.643  1.00  0.00    -0.004 A 
HETATM   25  C   UNL     1      43.336 -18.105   3.987  1.00  0.00     0.050 A 
HETATM   26  C   UNL     1      44.162 -19.088   4.555  1.00  0.00     0.103 A 
HETATM   27  C   UNL     1      44.604 -20.178   3.798  1.00  0.00     0.036 A 
HETATM   28  C   UNL     1      44.209 -20.289   2.465  1.00  0.00     0.003 A 
HETATM   29  C   UNL     1      43.385 -19.314   1.896  1.00  0.00     0.014 A 
BRANCH  26  30
HETATM   30  N   UNL     1      44.570 -18.965   5.961  1.00  0.00    -0.116 N 
HETATM   31  O   UNL     1      43.967 -19.653   6.797  1.00  0.00    -0.532 OA
HETATM   32  O   UNL     1      45.488 -18.177   6.227  1.00  0.00    -0.532 OA
ENDBRANCH  26  30
ENDBRANCH  22  24
ENDBRANCH   2  19
TORSDOF 5
ENDMDL
MODEL 3
REMARK VINA RESULT:      -9.2      4.001      8.869
REMARK  5 active torsions:
REMARK  status: ('A' for Active; 'I' for Inactive)
REMARK    1  A    between atoms: C_5  and  C_6 
REMARK    2  A    between atoms: C_14  and  C_15 
REMARK       I    between atoms: C_15  and  N_16 
REMARK    3  A    between atoms: N_16  and  C_17 
REMARK    4  A    between atoms: C_20  and  C_21 
REMARK    5  A    between atoms: C_23  and  N_24 
ROOT
HETATM    1  C   UNL     1      42.459 -17.227   4.606  1.00  0.00     0.262 C 
HETATM    2  N   UNL     1      42.490 -16.020   3.945  1.00  0.00    -0.301 N 
HETATM    3  O   UNL     1      41.506 -17.998   4.593  1.00  0.00    -0.267 OA
HETATM    4  H   UNL     1      43.370 -15.582   3.725  1.00  0.00     0.171 HD
ENDROOT
BRANCH   1   5
HETATM    5  C   UNL     1      43.686 -17.598   5.302  1.00  0.00     0.095 A 
HETATM    6  C   UNL     1      44.294 -17.029   6.408  1.00  0.00     0.093 A 
HETATM    7  C   UNL     1      44.007 -15.903   7.319  1.00  0.00     0.080 C 
HETATM    8  O   UNL     1      45.420 -17.726   6.712  1.00  0.00    -0.217 OA
HETATM    9  N   UNL     1      45.569 -18.781   5.844  1.00  0.00    -0.127 NA
HETATM   10  C   UNL     1      44.526 -18.723   5.005  1.00  0.00     0.117 A 
BRANCH  10  11
HETATM   11  C   UNL     1      44.358 -19.727   3.965  1.00  0.00     0.056 A 
HETATM   12  C   UNL     1      44.323 -21.099   4.244  1.00  0.00     0.049 A 
HETATM   13 CL   UNL     1      44.470 -21.722   5.852  1.00  0.00    -0.083 Cl
HETATM   14  C   UNL     1      44.194 -22.029   3.202  1.00  0.00     0.025 A 
HETATM   15  C   UNL     1      44.109 -21.598   1.878  1.00  0.00     0.005 A 
HETATM   16  C   UNL     1      44.143 -20.236   1.592  1.00  0.00     0.043 A 
HETATM   17  C   UNL     1      44.259 -19.315   2.631  1.00  0.00     0.130 A 
HETATM   18  F   UNL     1      44.286 -18.009   2.322  1.00  0.00    -0.205 F 
ENDBRANCH  10  11
ENDBRANCH   1   5
BRANCH   2  19
HETATM   19  C   UNL     1      41.411 -15.397   3.366  1.00  0.00     0.173 A 
HETATM   20  S   UNL     1      40.202 -14.621   4.285  1.00  0.00    -0.061 SA
HETATM   21  C   UNL     1      39.417 -14.146   2.843  1.00  0.00     0.085 A 
HETATM   22  C   UNL     1      40.139 -14.586   1.751  1.00  0.00     0.076 A 
HETATM   23  N   UNL     1      41.296 -15.292   2.063  1.00  0.00    -0.223 NA
BRANCH  22  24
HETATM   24  C   UNL     1      39.723 -14.376   0.369  1.00  0.00    -0.004 A 
HETATM   25  C   UNL     1      40.624 -14.508  -0.697  1.00  0.00     0.050 A 
HETATM   26  C   UNL     1      40.194 -14.261  -2.010  1.00  0.00     0.103 A 
HETATM   27  C   UNL     1      38.871 -13.886  -2.273  1.00  0.00     0.036 A 
HETATM   28  C   UNL     1      37.972 -13.769  -1.215  1.00  0.00     0.003 A 
HETATM   29  C   UNL     1      38.395 -14.016   0.095  1.00  0.00     0.014 A 
BRANCH  26  30
HETATM   30  N   UNL     1      41.147 -14.390  -3.120  1.00  0.00    -0.116 N 
HETATM   31  O   UNL     1      41.397 -15.532  -3.534  1.00  0.00    -0.532 OA
HETATM   32  O   UNL     1      41.648 -13.352  -3.574  1.00  0.00    -0.532 OA
ENDBRANCH  26  30
ENDBRANCH  22  24
ENDBRANCH   2  19
TORSDOF 5
ENDMDL
MODEL 4
REMARK VINA RESULT:      -9.1      2.618      3.581
REMARK  5 active torsions:
REMARK  status: ('A' for Active; 'I' for Inactive)
REMARK    1  A    between atoms: C_5  and  C_6 
REMARK    2  A    between atoms: C_14  and  C_15 
REMARK       I    between atoms: C_15  and  N_16 
REMARK    3  A    between atoms: N_16  and  C_17 
REMARK    4  A    between atoms: C_20  and  C_21 
REMARK    5  A    between atoms: C_23  and  N_24 
ROOT
HETATM    1  C   UNL     1      40.984 -14.606  -0.118  1.00  0.00     0.262 C 
HETATM    2  N   UNL     1      40.628 -15.775   0.514  1.00  0.00    -0.301 N 
HETATM    3  O   UNL     1      41.941 -13.910   0.204  1.00  0.00    -0.267 OA
HETATM    4  H   UNL     1      40.055 -16.456   0.042  1.00  0.00     0.171 HD
ENDROOT
BRANCH   1   5
HETATM    5  C   UNL     1      40.178 -14.244  -1.279  1.00  0.00     0.095 A 
HETATM    6  C   UNL     1      40.089 -14.839  -2.526  1.00  0.00     0.093 A 
HETATM    7  C   UNL     1      40.694 -16.009  -3.193  1.00  0.00     0.080 C 
HETATM    8  O   UNL     1      39.191 -14.158  -3.286  1.00  0.00    -0.217 OA
HETATM    9  N   UNL     1      38.646 -13.126  -2.561  1.00  0.00    -0.127 NA
HETATM   10  C   UNL     1      39.220 -13.179  -1.351  1.00  0.00     0.117 A 
BRANCH  10  11
HETATM   11  C   UNL     1      38.840 -12.232  -0.312  1.00  0.00     0.056 A 
HETATM   12  C   UNL     1      37.966 -12.570   0.729  1.00  0.00     0.049 A 
HETATM   13 CL   UNL     1      37.265 -14.145   0.876  1.00  0.00    -0.083 Cl
HETATM   14  C   UNL     1      37.604 -11.611   1.686  1.00  0.00     0.025 A 
HETATM   15  C   UNL     1      38.102 -10.310   1.605  1.00  0.00     0.005 A 
HETATM   16  C   UNL     1      38.972  -9.967   0.575  1.00  0.00     0.043 A 
HETATM   17  C   UNL     1      39.339 -10.926  -0.368  1.00  0.00     0.130 A 
HETATM   18  F   UNL     1      40.181 -10.563  -1.348  1.00  0.00    -0.205 F 
ENDBRANCH  10  11
ENDBRANCH   1   5
BRANCH   2  19
HETATM   19  C   UNL     1      41.133 -16.224   1.710  1.00  0.00     0.173 A 
HETATM   20  S   UNL     1      40.639 -15.581   3.211  1.00  0.00    -0.061 SA
HETATM   21  C   UNL     1      41.654 -16.696   4.017  1.00  0.00     0.085 A 
HETATM   22  C   UNL     1      42.285 -17.505   3.094  1.00  0.00     0.076 A 
HETATM   23  N   UNL     1      41.966 -17.237   1.768  1.00  0.00    -0.223 NA
BRANCH  22  24
HETATM   24  C   UNL     1      43.248 -18.542   3.453  1.00  0.00    -0.004 A 
HETATM   25  C   UNL     1      43.360 -19.727   2.713  1.00  0.00     0.050 A 
HETATM   26  C   UNL     1      44.272 -20.716   3.112  1.00  0.00     0.103 A 
HETATM   27  C   UNL     1      45.079 -20.534   4.242  1.00  0.00     0.036 A 
HETATM   28  C   UNL     1      44.977 -19.349   4.969  1.00  0.00     0.003 A 
HETATM   29  C   UNL     1      44.071 -18.360   4.574  1.00  0.00     0.014 A 
BRANCH  26  30
HETATM   30  N   UNL     1      44.376 -21.960   2.338  1.00  0.00    -0.116 N 
HETATM   31  O   UNL     1      44.090 -21.912   1.132  1.00  0.00    -0.532 OA
HETATM   32  O   UNL     1      44.737 -22.983   2.935  1.00  0.00    -0.532 OA
ENDBRANCH  26  30
ENDBRANCH  22  24
ENDBRANCH   2  19
TORSDOF 5
ENDMDL
MODEL 5
REMARK VINA RESULT:      -9.0      1.645      3.344
REMARK  5 active torsions:
REMARK  status: ('A' for Active; 'I' for Inactive)
REMARK    1  A    between atoms: C_5  and  C_6 
REMARK    2  A    between atoms: C_14  and  C_15 
REMARK       I    between atoms: C_15  and  N_16 
REMARK    3  A    between atoms: N_16  and  C_17 
REMARK    4  A    between atoms: C_20  and  C_21 
REMARK    5  A    between atoms: C_23  and  N_24 
ROOT
HETATM    1  C   UNL     1      40.813 -14.815  -0.329  1.00  0.00     0.262 C 
HETATM    2  N   UNL     1      42.041 -15.155   0.193  1.00  0.00    -0.301 N 
HETATM    3  O   UNL     1      39.773 -14.776   0.319  1.00  0.00    -0.267 OA
HETATM    4  H   UNL     1      42.888 -14.876  -0.273  1.00  0.00     0.171 HD
ENDROOT
BRANCH   1   5
HETATM    5  C   UNL     1      40.811 -14.422  -1.734  1.00  0.00     0.095 A 
HETATM    6  C   UNL     1      40.523 -15.161  -2.869  1.00  0.00     0.093 A 
HETATM    7  C   UNL     1      40.109 -16.548  -3.159  1.00  0.00     0.080 C 
HETATM    8  O   UNL     1      40.638 -14.366  -3.965  1.00  0.00    -0.217 OA
HETATM    9  N   UNL     1      40.972 -13.087  -3.587  1.00  0.00    -0.127 NA
HETATM   10  C   UNL     1      41.063 -13.107  -2.250  1.00  0.00     0.117 A 
BRANCH  10  11
HETATM   11  C   UNL     1      41.375 -11.891  -1.514  1.00  0.00     0.056 A 
HETATM   12  C   UNL     1      40.384 -11.093  -0.926  1.00  0.00     0.049 A 
HETATM   13 CL   UNL     1      38.701 -11.487  -1.018  1.00  0.00    -0.083 Cl
HETATM   14  C   UNL     1      40.734  -9.912  -0.257  1.00  0.00     0.025 A 
HETATM   15  C   UNL     1      42.069  -9.514  -0.177  1.00  0.00     0.005 A 
HETATM   16  C   UNL     1      43.059 -10.301  -0.758  1.00  0.00     0.043 A 
HETATM   17  C   UNL     1      42.709 -11.481  -1.411  1.00  0.00     0.130 A 
HETATM   18  F   UNL     1      43.688 -12.218  -1.959  1.00  0.00    -0.205 F 
ENDBRANCH  10  11
ENDBRANCH   1   5
BRANCH   2  19
HETATM   19  C   UNL     1      42.257 -15.707   1.432  1.00  0.00     0.173 A 
HETATM   20  S   UNL     1      41.640 -15.014   2.863  1.00  0.00    -0.061 SA
HETATM   21  C   UNL     1      42.300 -16.304   3.768  1.00  0.00     0.085 A 
HETATM   22  C   UNL     1      42.928 -17.196   2.921  1.00  0.00     0.076 A 
HETATM   23  N   UNL     1      42.883 -16.852   1.575  1.00  0.00    -0.223 NA
BRANCH  22  24
HETATM   24  C   UNL     1      43.625 -18.393   3.380  1.00  0.00    -0.004 A 
HETATM   25  C   UNL     1      43.670 -19.559   2.604  1.00  0.00     0.050 A 
HETATM   26  C   UNL     1      44.320 -20.702   3.097  1.00  0.00     0.103 A 
HETATM   27  C   UNL     1      44.930 -20.693   4.357  1.00  0.00     0.036 A 
HETATM   28  C   UNL     1      44.898 -19.528   5.122  1.00  0.00     0.003 A 
HETATM   29  C   UNL     1      44.254 -18.387   4.634  1.00  0.00     0.014 A 
BRANCH  26  30
HETATM   30  N   UNL     1      44.352 -21.923   2.282  1.00  0.00    -0.116 N 
HETATM   31  O   UNL     1      44.738 -22.968   2.827  1.00  0.00    -0.532 OA
HETATM   32  O   UNL     1      43.997 -21.836   1.099  1.00  0.00    -0.532 OA
ENDBRANCH  26  30
ENDBRANCH  22  24
ENDBRANCH   2  19
TORSDOF 5
ENDMDL
MODEL 6
REMARK VINA RESULT:      -8.9      8.027     10.384
REMARK  5 active torsions:
REMARK  status: ('A' for Active; 'I' for Inactive)
REMARK    1  A    between atoms: C_5  and  C_6 
REMARK    2  A    between atoms: C_14  and  C_15 
REMARK       I    between atoms: C_15  and  N_16 
REMARK    3  A    between atoms: N_16  and  C_17 
REMARK    4  A    between atoms: C_20  and  C_21 
REMARK    5  A    between atoms: C_23  and  N_24 
ROOT
HETATM    1  C   UNL     1      40.237 -13.090   5.349  1.00  0.00     0.262 C 
HETATM    2  N   UNL     1      41.273 -12.187   5.437  1.00  0.00    -0.301 N 
HETATM    3  O   UNL     1      39.228 -13.053   6.044  1.00  0.00    -0.267 OA
HETATM    4  H   UNL     1      41.909 -12.064   4.666  1.00  0.00     0.171 HD
ENDROOT
BRANCH   1   5
HETATM    5  C   UNL     1      40.366 -14.099   4.304  1.00  0.00     0.095 A 
HETATM    6  C   UNL     1      39.818 -14.146   3.033  1.00  0.00     0.093 A 
HETATM    7  C   UNL     1      38.949 -13.276   2.216  1.00  0.00     0.080 C 
HETATM    8  O   UNL     1      40.230 -15.280   2.407  1.00  0.00    -0.217 OA
HETATM    9  N   UNL     1      41.074 -15.990   3.225  1.00  0.00    -0.127 NA
HETATM   10  C   UNL     1      41.175 -15.283   4.359  1.00  0.00     0.117 A 
BRANCH  10  11
HETATM   11  C   UNL     1      42.030 -15.743   5.443  1.00  0.00     0.056 A 
HETATM   12  C   UNL     1      43.326 -15.249   5.640  1.00  0.00     0.049 A 
HETATM   13 CL   UNL     1      44.022 -14.040   4.614  1.00  0.00    -0.083 Cl
HETATM   14  C   UNL     1      44.124 -15.750   6.678  1.00  0.00     0.025 A 
HETATM   15  C   UNL     1      43.639 -16.753   7.519  1.00  0.00     0.005 A 
HETATM   16  C   UNL     1      42.353 -17.249   7.331  1.00  0.00     0.043 A 
HETATM   17  C   UNL     1      41.559 -16.739   6.305  1.00  0.00     0.130 A 
HETATM   18  F   UNL     1      40.322 -17.239   6.152  1.00  0.00    -0.205 F 
ENDBRANCH  10  11
ENDBRANCH   1   5
BRANCH   2  19
HETATM   19  C   UNL     1      41.444 -11.261   6.437  1.00  0.00     0.173 A 
HETATM   20  S   UNL     1      41.065  -9.612   6.231  1.00  0.00    -0.061 SA
HETATM   21  C   UNL     1      41.501  -9.313   7.856  1.00  0.00     0.085 A 
HETATM   22  C   UNL     1      41.883 -10.493   8.463  1.00  0.00     0.076 A 
HETATM   23  N   UNL     1      41.831 -11.613   7.642  1.00  0.00    -0.223 NA
BRANCH  22  24
HETATM   24  C   UNL     1      42.347 -10.579   9.843  1.00  0.00    -0.004 A 
HETATM   25  C   UNL     1      41.463 -10.836  10.900  1.00  0.00     0.050 A 
HETATM   26  C   UNL     1      41.943 -10.875  12.219  1.00  0.00     0.103 A 
HETATM   27  C   UNL     1      43.298 -10.664  12.495  1.00  0.00     0.036 A 
HETATM   28  C   UNL     1      44.180 -10.423  11.442  1.00  0.00     0.003 A 
HETATM   29  C   UNL     1      43.707 -10.385  10.127  1.00  0.00     0.014 A 
BRANCH  26  30
HETATM   30  N   UNL     1      41.008 -11.133  13.321  1.00  0.00    -0.116 N 
HETATM   31  O   UNL     1      40.147 -12.010  13.153  1.00  0.00    -0.532 OA
HETATM   32  O   UNL     1      41.131 -10.457  14.352  1.00  0.00    -0.532 OA
ENDBRANCH  26  30
ENDBRANCH  22  24
ENDBRANCH   2  19
TORSDOF 5
ENDMDL
MODEL 7
REMARK VINA RESULT:      -8.5      2.842      3.377
REMARK  5 active torsions:
REMARK  status: ('A' for Active; 'I' for Inactive)
REMARK    1  A    between atoms: C_5  and  C_6 
REMARK    2  A    between atoms: C_14  and  C_15 
REMARK       I    between atoms: C_15  and  N_16 
REMARK    3  A    between atoms: N_16  and  C_17 
REMARK    4  A    between atoms: C_20  and  C_21 
REMARK    5  A    between atoms: C_23  and  N_24 
ROOT
HETATM    1  C   UNL     1      38.907 -13.814   1.324  1.00  0.00     0.262 C 
HETATM    2  N   UNL     1      40.002 -13.659   2.143  1.00  0.00    -0.301 N 
HETATM    3  O   UNL     1      38.138 -14.767   1.372  1.00  0.00    -0.267 OA
HETATM    4  H   UNL     1      40.408 -12.748   2.285  1.00  0.00     0.171 HD
ENDROOT
BRANCH   1   5
HETATM    5  C   UNL     1      38.652 -12.718   0.396  1.00  0.00     0.095 A 
HETATM    6  C   UNL     1      38.260 -11.412   0.641  1.00  0.00     0.093 A 
HETATM    7  C   UNL     1      37.964 -10.596   1.835  1.00  0.00     0.080 C 
HETATM    8  O   UNL     1      38.160 -10.744  -0.538  1.00  0.00    -0.217 OA
HETATM    9  N   UNL     1      38.507 -11.571  -1.580  1.00  0.00    -0.127 NA
HETATM   10  C   UNL     1      38.819 -12.752  -1.028  1.00  0.00     0.117 A 
BRANCH  10  11
HETATM   11  C   UNL     1      39.266 -13.859  -1.860  1.00  0.00     0.056 A 
HETATM   12  C   UNL     1      40.582 -14.338  -1.829  1.00  0.00     0.049 A 
HETATM   13 CL   UNL     1      41.791 -13.660  -0.793  1.00  0.00    -0.083 Cl
HETATM   14  C   UNL     1      40.973 -15.386  -2.675  1.00  0.00     0.025 A 
HETATM   15  C   UNL     1      40.059 -15.954  -3.563  1.00  0.00     0.005 A 
HETATM   16  C   UNL     1      38.749 -15.484  -3.600  1.00  0.00     0.043 A 
HETATM   17  C   UNL     1      38.362 -14.452  -2.748  1.00  0.00     0.130 A 
HETATM   18  F   UNL     1      37.091 -14.023  -2.808  1.00  0.00    -0.205 F 
ENDBRANCH  10  11
ENDBRANCH   1   5
BRANCH   2  19
HETATM   19  C   UNL     1      40.525 -14.623   2.971  1.00  0.00     0.173 A 
HETATM   20  S   UNL     1      40.212 -14.657   4.647  1.00  0.00    -0.061 SA
HETATM   21  C   UNL     1      41.132 -16.091   4.785  1.00  0.00     0.085 A 
HETATM   22  C   UNL     1      41.598 -16.469   3.541  1.00  0.00     0.076 A 
HETATM   23  N   UNL     1      41.229 -15.626   2.500  1.00  0.00    -0.223 NA
BRANCH  22  24
HETATM   24  C   UNL     1      42.446 -17.634   3.316  1.00  0.00    -0.004 A 
HETATM   25  C   UNL     1      43.029 -18.335   4.381  1.00  0.00     0.050 A 
HETATM   26  C   UNL     1      43.869 -19.429   4.122  1.00  0.00     0.103 A 
HETATM   27  C   UNL     1      44.132 -19.836   2.808  1.00  0.00     0.036 A 
HETATM   28  C   UNL     1      43.540 -19.148   1.750  1.00  0.00     0.003 A 
HETATM   29  C   UNL     1      42.701 -18.059   2.004  1.00  0.00     0.014 A 
BRANCH  26  30
HETATM   30  N   UNL     1      44.485 -20.150   5.243  1.00  0.00    -0.116 N 
HETATM   31  O   UNL     1      45.161 -21.155   4.980  1.00  0.00    -0.532 OA
HETATM   32  O   UNL     1      44.289 -19.714   6.386  1.00  0.00    -0.532 OA
ENDBRANCH  26  30
ENDBRANCH  22  24
ENDBRANCH   2  19
TORSDOF 5
ENDMDL
MODEL 8
REMARK VINA RESULT:      -8.5      4.068      8.780
REMARK  5 active torsions:
REMARK  status: ('A' for Active; 'I' for Inactive)
REMARK    1  A    between atoms: C_5  and  C_6 
REMARK    2  A    between atoms: C_14  and  C_15 
REMARK       I    between atoms: C_15  and  N_16 
REMARK    3  A    between atoms: N_16  and  C_17 
REMARK    4  A    between atoms: C_20  and  C_21 
REMARK    5  A    between atoms: C_23  and  N_24 
ROOT
HETATM    1  C   UNL     1      42.378 -15.193   3.193  1.00  0.00     0.262 C 
HETATM    2  N   UNL     1      41.266 -14.583   2.658  1.00  0.00    -0.301 N 
HETATM    3  O   UNL     1      43.476 -15.229   2.648  1.00  0.00    -0.267 OA
HETATM    4  H   UNL     1      40.501 -14.307   3.251  1.00  0.00     0.171 HD
ENDROOT
BRANCH   1   5
HETATM    5  C   UNL     1      42.206 -15.765   4.523  1.00  0.00     0.095 A 
HETATM    6  C   UNL     1      41.658 -15.216   5.669  1.00  0.00     0.093 A 
HETATM    7  C   UNL     1      41.037 -13.928   6.041  1.00  0.00     0.080 C 
HETATM    8  O   UNL     1      41.698 -16.132   6.672  1.00  0.00    -0.217 OA
HETATM    9  N   UNL     1      42.239 -17.309   6.213  1.00  0.00    -0.127 NA
HETATM   10  C   UNL     1      42.533 -17.104   4.922  1.00  0.00     0.117 A 
BRANCH  10  11
HETATM   11  C   UNL     1      43.101 -18.174   4.116  1.00  0.00     0.056 A 
HETATM   12  C   UNL     1      44.290 -18.828   4.464  1.00  0.00     0.049 A 
HETATM   13 CL   UNL     1      45.185 -18.425   5.890  1.00  0.00    -0.083 Cl
HETATM   14  C   UNL     1      44.815 -19.830   3.635  1.00  0.00     0.025 A 
HETATM   15  C   UNL     1      44.164 -20.178   2.451  1.00  0.00     0.005 A 
HETATM   16  C   UNL     1      42.983 -19.534   2.097  1.00  0.00     0.043 A 
HETATM   17  C   UNL     1      42.458 -18.547   2.930  1.00  0.00     0.130 A 
HETATM   18  F   UNL     1      41.315 -17.946   2.561  1.00  0.00    -0.205 F 
ENDBRANCH  10  11
ENDBRANCH   1   5
BRANCH   2  19
HETATM   19  C   UNL     1      41.148 -14.124   1.368  1.00  0.00     0.173 A 
HETATM   20  S   UNL     1      41.869 -12.670   0.845  1.00  0.00    -0.061 SA
HETATM   21  C   UNL     1      41.286 -12.955  -0.737  1.00  0.00     0.085 A 
HETATM   22  C   UNL     1      40.602 -14.154  -0.773  1.00  0.00     0.076 A 
HETATM   23  N   UNL     1      40.542 -14.828   0.440  1.00  0.00    -0.223 NA
BRANCH  22  24
HETATM   24  C   UNL     1      39.948 -14.675  -1.969  1.00  0.00    -0.004 A 
HETATM   25  C   UNL     1      38.772 -14.101  -2.472  1.00  0.00     0.050 A 
HETATM   26  C   UNL     1      38.153 -14.655  -3.604  1.00  0.00     0.103 A 
HETATM   27  C   UNL     1      38.698 -15.775  -4.243  1.00  0.00     0.036 A 
HETATM   28  C   UNL     1      39.875 -16.336  -3.752  1.00  0.00     0.003 A 
HETATM   29  C   UNL     1      40.496 -15.787  -2.626  1.00  0.00     0.014 A 
BRANCH  26  30
HETATM   30  N   UNL     1      36.915 -14.054  -4.118  1.00  0.00    -0.116 N 
HETATM   31  O   UNL     1      36.152 -14.780  -4.772  1.00  0.00    -0.532 OA
HETATM   32  O   UNL     1      36.710 -12.858  -3.871  1.00  0.00    -0.532 OA
ENDBRANCH  26  30
ENDBRANCH  22  24
ENDBRANCH   2  19
TORSDOF 5
ENDMDL
MODEL 9
REMARK VINA RESULT:      -8.5      3.752      4.939
REMARK  5 active torsions:
REMARK  status: ('A' for Active; 'I' for Inactive)
REMARK    1  A    between atoms: C_5  and  C_6 
REMARK    2  A    between atoms: C_14  and  C_15 
REMARK       I    between atoms: C_15  and  N_16 
REMARK    3  A    between atoms: N_16  and  C_17 
REMARK    4  A    between atoms: C_20  and  C_21 
REMARK    5  A    between atoms: C_23  and  N_24 
ROOT
HETATM    1  C   UNL     1      41.055 -13.810   3.238  1.00  0.00     0.262 C 
HETATM    2  N   UNL     1      40.677 -14.993   2.644  1.00  0.00    -0.301 N 
HETATM    3  O   UNL     1      42.218 -13.465   3.411  1.00  0.00    -0.267 OA
HETATM    4  H   UNL     1      39.757 -15.093   2.246  1.00  0.00     0.171 HD
ENDROOT
BRANCH   1   5
HETATM    5  C   UNL     1      39.966 -12.914   3.611  1.00  0.00     0.095 A 
HETATM    6  C   UNL     1      39.472 -12.579   4.860  1.00  0.00     0.093 A 
HETATM    7  C   UNL     1      39.793 -12.923   6.259  1.00  0.00     0.080 C 
HETATM    8  O   UNL     1      38.454 -11.689   4.717  1.00  0.00    -0.217 OA
HETATM    9  N   UNL     1      38.270 -11.393   3.389  1.00  0.00    -0.127 NA
HETATM   10  C   UNL     1      39.182 -12.110   2.718  1.00  0.00     0.117 A 
BRANCH  10  11
HETATM   11  C   UNL     1      39.284 -12.006   1.270  1.00  0.00     0.056 A 
HETATM   12  C   UNL     1      38.591 -12.861   0.404  1.00  0.00     0.049 A 
HETATM   13 CL   UNL     1      37.546 -14.115   0.980  1.00  0.00    -0.083 Cl
HETATM   14  C   UNL     1      38.749 -12.743  -0.984  1.00  0.00     0.025 A 
HETATM   15  C   UNL     1      39.606 -11.778  -1.516  1.00  0.00     0.005 A 
HETATM   16  C   UNL     1      40.298 -10.924  -0.663  1.00  0.00     0.043 A 
HETATM   17  C   UNL     1      40.128 -11.037   0.715  1.00  0.00     0.130 A 
HETATM   18  F   UNL     1      40.809 -10.196   1.511  1.00  0.00    -0.205 F 
ENDBRANCH  10  11
ENDBRANCH   1   5
BRANCH   2  19
HETATM   19  C   UNL     1      41.510 -16.049   2.362  1.00  0.00     0.173 A 
HETATM   20  S   UNL     1      42.076 -16.370   0.786  1.00  0.00    -0.061 SA
HETATM   21  C   UNL     1      42.992 -17.682   1.387  1.00  0.00     0.085 A 
HETATM   22  C   UNL     1      42.829 -17.777   2.755  1.00  0.00     0.076 A 
HETATM   23  N   UNL     1      41.987 -16.821   3.310  1.00  0.00    -0.223 NA
BRANCH  22  24
HETATM   24  C   UNL     1      43.450 -18.815   3.572  1.00  0.00    -0.004 A 
HETATM   25  C   UNL     1      43.305 -18.835   4.967  1.00  0.00     0.050 A 
HETATM   26  C   UNL     1      43.948 -19.829   5.721  1.00  0.00     0.103 A 
HETATM   27  C   UNL     1      44.733 -20.807   5.099  1.00  0.00     0.036 A 
HETATM   28  C   UNL     1      44.864 -20.795   3.712  1.00  0.00     0.003 A 
HETATM   29  C   UNL     1      44.224 -19.808   2.955  1.00  0.00     0.014 A 
BRANCH  26  30
HETATM   30  N   UNL     1      43.800 -19.836   7.183  1.00  0.00    -0.116 N 
HETATM   31  O   UNL     1      43.514 -20.912   7.727  1.00  0.00    -0.532 OA
HETATM   32  O   UNL     1      43.966 -18.766   7.784  1.00  0.00    -0.532 OA
ENDBRANCH  26  30
ENDBRANCH  22  24
ENDBRANCH   2  19
TORSDOF 5
ENDMDL
MODEL 10
REMARK VINA RESULT:      -8.5      2.748      3.445
REMARK  5 active torsions:
REMARK  status: ('A' for Active; 'I' for Inactive)
REMARK    1  A    between atoms: C_5  and  C_6 
REMARK    2  A    between atoms: C_14  and  C_15 
REMARK       I    between atoms: C_15  and  N_16 
REMARK    3  A    between atoms: N_16  and  C_17 
REMARK    4  A    between atoms: C_20  and  C_21 
REMARK    5  A    between atoms: C_23  and  N_24 
ROOT
HETATM    1  C   UNL     1      41.601 -12.974   2.144  1.00  0.00     0.262 C 
HETATM    2  N   UNL     1      40.812 -14.004   2.605  1.00  0.00    -0.301 N 
HETATM    3  O   UNL     1      42.825 -12.961   2.205  1.00  0.00    -0.267 OA
HETATM    4  H   UNL     1      39.872 -14.120   2.262  1.00  0.00     0.171 HD
ENDROOT
BRANCH   1   5
HETATM    5  C   UNL     1      40.892 -11.879   1.494  1.00  0.00     0.095 A 
HETATM    6  C   UNL     1      40.414 -10.688   2.014  1.00  0.00     0.093 A 
HETATM    7  C   UNL     1      40.414 -10.028   3.335  1.00  0.00     0.080 C 
HETATM    8  O   UNL     1      39.830  -9.965   1.023  1.00  0.00    -0.217 OA
HETATM    9  N   UNL     1      39.930 -10.636  -0.172  1.00  0.00    -0.127 NA
HETATM   10  C   UNL     1      40.579 -11.778   0.097  1.00  0.00     0.117 A 
BRANCH  10  11
HETATM   11  C   UNL     1      40.885 -12.722  -0.968  1.00  0.00     0.056 A 
HETATM   12  C   UNL     1      41.991 -12.569  -1.814  1.00  0.00     0.049 A 
HETATM   13 CL   UNL     1      43.097 -11.246  -1.662  1.00  0.00    -0.083 Cl
HETATM   14  C   UNL     1      42.222 -13.487  -2.848  1.00  0.00     0.025 A 
HETATM   15  C   UNL     1      41.348 -14.556  -3.051  1.00  0.00     0.005 A 
HETATM   16  C   UNL     1      40.247 -14.715  -2.216  1.00  0.00     0.043 A 
HETATM   17  C   UNL     1      40.028 -13.808  -1.181  1.00  0.00     0.130 A 
HETATM   18  F   UNL     1      38.957 -13.991  -0.392  1.00  0.00    -0.205 F 
ENDBRANCH  10  11
ENDBRANCH   1   5
BRANCH   2  19
HETATM   19  C   UNL     1      41.239 -15.051   3.387  1.00  0.00     0.173 A 
HETATM   20  S   UNL     1      40.886 -15.152   5.052  1.00  0.00    -0.061 SA
HETATM   21  C   UNL     1      41.688 -16.659   5.126  1.00  0.00     0.085 A 
HETATM   22  C   UNL     1      42.152 -17.004   3.872  1.00  0.00     0.076 A 
HETATM   23  N   UNL     1      41.874 -16.079   2.873  1.00  0.00    -0.223 NA
BRANCH  22  24
HETATM   24  C   UNL     1      42.912 -18.219   3.597  1.00  0.00    -0.004 A 
HETATM   25  C   UNL     1      43.346 -19.063   4.629  1.00  0.00     0.050 A 
HETATM   26  C   UNL     1      44.107 -20.203   4.326  1.00  0.00     0.103 A 
HETATM   27  C   UNL     1      44.437 -20.514   3.002  1.00  0.00     0.036 A 
HETATM   28  C   UNL     1      43.992 -19.683   1.975  1.00  0.00     0.003 A 
HETATM   29  C   UNL     1      43.233 -18.547   2.272  1.00  0.00     0.014 A 
BRANCH  26  30
HETATM   30  N   UNL     1      44.567 -21.075   5.415  1.00  0.00    -0.116 N 
HETATM   31  O   UNL     1      45.399 -21.952   5.137  1.00  0.00    -0.532 OA
HETATM   32  O   UNL     1      44.094 -20.886   6.544  1.00  0.00    -0.532 OA
ENDBRANCH  26  30
ENDBRANCH  22  24
ENDBRANCH   2  19
TORSDOF 5
ENDMDL
