MODEL 1
REMARK VINA RESULT:      -7.2      0.000      0.000
REMARK  4 active torsions:
REMARK  status: ('A' for Active; 'I' for Inactive)
REMARK    1  A    between atoms: C_2  and  O_3 
REMARK    2  A    between atoms: O_3  and  C_4 
REMARK    3  A    between atoms: C_4  and  C_5 
REMARK    4  A    between atoms: C_9  and  N_10 
ROOT
HETATM    1  C   UNL     1      44.324 -19.040   5.260  1.00  0.00     0.109 A 
HETATM    2  S   UNL     1      45.205 -18.284   6.521  1.00  0.00    -0.063 SA
HETATM    3  C   UNL     1      44.429 -16.809   6.261  1.00  0.00     0.088 A 
HETATM    4  C   UNL     1      43.479 -16.821   5.256  1.00  0.00     0.033 A 
HETATM    5  C   UNL     1      43.448 -18.139   4.666  1.00  0.00     0.063 A 
HETATM    6  N   UNL     1      44.733 -15.714   7.000  1.00  0.00    -0.353 N 
HETATM    7  H   UNL     1      45.451 -15.819   7.715  1.00  0.00     0.166 HD
HETATM    8  C   UNL     1      44.120 -14.546   6.786  1.00  0.00     0.015 A 
HETATM    9  C   UNL     1      44.536 -13.389   7.644  1.00  0.00     0.069 C 
HETATM   10  C   UNL     1      43.140 -14.453   5.784  1.00  0.00    -0.005 A 
HETATM   11  C   UNL     1      42.777 -15.600   5.026  1.00  0.00    -0.030 A 
HETATM   12  C   UNL     1      41.699 -15.461   3.966  1.00  0.00     0.077 C 
HETATM   13  C   UNL     1      40.838 -14.194   4.103  1.00  0.00     0.058 C 
HETATM   14  C   UNL     1      39.769 -14.330   5.200  1.00  0.00     0.046 C 
HETATM   15  C   UNL     1      40.129 -13.914   2.771  1.00  0.00     0.046 C 
HETATM   16  O   UNL     1      41.703 -13.077   4.332  1.00  0.00    -0.376 OA
HETATM   17  C   UNL     1      42.433 -13.130   5.549  1.00  0.00     0.210 C 
ENDROOT
BRANCH   1  18
HETATM   18  C   UNL     1      44.536 -20.437   4.901  1.00  0.00     0.302 C 
HETATM   19  O   UNL     1      44.560 -21.361   5.706  1.00  0.00    -0.259 OA
BRANCH  18  20
HETATM   20  O   UNL     1      44.686 -20.588   3.554  1.00  0.00    -0.317 OA
BRANCH  20  21
HETATM   21  C   UNL     1      44.463 -21.912   3.040  1.00  0.00     0.174 C 
HETATM   22  C   UNL     1      44.043 -21.846   1.584  1.00  0.00     0.034 C 
ENDBRANCH  20  21
ENDBRANCH  18  20
ENDBRANCH   1  18
BRANCH   5  23
HETATM   23  N   UNL     1      42.656 -18.492   3.631  1.00  0.00    -0.397 N 
HETATM   24  H   UNL     1      42.023 -19.286   3.633  1.00  0.00     0.156 HD
HETATM   25  H   UNL     1      42.387 -17.805   2.916  1.00  0.00     0.156 HD
ENDBRANCH   5  23
TORSDOF 4
ENDMDL
MODEL 2
REMARK VINA RESULT:      -7.0      2.787      6.886
REMARK  4 active torsions:
REMARK  status: ('A' for Active; 'I' for Inactive)
REMARK    1  A    between atoms: C_2  and  O_3 
REMARK    2  A    between atoms: O_3  and  C_4 
REMARK    3  A    between atoms: C_4  and  C_5 
REMARK    4  A    between atoms: C_9  and  N_10 
ROOT
HETATM    1  C   UNL     1      40.534 -15.944   2.602  1.00  0.00     0.109 A 
HETATM    2  S   UNL     1      40.678 -17.108   1.352  1.00  0.00    -0.063 SA
HETATM    3  C   UNL     1      41.869 -17.956   2.194  1.00  0.00     0.088 A 
HETATM    4  C   UNL     1      42.190 -17.429   3.432  1.00  0.00     0.033 A 
HETATM    5  C   UNL     1      41.407 -16.234   3.643  1.00  0.00     0.063 A 
HETATM    6  N   UNL     1      42.446 -19.064   1.672  1.00  0.00    -0.353 N 
HETATM    7  H   UNL     1      42.133 -19.363   0.750  1.00  0.00     0.166 HD
HETATM    8  C   UNL     1      43.394 -19.729   2.340  1.00  0.00     0.015 A 
HETATM    9  C   UNL     1      43.983 -20.935   1.674  1.00  0.00     0.069 C 
HETATM   10  C   UNL     1      43.794 -19.273   3.608  1.00  0.00    -0.005 A 
HETATM   11  C   UNL     1      43.171 -18.135   4.191  1.00  0.00    -0.030 A 
HETATM   12  C   UNL     1      43.619 -17.687   5.571  1.00  0.00     0.077 C 
HETATM   13  C   UNL     1      44.412 -18.749   6.353  1.00  0.00     0.058 C 
HETATM   14  C   UNL     1      43.499 -19.819   6.974  1.00  0.00     0.046 C 
HETATM   15  C   UNL     1      45.196 -18.068   7.482  1.00  0.00     0.046 C 
HETATM   16  O   UNL     1      45.392 -19.320   5.481  1.00  0.00    -0.376 OA
HETATM   17  C   UNL     1      44.860 -20.034   4.375  1.00  0.00     0.210 C 
ENDROOT
BRANCH   1  18
HETATM   18  C   UNL     1      39.615 -14.817   2.503  1.00  0.00     0.302 C 
HETATM   19  O   UNL     1      39.818 -13.714   2.998  1.00  0.00    -0.259 OA
BRANCH  18  20
HETATM   20  O   UNL     1      38.509 -15.139   1.774  1.00  0.00    -0.317 OA
BRANCH  20  21
HETATM   21  C   UNL     1      37.980 -14.096   0.937  1.00  0.00     0.174 C 
HETATM   22  C   UNL     1      38.828 -13.945  -0.312  1.00  0.00     0.034 C 
ENDBRANCH  20  21
ENDBRANCH  18  20
ENDBRANCH   1  18
BRANCH   5  23
HETATM   23  N   UNL     1      41.496 -15.449   4.739  1.00  0.00    -0.397 N 
HETATM   24  H   UNL     1      41.207 -14.476   4.777  1.00  0.00     0.156 HD
HETATM   25  H   UNL     1      41.540 -15.861   5.679  1.00  0.00     0.156 HD
ENDBRANCH   5  23
TORSDOF 4
ENDMDL
MODEL 3
REMARK VINA RESULT:      -6.9      1.682      2.178
REMARK  4 active torsions:
REMARK  status: ('A' for Active; 'I' for Inactive)
REMARK    1  A    between atoms: C_2  and  O_3 
REMARK    2  A    between atoms: O_3  and  C_4 
REMARK    3  A    between atoms: C_4  and  C_5 
REMARK    4  A    between atoms: C_9  and  N_10 
ROOT
HETATM    1  C   UNL     1      43.544 -18.899   5.933  1.00  0.00     0.109 A 
HETATM    2  S   UNL     1      43.480 -17.673   7.130  1.00  0.00    -0.063 SA
HETATM    3  C   UNL     1      42.948 -16.525   6.013  1.00  0.00     0.088 A 
HETATM    4  C   UNL     1      42.777 -17.003   4.726  1.00  0.00     0.033 A 
HETATM    5  C   UNL     1      43.153 -18.398   4.697  1.00  0.00     0.063 A 
HETATM    6  N   UNL     1      42.714 -15.243   6.380  1.00  0.00    -0.353 N 
HETATM    7  H   UNL     1      42.874 -15.000   7.356  1.00  0.00     0.166 HD
HETATM    8  C   UNL     1      42.299 -14.335   5.490  1.00  0.00     0.015 A 
HETATM    9  C   UNL     1      42.081 -12.939   5.989  1.00  0.00     0.069 C 
HETATM   10  C   UNL     1      42.097 -14.720   4.154  1.00  0.00    -0.005 A 
HETATM   11  C   UNL     1      42.297 -16.071   3.758  1.00  0.00    -0.030 A 
HETATM   12  C   UNL     1      42.049 -16.449   2.309  1.00  0.00     0.077 C 
HETATM   13  C   UNL     1      41.223 -15.418   1.520  1.00  0.00     0.058 C 
HETATM   14  C   UNL     1      39.719 -15.519   1.825  1.00  0.00     0.046 C 
HETATM   15  C   UNL     1      41.427 -15.647   0.016  1.00  0.00     0.046 C 
HETATM   16  O   UNL     1      41.740 -14.112   1.794  1.00  0.00    -0.376 OA
HETATM   17  C   UNL     1      41.612 -13.695   3.145  1.00  0.00     0.210 C 
ENDROOT
BRANCH   1  18
HETATM   18  C   UNL     1      43.982 -20.254   6.241  1.00  0.00     0.302 C 
HETATM   19  O   UNL     1      43.589 -20.907   7.201  1.00  0.00    -0.259 OA
BRANCH  18  20
HETATM   20  O   UNL     1      44.873 -20.712   5.314  1.00  0.00    -0.317 OA
BRANCH  20  21
HETATM   21  C   UNL     1      44.986 -22.141   5.202  1.00  0.00     0.174 C 
HETATM   22  C   UNL     1      44.603 -22.589   3.804  1.00  0.00     0.034 C 
ENDBRANCH  20  21
ENDBRANCH  18  20
ENDBRANCH   1  18
BRANCH   5  23
HETATM   23  N   UNL     1      43.139 -19.167   3.588  1.00  0.00    -0.397 N 
HETATM   24  H   UNL     1      43.319 -18.828   2.648  1.00  0.00     0.156 HD
HETATM   25  H   UNL     1      43.280 -20.183   3.650  1.00  0.00     0.156 HD
ENDBRANCH   5  23
TORSDOF 4
ENDMDL
MODEL 4
REMARK VINA RESULT:      -6.8      2.669      6.438
REMARK  4 active torsions:
REMARK  status: ('A' for Active; 'I' for Inactive)
REMARK    1  A    between atoms: C_2  and  O_3 
REMARK    2  A    between atoms: O_3  and  C_4 
REMARK    3  A    between atoms: C_4  and  C_5 
REMARK    4  A    between atoms: C_9  and  N_10 
ROOT
HETATM    1  C   UNL     1      40.629 -15.712   2.433  1.00  0.00     0.109 A 
HETATM    2  S   UNL     1      41.175 -15.100   3.939  1.00  0.00    -0.063 SA
HETATM    3  C   UNL     1      42.124 -16.467   4.219  1.00  0.00     0.088 A 
HETATM    4  C   UNL     1      42.093 -17.412   3.210  1.00  0.00     0.033 A 
HETATM    5  C   UNL     1      41.191 -16.957   2.178  1.00  0.00     0.063 A 
HETATM    6  N   UNL     1      42.851 -16.598   5.355  1.00  0.00    -0.353 N 
HETATM    7  H   UNL     1      42.799 -15.839   6.033  1.00  0.00     0.166 HD
HETATM    8  C   UNL     1      43.595 -17.685   5.576  1.00  0.00     0.015 A 
HETATM    9  C   UNL     1      44.352 -17.745   6.868  1.00  0.00     0.069 C 
HETATM   10  C   UNL     1      43.630 -18.706   4.612  1.00  0.00    -0.005 A 
HETATM   11  C   UNL     1      42.907 -18.569   3.394  1.00  0.00    -0.030 A 
HETATM   12  C   UNL     1      42.987 -19.687   2.370  1.00  0.00     0.077 C 
HETATM   13  C   UNL     1      44.159 -20.661   2.588  1.00  0.00     0.058 C 
HETATM   14  C   UNL     1      45.496 -20.085   2.094  1.00  0.00     0.046 C 
HETATM   15  C   UNL     1      43.884 -21.965   1.827  1.00  0.00     0.046 C 
HETATM   16  O   UNL     1      44.206 -21.015   3.974  1.00  0.00    -0.376 OA
HETATM   17  C   UNL     1      44.487 -19.936   4.854  1.00  0.00     0.210 C 
ENDROOT
BRANCH   1  18
HETATM   18  C   UNL     1      39.685 -14.978   1.600  1.00  0.00     0.302 C 
HETATM   19  O   UNL     1      38.466 -15.043   1.715  1.00  0.00    -0.259 OA
BRANCH  18  20
HETATM   20  O   UNL     1      40.330 -14.194   0.689  1.00  0.00    -0.317 OA
BRANCH  20  21
HETATM   21  C   UNL     1      39.886 -14.317  -0.673  1.00  0.00     0.174 C 
HETATM   22  C   UNL     1      40.981 -14.928  -1.528  1.00  0.00     0.034 C 
ENDBRANCH  20  21
ENDBRANCH  18  20
ENDBRANCH   1  18
BRANCH   5  23
HETATM   23  N   UNL     1      40.899 -17.654   1.059  1.00  0.00    -0.397 N 
HETATM   24  H   UNL     1      41.478 -18.395   0.673  1.00  0.00     0.156 HD
HETATM   25  H   UNL     1      39.932 -17.722   0.719  1.00  0.00     0.156 HD
ENDBRANCH   5  23
TORSDOF 4
ENDMDL
MODEL 5
REMARK VINA RESULT:      -6.7      2.325      3.743
REMARK  4 active torsions:
REMARK  status: ('A' for Active; 'I' for Inactive)
REMARK    1  A    between atoms: C_2  and  O_3 
REMARK    2  A    between atoms: O_3  and  C_4 
REMARK    3  A    between atoms: C_4  and  C_5 
REMARK    4  A    between atoms: C_9  and  N_10 
ROOT
HETATM    1  C   UNL     1      43.711 -18.460   3.293  1.00  0.00     0.109 A 
HETATM    2  S   UNL     1      43.819 -18.209   1.600  1.00  0.00    -0.063 SA
HETATM    3  C   UNL     1      42.818 -16.854   1.675  1.00  0.00     0.088 A 
HETATM    4  C   UNL     1      42.385 -16.522   2.946  1.00  0.00     0.033 A 
HETATM    5  C   UNL     1      42.905 -17.493   3.880  1.00  0.00     0.063 A 
HETATM    6  N   UNL     1      42.484 -16.164   0.558  1.00  0.00    -0.353 N 
HETATM    7  H   UNL     1      42.860 -16.498  -0.327  1.00  0.00     0.166 HD
HETATM    8  C   UNL     1      41.684 -15.095   0.622  1.00  0.00     0.015 A 
HETATM    9  C   UNL     1      41.359 -14.406  -0.669  1.00  0.00     0.069 C 
HETATM   10  C   UNL     1      41.188 -14.676   1.868  1.00  0.00    -0.005 A 
HETATM   11  C   UNL     1      41.560 -15.362   3.057  1.00  0.00    -0.030 A 
HETATM   12  C   UNL     1      41.018 -14.865   4.385  1.00  0.00     0.077 C 
HETATM   13  C   UNL     1      40.450 -13.436   4.340  1.00  0.00     0.058 C 
HETATM   14  C   UNL     1      41.555 -12.368   4.369  1.00  0.00     0.046 C 
HETATM   15  C   UNL     1      39.533 -13.216   5.550  1.00  0.00     0.046 C 
HETATM   16  O   UNL     1      39.614 -13.313   3.184  1.00  0.00    -0.376 OA
HETATM   17  C   UNL     1      40.291 -13.453   1.944  1.00  0.00     0.210 C 
ENDROOT
BRANCH   1  18
HETATM   18  C   UNL     1      44.382 -19.574   3.951  1.00  0.00     0.302 C 
HETATM   19  O   UNL     1      44.386 -19.761   5.163  1.00  0.00    -0.259 OA
BRANCH  18  20
HETATM   20  O   UNL     1      44.991 -20.394   3.046  1.00  0.00    -0.317 OA
BRANCH  20  21
HETATM   21  C   UNL     1      44.432 -21.712   2.916  1.00  0.00     0.174 C 
HETATM   22  C   UNL     1      44.049 -21.980   1.473  1.00  0.00     0.034 C 
ENDBRANCH  20  21
ENDBRANCH  18  20
ENDBRANCH   1  18
BRANCH   5  23
HETATM   23  N   UNL     1      42.649 -17.488   5.206  1.00  0.00    -0.397 N 
HETATM   24  H   UNL     1      41.742 -17.286   5.617  1.00  0.00     0.156 HD
HETATM   25  H   UNL     1      43.247 -18.008   5.860  1.00  0.00     0.156 HD
ENDBRANCH   5  23
TORSDOF 4
ENDMDL
MODEL 6
REMARK VINA RESULT:      -6.7      3.146      6.665
REMARK  4 active torsions:
REMARK  status: ('A' for Active; 'I' for Inactive)
REMARK    1  A    between atoms: C_2  and  O_3 
REMARK    2  A    between atoms: O_3  and  C_4 
REMARK    3  A    between atoms: C_4  and  C_5 
REMARK    4  A    between atoms: C_9  and  N_10 
ROOT
HETATM    1  C   UNL     1      41.307 -14.987   0.897  1.00  0.00     0.109 A 
HETATM    2  S   UNL     1      41.597 -16.527   0.201  1.00  0.00    -0.063 SA
HETATM    3  C   UNL     1      42.369 -17.080   1.595  1.00  0.00     0.088 A 
HETATM    4  C   UNL     1      42.423 -16.165   2.630  1.00  0.00     0.033 A 
HETATM    5  C   UNL     1      41.811 -14.932   2.191  1.00  0.00     0.063 A 
HETATM    6  N   UNL     1      42.883 -18.331   1.665  1.00  0.00    -0.353 N 
HETATM    7  H   UNL     1      42.787 -18.922   0.841  1.00  0.00     0.166 HD
HETATM    8  C   UNL     1      43.500 -18.763   2.769  1.00  0.00     0.015 A 
HETATM    9  C   UNL     1      44.050 -20.157   2.745  1.00  0.00     0.069 C 
HETATM   10  C   UNL     1      43.611 -17.907   3.878  1.00  0.00    -0.005 A 
HETATM   11  C   UNL     1      43.041 -16.605   3.839  1.00  0.00    -0.030 A 
HETATM   12  C   UNL     1      43.165 -15.719   5.066  1.00  0.00     0.077 C 
HETATM   13  C   UNL     1      43.542 -16.472   6.354  1.00  0.00     0.058 C 
HETATM   14  C   UNL     1      42.340 -17.200   6.977  1.00  0.00     0.046 C 
HETATM   15  C   UNL     1      44.090 -15.475   7.384  1.00  0.00     0.046 C 
HETATM   16  O   UNL     1      44.619 -17.368   6.060  1.00  0.00    -0.376 OA
HETATM   17  C   UNL     1      44.298 -18.400   5.138  1.00  0.00     0.210 C 
ENDROOT
BRANCH   1  18
HETATM   18  C   UNL     1      40.637 -13.922   0.161  1.00  0.00     0.302 C 
HETATM   19  O   UNL     1      40.953 -12.739   0.216  1.00  0.00    -0.259 OA
BRANCH  18  20
HETATM   20  O   UNL     1      39.626 -14.412  -0.613  1.00  0.00    -0.317 OA
BRANCH  20  21
HETATM   21  C   UNL     1      38.384 -13.689  -0.557  1.00  0.00     0.174 C 
HETATM   22  C   UNL     1      37.608 -14.075   0.689  1.00  0.00     0.034 C 
ENDBRANCH  20  21
ENDBRANCH  18  20
ENDBRANCH   1  18
BRANCH   5  23
HETATM   23  N   UNL     1      41.723 -13.815   2.943  1.00  0.00    -0.397 N 
HETATM   24  H   UNL     1      41.052 -13.068   2.791  1.00  0.00     0.156 HD
HETATM   25  H   UNL     1      42.090 -13.797   3.903  1.00  0.00     0.156 HD
ENDBRANCH   5  23
TORSDOF 4
ENDMDL
MODEL 7
REMARK VINA RESULT:      -6.6      3.941      6.094
REMARK  4 active torsions:
REMARK  status: ('A' for Active; 'I' for Inactive)
REMARK    1  A    between atoms: C_2  and  O_3 
REMARK    2  A    between atoms: O_3  and  C_4 
REMARK    3  A    between atoms: C_4  and  C_5 
REMARK    4  A    between atoms: C_9  and  N_10 
ROOT
HETATM    1  C   UNL     1      41.678 -16.740   2.721  1.00  0.00     0.109 A 
HETATM    2  S   UNL     1      42.503 -17.113   1.265  1.00  0.00    -0.063 SA
HETATM    3  C   UNL     1      41.539 -16.052   0.376  1.00  0.00     0.088 A 
HETATM    4  C   UNL     1      40.591 -15.369   1.116  1.00  0.00     0.033 A 
HETATM    5  C   UNL     1      40.677 -15.805   2.491  1.00  0.00     0.063 A 
HETATM    6  N   UNL     1      41.706 -15.902  -0.960  1.00  0.00    -0.353 N 
HETATM    7  H   UNL     1      42.436 -16.457  -1.405  1.00  0.00     0.166 HD
HETATM    8  C   UNL     1      40.935 -15.065  -1.662  1.00  0.00     0.015 A 
HETATM    9  C   UNL     1      41.187 -14.979  -3.137  1.00  0.00     0.069 C 
HETATM   10  C   UNL     1      39.940 -14.325  -1.003  1.00  0.00    -0.005 A 
HETATM   11  C   UNL     1      39.776 -14.438   0.406  1.00  0.00    -0.030 A 
HETATM   12  C   UNL     1      38.702 -13.605   1.083  1.00  0.00     0.077 C 
HETATM   13  C   UNL     1      38.179 -12.436   0.231  1.00  0.00     0.058 C 
HETATM   14  C   UNL     1      39.140 -11.235   0.235  1.00  0.00     0.046 C 
HETATM   15  C   UNL     1      36.824 -11.972   0.782  1.00  0.00     0.046 C 
HETATM   16  O   UNL     1      37.924 -12.914  -1.094  1.00  0.00    -0.376 OA
HETATM   17  C   UNL     1      39.073 -13.364  -1.795  1.00  0.00     0.210 C 
ENDROOT
BRANCH   1  18
HETATM   18  C   UNL     1      42.021 -17.377   3.986  1.00  0.00     0.302 C 
HETATM   19  O   UNL     1      41.201 -17.779   4.803  1.00  0.00    -0.259 OA
BRANCH  18  20
HETATM   20  O   UNL     1      43.373 -17.487   4.138  1.00  0.00    -0.317 OA
BRANCH  20  21
HETATM   21  C   UNL     1      43.847 -18.731   4.680  1.00  0.00     0.174 C 
HETATM   22  C   UNL     1      44.255 -19.669   3.560  1.00  0.00     0.034 C 
ENDBRANCH  20  21
ENDBRANCH  18  20
ENDBRANCH   1  18
BRANCH   5  23
HETATM   23  N   UNL     1      39.872 -15.363   3.481  1.00  0.00    -0.397 N 
HETATM   24  H   UNL     1      39.059 -14.770   3.343  1.00  0.00     0.156 HD
HETATM   25  H   UNL     1      39.822 -15.860   4.379  1.00  0.00     0.156 HD
ENDBRANCH   5  23
TORSDOF 4
ENDMDL
MODEL 8
REMARK VINA RESULT:      -6.5      2.220      2.990
REMARK  4 active torsions:
REMARK  status: ('A' for Active; 'I' for Inactive)
REMARK    1  A    between atoms: C_2  and  O_3 
REMARK    2  A    between atoms: O_3  and  C_4 
REMARK    3  A    between atoms: C_4  and  C_5 
REMARK    4  A    between atoms: C_9  and  N_10 
ROOT
HETATM    1  C   UNL     1      42.639 -17.799   5.256  1.00  0.00     0.109 A 
HETATM    2  S   UNL     1      42.037 -17.038   6.669  1.00  0.00    -0.063 SA
HETATM    3  C   UNL     1      41.287 -15.824   5.769  1.00  0.00     0.088 A 
HETATM    4  C   UNL     1      41.431 -15.944   4.399  1.00  0.00     0.033 A 
HETATM    5  C   UNL     1      42.248 -17.102   4.120  1.00  0.00     0.063 A 
HETATM    6  N   UNL     1      40.601 -14.824   6.372  1.00  0.00    -0.353 N 
HETATM    7  H   UNL     1      40.559 -14.833   7.389  1.00  0.00     0.166 HD
HETATM    8  C   UNL     1      40.014 -13.860   5.655  1.00  0.00     0.015 A 
HETATM    9  C   UNL     1      39.291 -12.788   6.412  1.00  0.00     0.069 C 
HETATM   10  C   UNL     1      40.104 -13.890   4.253  1.00  0.00    -0.005 A 
HETATM   11  C   UNL     1      40.784 -14.955   3.600  1.00  0.00    -0.030 A 
HETATM   12  C   UNL     1      40.842 -14.959   2.082  1.00  0.00     0.077 C 
HETATM   13  C   UNL     1      39.817 -14.031   1.409  1.00  0.00     0.058 C 
HETATM   14  C   UNL     1      38.407 -14.642   1.377  1.00  0.00     0.046 C 
HETATM   15  C   UNL     1      40.255 -13.753  -0.035  1.00  0.00     0.046 C 
HETATM   16  O   UNL     1      39.838 -12.765   2.078  1.00  0.00    -0.376 OA
HETATM   17  C   UNL     1      39.426 -12.805   3.436  1.00  0.00     0.210 C 
ENDROOT
BRANCH   1  18
HETATM   18  C   UNL     1      43.463 -19.000   5.320  1.00  0.00     0.302 C 
HETATM   19  O   UNL     1      43.420 -19.821   6.229  1.00  0.00    -0.259 OA
BRANCH  18  20
HETATM   20  O   UNL     1      44.276 -19.104   4.229  1.00  0.00    -0.317 OA
BRANCH  20  21
HETATM   21  C   UNL     1      44.776 -20.421   3.939  1.00  0.00     0.174 C 
HETATM   22  C   UNL     1      44.418 -20.817   2.519  1.00  0.00     0.034 C 
ENDBRANCH  20  21
ENDBRANCH  18  20
ENDBRANCH   1  18
BRANCH   5  23
HETATM   23  N   UNL     1      42.616 -17.494   2.881  1.00  0.00    -0.397 N 
HETATM   24  H   UNL     1      42.237 -17.113   2.019  1.00  0.00     0.156 HD
HETATM   25  H   UNL     1      43.524 -17.947   2.720  1.00  0.00     0.156 HD
ENDBRANCH   5  23
TORSDOF 4
ENDMDL
MODEL 9
REMARK VINA RESULT:      -6.4      2.502      4.199
REMARK  4 active torsions:
REMARK  status: ('A' for Active; 'I' for Inactive)
REMARK    1  A    between atoms: C_2  and  O_3 
REMARK    2  A    between atoms: O_3  and  C_4 
REMARK    3  A    between atoms: C_4  and  C_5 
REMARK    4  A    between atoms: C_9  and  N_10 
ROOT
HETATM    1  C   UNL     1      42.606 -17.835   3.257  1.00  0.00     0.109 A 
HETATM    2  S   UNL     1      41.814 -17.817   1.736  1.00  0.00    -0.063 SA
HETATM    3  C   UNL     1      41.011 -16.379   2.103  1.00  0.00     0.088 A 
HETATM    4  C   UNL     1      41.310 -15.847   3.344  1.00  0.00     0.033 A 
HETATM    5  C   UNL     1      42.235 -16.731   4.015  1.00  0.00     0.063 A 
HETATM    6  N   UNL     1      40.148 -15.813   1.226  1.00  0.00    -0.353 N 
HETATM    7  H   UNL     1      40.002 -16.292   0.339  1.00  0.00     0.166 HD
HETATM    8  C   UNL     1      39.509 -14.677   1.523  1.00  0.00     0.015 A 
HETATM    9  C   UNL     1      38.562 -14.136   0.495  1.00  0.00     0.069 C 
HETATM   10  C   UNL     1      39.742 -14.057   2.762  1.00  0.00    -0.005 A 
HETATM   11  C   UNL     1      40.676 -14.614   3.679  1.00  0.00    -0.030 A 
HETATM   12  C   UNL     1      40.913 -13.902   4.999  1.00  0.00     0.077 C 
HETATM   13  C   UNL     1      40.418 -12.445   5.028  1.00  0.00     0.058 C 
HETATM   14  C   UNL     1      41.383 -11.486   4.314  1.00  0.00     0.046 C 
HETATM   15  C   UNL     1      40.272 -11.988   6.486  1.00  0.00     0.046 C 
HETATM   16  O   UNL     1      39.102 -12.399   4.467  1.00  0.00    -0.376 OA
HETATM   17  C   UNL     1      39.028 -12.760   3.096  1.00  0.00     0.210 C 
ENDROOT
BRANCH   1  18
HETATM   18  C   UNL     1      43.513 -18.909   3.641  1.00  0.00     0.302 C 
HETATM   19  O   UNL     1      43.663 -19.310   4.790  1.00  0.00    -0.259 OA
BRANCH  18  20
HETATM   20  O   UNL     1      44.161 -19.425   2.557  1.00  0.00    -0.317 OA
BRANCH  20  21
HETATM   21  C   UNL     1      44.578 -20.796   2.667  1.00  0.00     0.174 C 
HETATM   22  C   UNL     1      43.750 -21.672   1.745  1.00  0.00     0.034 C 
ENDBRANCH  20  21
ENDBRANCH  18  20
ENDBRANCH   1  18
BRANCH   5  23
HETATM   23  N   UNL     1      42.710 -16.530   5.263  1.00  0.00    -0.397 N 
HETATM   24  H   UNL     1      42.137 -16.498   6.100  1.00  0.00     0.156 HD
HETATM   25  H   UNL     1      43.692 -16.733   5.491  1.00  0.00     0.156 HD
ENDBRANCH   5  23
TORSDOF 4
ENDMDL
MODEL 10
REMARK VINA RESULT:      -6.3      4.975      7.857
REMARK  4 active torsions:
REMARK  status: ('A' for Active; 'I' for Inactive)
REMARK    1  A    between atoms: C_2  and  O_3 
REMARK    2  A    between atoms: O_3  and  C_4 
REMARK    3  A    between atoms: C_4  and  C_5 
REMARK    4  A    between atoms: C_9  and  N_10 
ROOT
HETATM    1  C   UNL     1      40.097 -13.886  -1.499  1.00  0.00     0.109 A 
HETATM    2  S   UNL     1      39.491 -12.868  -0.259  1.00  0.00    -0.063 SA
HETATM    3  C   UNL     1      40.000 -13.932   0.947  1.00  0.00     0.088 A 
HETATM    4  C   UNL     1      40.652 -15.062   0.487  1.00  0.00     0.033 A 
HETATM    5  C   UNL     1      40.680 -15.024  -0.956  1.00  0.00     0.063 A 
HETATM    6  N   UNL     1      39.774 -13.670   2.257  1.00  0.00    -0.353 N 
HETATM    7  H   UNL     1      39.283 -12.807   2.483  1.00  0.00     0.166 HD
HETATM    8  C   UNL     1      40.173 -14.520   3.209  1.00  0.00     0.015 A 
HETATM    9  C   UNL     1      39.865 -14.150   4.628  1.00  0.00     0.069 C 
HETATM   10  C   UNL     1      40.843 -15.700   2.845  1.00  0.00    -0.005 A 
HETATM   11  C   UNL     1      41.127 -15.972   1.478  1.00  0.00    -0.030 A 
HETATM   12  C   UNL     1      41.870 -17.250   1.130  1.00  0.00     0.077 C 
HETATM   13  C   UNL     1      42.587 -17.908   2.321  1.00  0.00     0.058 C 
HETATM   14  C   UNL     1      43.911 -17.207   2.666  1.00  0.00     0.046 C 
HETATM   15  C   UNL     1      42.890 -19.374   1.985  1.00  0.00     0.046 C 
HETATM   16  O   UNL     1      41.689 -17.936   3.436  1.00  0.00    -0.376 OA
HETATM   17  C   UNL     1      41.310 -16.659   3.925  1.00  0.00     0.210 C 
ENDROOT
BRANCH   1  18
HETATM   18  C   UNL     1      39.960 -13.547  -2.910  1.00  0.00     0.302 C 
HETATM   19  O   UNL     1      38.912 -13.193  -3.437  1.00  0.00    -0.259 OA
BRANCH  18  20
HETATM   20  O   UNL     1      41.151 -13.655  -3.565  1.00  0.00    -0.317 OA
BRANCH  20  21
HETATM   21  C   UNL     1      42.124 -12.635  -3.276  1.00  0.00     0.174 C 
HETATM   22  C   UNL     1      41.990 -11.489  -4.261  1.00  0.00     0.034 C 
ENDBRANCH  20  21
ENDBRANCH  18  20
ENDBRANCH   1  18
BRANCH   5  23
HETATM   23  N   UNL     1      41.213 -15.992  -1.733  1.00  0.00    -0.397 N 
HETATM   24  H   UNL     1      41.003 -16.982  -1.648  1.00  0.00     0.156 HD
HETATM   25  H   UNL     1      41.593 -15.771  -2.662  1.00  0.00     0.156 HD
ENDBRANCH   5  23
TORSDOF 4
ENDMDL
