MODEL 1
REMARK VINA RESULT:      -9.1      0.000      0.000
REMARK  7 active torsions:
REMARK  status: ('A' for Active; 'I' for Inactive)
REMARK    1  A    between atoms: C_3  and  O_4 
REMARK    2  A    between atoms: O_4  and  C_5 
REMARK    3  A    between atoms: C_5  and  C_6 
REMARK       I    between atoms: C_6  and  N_7 
REMARK    4  A    between atoms: N_7  and  C_8 
REMARK    5  A    between atoms: C_11  and  N_12 
REMARK    6  A    between atoms: N_15  and  C_17 
REMARK    7  A    between atoms: C_17  and  C_18 
ROOT
HETATM    1  C   UNL     1      43.480 -14.889   5.896  1.00  0.00     0.034 A 
HETATM    2  C   UNL     1      44.519 -14.907   6.821  1.00  0.00     0.032 A 
HETATM    3  C   UNL     1      44.723 -13.825   7.693  1.00  0.00     0.031 A 
HETATM    4  C   UNL     1      43.912 -12.684   7.659  1.00  0.00     0.030 A 
HETATM    5  C   UNL     1      42.865 -12.691   6.724  1.00  0.00     0.031 A 
HETATM    6  C   UNL     1      42.647 -13.771   5.860  1.00  0.00     0.032 A 
ENDROOT
BRANCH   4   7
HETATM    7  N   UNL     1      44.073 -11.601   8.518  1.00  0.00    -0.378 N 
HETATM    8  C   UNL     1      45.154 -11.683   9.522  1.00  0.00     0.150 C 
HETATM    9  C   UNL     1      44.593 -12.103  10.898  1.00  0.00     0.255 C 
HETATM   10  N   UNL     1      43.466 -11.153  11.319  1.00  0.00    -0.064 N 
HETATM   11  H   UNL     1      43.874 -10.212  11.345  1.00  0.00     0.280 HD
HETATM   12  C   UNL     1      42.358 -11.142  10.268  1.00  0.00     0.255 C 
HETATM   13  C   UNL     1      42.930 -10.752   8.891  1.00  0.00     0.150 C 
BRANCH  10  14
HETATM   14  C   UNL     1      42.932 -11.440  12.700  1.00  0.00     0.273 C 
BRANCH  14  15
HETATM   15  C   UNL     1      42.641 -10.192  13.488  1.00  0.00    -0.033 A 
HETATM   16  C   UNL     1      42.194 -10.270  14.818  1.00  0.00     0.009 A 
HETATM   17  C   UNL     1      41.894  -9.109  15.532  1.00  0.00     0.001 A 
HETATM   18  C   UNL     1      42.043  -7.861  14.932  1.00  0.00     0.000 A 
HETATM   19  C   UNL     1      42.499  -7.769  13.618  1.00  0.00     0.001 A 
HETATM   20  C   UNL     1      42.796  -8.928  12.898  1.00  0.00     0.009 A 
ENDBRANCH  14  15
ENDBRANCH  10  14
ENDBRANCH   4   7
BRANCH   1  21
HETATM   21  N   UNL     1      43.190 -15.943   5.006  1.00  0.00    -0.325 N 
HETATM   22  C   UNL     1      42.173 -16.887   5.115  1.00  0.00     0.246 C 
HETATM   23  O   UNL     1      41.393 -16.984   6.056  1.00  0.00    -0.271 OA
HETATM   24  H   UNL     1      43.814 -16.037   4.213  1.00  0.00     0.169 HD
BRANCH  22  25
HETATM   25  C   UNL     1      42.134 -17.822   3.898  1.00  0.00     0.278 C 
BRANCH  25  26
HETATM   26  O   UNL     1      43.408 -17.955   3.274  1.00  0.00    -0.342 OA
BRANCH  26  27
HETATM   27  C   UNL     1      43.741 -19.276   3.137  1.00  0.00     0.075 A 
HETATM   28  C   UNL     1      44.498 -19.934   4.115  1.00  0.00    -0.029 A 
HETATM   29  C   UNL     1      44.968 -19.231   5.354  1.00  0.00     0.051 C 
HETATM   30  C   UNL     1      44.785 -21.294   3.931  1.00  0.00     0.009 A 
HETATM   31  C   UNL     1      44.360 -21.962   2.780  1.00  0.00     0.001 A 
HETATM   32  C   UNL     1      43.644 -21.279   1.797  1.00  0.00     0.003 A 
HETATM   33  C   UNL     1      43.337 -19.932   1.972  1.00  0.00     0.037 A 
ENDBRANCH  26  27
ENDBRANCH  25  26
ENDBRANCH  22  25
ENDBRANCH   1  21
TORSDOF 7
ENDMDL
MODEL 2
REMARK VINA RESULT:      -9.1      2.494     11.082
REMARK  7 active torsions:
REMARK  status: ('A' for Active; 'I' for Inactive)
REMARK    1  A    between atoms: C_3  and  O_4 
REMARK    2  A    between atoms: O_4  and  C_5 
REMARK    3  A    between atoms: C_5  and  C_6 
REMARK       I    between atoms: C_6  and  N_7 
REMARK    4  A    between atoms: N_7  and  C_8 
REMARK    5  A    between atoms: C_11  and  N_12 
REMARK    6  A    between atoms: N_15  and  C_17 
REMARK    7  A    between atoms: C_17  and  C_18 
ROOT
HETATM    1  C   UNL     1      43.777 -14.050   6.796  1.00  0.00     0.034 A 
HETATM    2  C   UNL     1      43.988 -15.418   6.648  1.00  0.00     0.032 A 
HETATM    3  C   UNL     1      43.527 -16.098   5.509  1.00  0.00     0.031 A 
HETATM    4  C   UNL     1      42.825 -15.442   4.490  1.00  0.00     0.030 A 
HETATM    5  C   UNL     1      42.631 -14.062   4.655  1.00  0.00     0.031 A 
HETATM    6  C   UNL     1      43.098 -13.375   5.782  1.00  0.00     0.032 A 
ENDROOT
BRANCH   4   7
HETATM    7  N   UNL     1      42.368 -16.078   3.339  1.00  0.00    -0.378 N 
HETATM    8  C   UNL     1      41.592 -17.323   3.513  1.00  0.00     0.150 C 
HETATM    9  C   UNL     1      42.486 -18.562   3.289  1.00  0.00     0.255 C 
HETATM   10  N   UNL     1      43.169 -18.477   1.920  1.00  0.00    -0.064 N 
HETATM   11  H   UNL     1      42.418 -18.418   1.224  1.00  0.00     0.280 HD
HETATM   12  C   UNL     1      43.992 -17.195   1.813  1.00  0.00     0.255 C 
HETATM   13  C   UNL     1      43.099 -15.964   2.068  1.00  0.00     0.150 C 
BRANCH  10  14
HETATM   14  C   UNL     1      43.985 -19.700   1.585  1.00  0.00     0.273 C 
BRANCH  14  15
HETATM   15  C   UNL     1      44.292 -20.549   2.789  1.00  0.00    -0.033 A 
HETATM   16  C   UNL     1      44.629 -19.958   4.018  1.00  0.00     0.009 A 
HETATM   17  C   UNL     1      44.945 -20.752   5.121  1.00  0.00     0.001 A 
HETATM   18  C   UNL     1      44.920 -22.141   5.013  1.00  0.00     0.000 A 
HETATM   19  C   UNL     1      44.574 -22.739   3.803  1.00  0.00     0.001 A 
HETATM   20  C   UNL     1      44.261 -21.949   2.696  1.00  0.00     0.009 A 
ENDBRANCH  14  15
ENDBRANCH  10  14
ENDBRANCH   4   7
BRANCH   1  21
HETATM   21  N   UNL     1      44.231 -13.290   7.892  1.00  0.00    -0.325 N 
HETATM   22  C   UNL     1      45.492 -12.727   8.067  1.00  0.00     0.246 C 
HETATM   23  O   UNL     1      46.442 -12.862   7.303  1.00  0.00    -0.271 OA
HETATM   24  H   UNL     1      43.569 -13.167   8.649  1.00  0.00     0.169 HD
BRANCH  22  25
HETATM   25  C   UNL     1      45.569 -11.900   9.358  1.00  0.00     0.278 C 
BRANCH  25  26
HETATM   26  O   UNL     1      44.833 -10.683   9.269  1.00  0.00    -0.342 OA
BRANCH  26  27
HETATM   27  C   UNL     1      43.834 -10.656  10.205  1.00  0.00     0.075 A 
HETATM   28  C   UNL     1      42.489 -10.589   9.821  1.00  0.00    -0.029 A 
HETATM   29  C   UNL     1      42.081 -10.552   8.377  1.00  0.00     0.051 C 
HETATM   30  C   UNL     1      41.509 -10.590  10.823  1.00  0.00     0.009 A 
HETATM   31  C   UNL     1      41.872 -10.617  12.173  1.00  0.00     0.001 A 
HETATM   32  C   UNL     1      43.217 -10.641  12.536  1.00  0.00     0.003 A 
HETATM   33  C   UNL     1      44.202 -10.656  11.552  1.00  0.00     0.037 A 
ENDBRANCH  26  27
ENDBRANCH  25  26
ENDBRANCH  22  25
ENDBRANCH   1  21
TORSDOF 7
ENDMDL
MODEL 3
REMARK VINA RESULT:      -8.9      1.772      2.513
REMARK  7 active torsions:
REMARK  status: ('A' for Active; 'I' for Inactive)
REMARK    1  A    between atoms: C_3  and  O_4 
REMARK    2  A    between atoms: O_4  and  C_5 
REMARK    3  A    between atoms: C_5  and  C_6 
REMARK       I    between atoms: C_6  and  N_7 
REMARK    4  A    between atoms: N_7  and  C_8 
REMARK    5  A    between atoms: C_11  and  N_12 
REMARK    6  A    between atoms: N_15  and  C_17 
REMARK    7  A    between atoms: C_17  and  C_18 
ROOT
HETATM    1  C   UNL     1      41.573 -14.590   4.632  1.00  0.00     0.034 A 
HETATM    2  C   UNL     1      40.270 -14.222   4.952  1.00  0.00     0.032 A 
HETATM    3  C   UNL     1      40.016 -13.076   5.724  1.00  0.00     0.031 A 
HETATM    4  C   UNL     1      41.051 -12.272   6.217  1.00  0.00     0.030 A 
HETATM    5  C   UNL     1      42.357 -12.657   5.876  1.00  0.00     0.031 A 
HETATM    6  C   UNL     1      42.618 -13.791   5.096  1.00  0.00     0.032 A 
ENDROOT
BRANCH   4   7
HETATM    7  N   UNL     1      40.838 -11.121   6.970  1.00  0.00    -0.378 N 
HETATM    8  C   UNL     1      41.965 -10.623   7.786  1.00  0.00     0.150 C 
HETATM    9  C   UNL     1      41.810 -11.062   9.259  1.00  0.00     0.255 C 
HETATM   10  N   UNL     1      40.447 -10.617   9.800  1.00  0.00    -0.064 N 
HETATM   11  H   UNL     1      40.413  -9.597   9.700  1.00  0.00     0.280 HD
HETATM   12  C   UNL     1      39.321 -11.197   8.947  1.00  0.00     0.255 C 
HETATM   13  C   UNL     1      39.498 -10.781   7.472  1.00  0.00     0.150 C 
BRANCH  10  14
HETATM   14  C   UNL     1      40.260 -10.924  11.264  1.00  0.00     0.273 C 
BRANCH  14  15
HETATM   15  C   UNL     1      41.225 -10.181  12.148  1.00  0.00    -0.033 A 
HETATM   16  C   UNL     1      41.604  -8.861  11.848  1.00  0.00     0.009 A 
HETATM   17  C   UNL     1      42.524  -8.190  12.654  1.00  0.00     0.001 A 
HETATM   18  C   UNL     1      43.069  -8.823  13.769  1.00  0.00     0.000 A 
HETATM   19  C   UNL     1      42.691 -10.126  14.085  1.00  0.00     0.001 A 
HETATM   20  C   UNL     1      41.773 -10.803  13.280  1.00  0.00     0.009 A 
ENDBRANCH  14  15
ENDBRANCH  10  14
ENDBRANCH   4   7
BRANCH   1  21
HETATM   21  N   UNL     1      41.912 -15.706   3.841  1.00  0.00    -0.325 N 
HETATM   22  C   UNL     1      41.812 -17.051   4.189  1.00  0.00     0.246 C 
HETATM   23  O   UNL     1      41.464 -17.477   5.285  1.00  0.00    -0.271 OA
HETATM   24  H   UNL     1      42.297 -15.500   2.927  1.00  0.00     0.169 HD
BRANCH  22  25
HETATM   25  C   UNL     1      42.201 -17.969   3.022  1.00  0.00     0.278 C 
BRANCH  25  26
HETATM   26  O   UNL     1      43.609 -18.170   2.934  1.00  0.00    -0.342 OA
BRANCH  26  27
HETATM   27  C   UNL     1      43.909 -19.505   2.999  1.00  0.00     0.075 A 
HETATM   28  C   UNL     1      44.546 -20.047   4.123  1.00  0.00    -0.029 A 
HETATM   29  C   UNL     1      44.918 -19.199   5.304  1.00  0.00     0.051 C 
HETATM   30  C   UNL     1      44.804 -21.424   4.142  1.00  0.00     0.009 A 
HETATM   31  C   UNL     1      44.470 -22.226   3.048  1.00  0.00     0.001 A 
HETATM   32  C   UNL     1      43.875 -21.661   1.920  1.00  0.00     0.003 A 
HETATM   33  C   UNL     1      43.598 -20.297   1.892  1.00  0.00     0.037 A 
ENDBRANCH  26  27
ENDBRANCH  25  26
ENDBRANCH  22  25
ENDBRANCH   1  21
TORSDOF 7
ENDMDL
MODEL 4
REMARK VINA RESULT:      -8.8      4.527     11.773
REMARK  7 active torsions:
REMARK  status: ('A' for Active; 'I' for Inactive)
REMARK    1  A    between atoms: C_3  and  O_4 
REMARK    2  A    between atoms: O_4  and  C_5 
REMARK    3  A    between atoms: C_5  and  C_6 
REMARK       I    between atoms: C_6  and  N_7 
REMARK    4  A    between atoms: N_7  and  C_8 
REMARK    5  A    between atoms: C_11  and  N_12 
REMARK    6  A    between atoms: N_15  and  C_17 
REMARK    7  A    between atoms: C_17  and  C_18 
ROOT
HETATM    1  C   UNL     1      43.079 -14.731   6.203  1.00  0.00     0.034 A 
HETATM    2  C   UNL     1      43.369 -16.026   5.783  1.00  0.00     0.032 A 
HETATM    3  C   UNL     1      42.711 -16.587   4.676  1.00  0.00     0.031 A 
HETATM    4  C   UNL     1      41.730 -15.885   3.965  1.00  0.00     0.030 A 
HETATM    5  C   UNL     1      41.458 -14.578   4.400  1.00  0.00     0.031 A 
HETATM    6  C   UNL     1      42.119 -14.007   5.495  1.00  0.00     0.032 A 
ENDROOT
BRANCH   4   7
HETATM    7  N   UNL     1      41.068 -16.401   2.854  1.00  0.00    -0.378 N 
HETATM    8  C   UNL     1      41.883 -17.110   1.846  1.00  0.00     0.150 C 
HETATM    9  C   UNL     1      42.202 -16.184   0.652  1.00  0.00     0.255 C 
HETATM   10  N   UNL     1      40.906 -15.612   0.068  1.00  0.00    -0.064 N 
HETATM   11  H   UNL     1      40.335 -16.415  -0.214  1.00  0.00     0.280 HD
HETATM   12  C   UNL     1      40.128 -14.853   1.142  1.00  0.00     0.255 C 
HETATM   13  C   UNL     1      39.839 -15.774   2.344  1.00  0.00     0.150 C 
BRANCH  10  14
HETATM   14  C   UNL     1      41.129 -14.773  -1.165  1.00  0.00     0.273 C 
BRANCH  14  15
HETATM   15  C   UNL     1      40.048 -14.947  -2.197  1.00  0.00    -0.033 A 
HETATM   16  C   UNL     1      38.891 -14.149  -2.168  1.00  0.00     0.009 A 
HETATM   17  C   UNL     1      37.878 -14.339  -3.108  1.00  0.00     0.001 A 
HETATM   18  C   UNL     1      38.009 -15.319  -4.089  1.00  0.00     0.000 A 
HETATM   19  C   UNL     1      39.157 -16.107  -4.137  1.00  0.00     0.001 A 
HETATM   20  C   UNL     1      40.172 -15.924  -3.196  1.00  0.00     0.009 A 
ENDBRANCH  14  15
ENDBRANCH  10  14
ENDBRANCH   4   7
BRANCH   1  21
HETATM   21  N   UNL     1      43.712 -14.085   7.283  1.00  0.00    -0.325 N 
HETATM   22  C   UNL     1      44.970 -13.488   7.292  1.00  0.00     0.246 C 
HETATM   23  O   UNL     1      45.762 -13.486   6.356  1.00  0.00    -0.271 OA
HETATM   24  H   UNL     1      43.202 -14.084   8.158  1.00  0.00     0.169 HD
BRANCH  22  25
HETATM   25  C   UNL     1      45.269 -12.817   8.640  1.00  0.00     0.278 C 
BRANCH  25  26
HETATM   26  O   UNL     1      45.040 -11.411   8.610  1.00  0.00    -0.342 OA
BRANCH  26  27
HETATM   27  C   UNL     1      44.204 -11.038   9.629  1.00  0.00     0.075 A 
HETATM   28  C   UNL     1      42.858 -10.738   9.383  1.00  0.00    -0.029 A 
HETATM   29  C   UNL     1      42.271 -10.819   8.004  1.00  0.00     0.051 C 
HETATM   30  C   UNL     1      42.045 -10.388  10.469  1.00  0.00     0.009 A 
HETATM   31  C   UNL     1      42.578 -10.301  11.758  1.00  0.00     0.001 A 
HETATM   32  C   UNL     1      43.930 -10.562  11.977  1.00  0.00     0.003 A 
HETATM   33  C   UNL     1      44.747 -10.927  10.910  1.00  0.00     0.037 A 
ENDBRANCH  26  27
ENDBRANCH  25  26
ENDBRANCH  22  25
ENDBRANCH   1  21
TORSDOF 7
ENDMDL
MODEL 5
REMARK VINA RESULT:      -8.7      3.001     11.585
REMARK  7 active torsions:
REMARK  status: ('A' for Active; 'I' for Inactive)
REMARK    1  A    between atoms: C_3  and  O_4 
REMARK    2  A    between atoms: O_4  and  C_5 
REMARK    3  A    between atoms: C_5  and  C_6 
REMARK       I    between atoms: C_6  and  N_7 
REMARK    4  A    between atoms: N_7  and  C_8 
REMARK    5  A    between atoms: C_11  and  N_12 
REMARK    6  A    between atoms: N_15  and  C_17 
REMARK    7  A    between atoms: C_17  and  C_18 
ROOT
HETATM    1  C   UNL     1      40.338 -10.969   7.817  1.00  0.00     0.034 A 
HETATM    2  C   UNL     1      39.355 -11.868   7.413  1.00  0.00     0.032 A 
HETATM    3  C   UNL     1      39.609 -12.800   6.394  1.00  0.00     0.031 A 
HETATM    4  C   UNL     1      40.842 -12.854   5.732  1.00  0.00     0.030 A 
HETATM    5  C   UNL     1      41.821 -11.945   6.160  1.00  0.00     0.031 A 
HETATM    6  C   UNL     1      41.579 -11.020   7.184  1.00  0.00     0.032 A 
ENDROOT
BRANCH   4   7
HETATM    7  N   UNL     1      41.136 -13.775   4.729  1.00  0.00    -0.378 N 
HETATM    8  C   UNL     1      40.428 -15.071   4.768  1.00  0.00     0.150 C 
HETATM    9  C   UNL     1      41.321 -16.164   5.396  1.00  0.00     0.255 C 
HETATM   10  N   UNL     1      42.659 -16.242   4.654  1.00  0.00    -0.064 N 
HETATM   11  H   UNL     1      42.436 -16.449   3.674  1.00  0.00     0.280 HD
HETATM   12  C   UNL     1      43.365 -14.888   4.685  1.00  0.00     0.255 C 
HETATM   13  C   UNL     1      42.457 -13.797   4.084  1.00  0.00     0.150 C 
BRANCH  10  14
HETATM   14  C   UNL     1      43.549 -17.354   5.148  1.00  0.00     0.273 C 
BRANCH  14  15
HETATM   15  C   UNL     1      43.724 -18.458   4.141  1.00  0.00    -0.033 A 
HETATM   16  C   UNL     1      43.087 -18.398   2.890  1.00  0.00     0.009 A 
HETATM   17  C   UNL     1      43.226 -19.441   1.975  1.00  0.00     0.001 A 
HETATM   18  C   UNL     1      44.007 -20.550   2.293  1.00  0.00     0.000 A 
HETATM   19  C   UNL     1      44.655 -20.616   3.525  1.00  0.00     0.001 A 
HETATM   20  C   UNL     1      44.515 -19.577   4.446  1.00  0.00     0.009 A 
ENDBRANCH  14  15
ENDBRANCH  10  14
ENDBRANCH   4   7
BRANCH   1  21
HETATM   21  N   UNL     1      40.174 -10.023   8.848  1.00  0.00    -0.325 N 
HETATM   22  C   UNL     1      40.225 -10.250  10.221  1.00  0.00     0.246 C 
HETATM   23  O   UNL     1      40.362 -11.345  10.754  1.00  0.00    -0.271 OA
HETATM   24  H   UNL     1      39.967  -9.076   8.551  1.00  0.00     0.169 HD
BRANCH  22  25
HETATM   25  C   UNL     1      40.080  -8.946  11.017  1.00  0.00     0.278 C 
BRANCH  25  26
HETATM   26  O   UNL     1      41.340  -8.386  11.377  1.00  0.00    -0.342 OA
BRANCH  26  27
HETATM   27  C   UNL     1      41.636  -8.667  12.684  1.00  0.00     0.075 A 
HETATM   28  C   UNL     1      42.746  -9.452  13.018  1.00  0.00    -0.029 A 
HETATM   29  C   UNL     1      43.662 -10.011  11.969  1.00  0.00     0.051 C 
HETATM   30  C   UNL     1      43.013  -9.684  14.374  1.00  0.00     0.009 A 
HETATM   31  C   UNL     1      42.166  -9.177  15.364  1.00  0.00     0.001 A 
HETATM   32  C   UNL     1      41.042  -8.432  15.009  1.00  0.00     0.003 A 
HETATM   33  C   UNL     1      40.772  -8.180  13.667  1.00  0.00     0.037 A 
ENDBRANCH  26  27
ENDBRANCH  25  26
ENDBRANCH  22  25
ENDBRANCH   1  21
TORSDOF 7
ENDMDL
MODEL 6
REMARK VINA RESULT:      -8.7      2.201      3.272
REMARK  7 active torsions:
REMARK  status: ('A' for Active; 'I' for Inactive)
REMARK    1  A    between atoms: C_3  and  O_4 
REMARK    2  A    between atoms: O_4  and  C_5 
REMARK    3  A    between atoms: C_5  and  C_6 
REMARK       I    between atoms: C_6  and  N_7 
REMARK    4  A    between atoms: N_7  and  C_8 
REMARK    5  A    between atoms: C_11  and  N_12 
REMARK    6  A    between atoms: N_15  and  C_17 
REMARK    7  A    between atoms: C_17  and  C_18 
ROOT
HETATM    1  C   UNL     1      41.174 -14.183   5.018  1.00  0.00     0.034 A 
HETATM    2  C   UNL     1      42.043 -13.124   5.265  1.00  0.00     0.032 A 
HETATM    3  C   UNL     1      41.645 -12.039   6.064  1.00  0.00     0.031 A 
HETATM    4  C   UNL     1      40.365 -11.964   6.624  1.00  0.00     0.030 A 
HETATM    5  C   UNL     1      39.507 -13.045   6.369  1.00  0.00     0.031 A 
HETATM    6  C   UNL     1      39.900 -14.137   5.584  1.00  0.00     0.032 A 
ENDROOT
BRANCH   4   7
HETATM    7  N   UNL     1      39.941 -10.913   7.433  1.00  0.00    -0.378 N 
HETATM    8  C   UNL     1      40.691  -9.644   7.348  1.00  0.00     0.150 C 
HETATM    9  C   UNL     1      41.700  -9.526   8.512  1.00  0.00     0.255 C 
HETATM   10  N   UNL     1      40.980  -9.698   9.853  1.00  0.00    -0.064 N 
HETATM   11  H   UNL     1      40.263  -8.966   9.895  1.00  0.00     0.280 HD
HETATM   12  C   UNL     1      40.260 -11.044   9.902  1.00  0.00     0.255 C 
HETATM   13  C   UNL     1      39.276 -11.169   8.721  1.00  0.00     0.150 C 
BRANCH  10  14
HETATM   14  C   UNL     1      41.883  -9.499  11.044  1.00  0.00     0.273 C 
BRANCH  14  15
HETATM   15  C   UNL     1      43.072 -10.421  11.040  1.00  0.00    -0.033 A 
HETATM   16  C   UNL     1      44.225 -10.104  10.302  1.00  0.00     0.009 A 
HETATM   17  C   UNL     1      45.311 -10.980  10.277  1.00  0.00     0.001 A 
HETATM   18  C   UNL     1      45.262 -12.175  10.991  1.00  0.00     0.000 A 
HETATM   19  C   UNL     1      44.130 -12.494  11.739  1.00  0.00     0.001 A 
HETATM   20  C   UNL     1      43.039 -11.623  11.764  1.00  0.00     0.009 A 
ENDBRANCH  14  15
ENDBRANCH  10  14
ENDBRANCH   4   7
BRANCH   1  21
HETATM   21  N   UNL     1      41.504 -15.320   4.254  1.00  0.00    -0.325 N 
HETATM   22  C   UNL     1      41.930 -16.559   4.722  1.00  0.00     0.246 C 
HETATM   23  O   UNL     1      42.148 -16.838   5.896  1.00  0.00    -0.271 OA
HETATM   24  H   UNL     1      41.450 -15.207   3.248  1.00  0.00     0.169 HD
BRANCH  22  25
HETATM   25  C   UNL     1      42.109 -17.567   3.577  1.00  0.00     0.278 C 
BRANCH  25  26
HETATM   26  O   UNL     1      43.476 -17.737   3.212  1.00  0.00    -0.342 OA
BRANCH  26  27
HETATM   27  C   UNL     1      43.785 -19.067   3.111  1.00  0.00     0.075 A 
HETATM   28  C   UNL     1      44.486 -19.723   4.131  1.00  0.00    -0.029 A 
HETATM   29  C   UNL     1      44.921 -19.007   5.376  1.00  0.00     0.051 C 
HETATM   30  C   UNL     1      44.752 -21.091   3.983  1.00  0.00     0.009 A 
HETATM   31  C   UNL     1      44.360 -21.771   2.826  1.00  0.00     0.001 A 
HETATM   32  C   UNL     1      43.700 -21.091   1.803  1.00  0.00     0.003 A 
HETATM   33  C   UNL     1      43.416 -19.735   1.942  1.00  0.00     0.037 A 
ENDBRANCH  26  27
ENDBRANCH  25  26
ENDBRANCH  22  25
ENDBRANCH   1  21
TORSDOF 7
ENDMDL
MODEL 7
REMARK VINA RESULT:      -8.7      2.774     11.351
REMARK  7 active torsions:
REMARK  status: ('A' for Active; 'I' for Inactive)
REMARK    1  A    between atoms: C_3  and  O_4 
REMARK    2  A    between atoms: O_4  and  C_5 
REMARK    3  A    between atoms: C_5  and  C_6 
REMARK       I    between atoms: C_6  and  N_7 
REMARK    4  A    between atoms: N_7  and  C_8 
REMARK    5  A    between atoms: C_11  and  N_12 
REMARK    6  A    between atoms: N_15  and  C_17 
REMARK    7  A    between atoms: C_17  and  C_18 
ROOT
HETATM    1  C   UNL     1      41.443 -12.838   6.146  1.00  0.00     0.034 A 
HETATM    2  C   UNL     1      40.169 -13.339   5.898  1.00  0.00     0.032 A 
HETATM    3  C   UNL     1      39.979 -14.407   5.004  1.00  0.00     0.031 A 
HETATM    4  C   UNL     1      41.047 -14.994   4.317  1.00  0.00     0.030 A 
HETATM    5  C   UNL     1      42.324 -14.479   4.588  1.00  0.00     0.031 A 
HETATM    6  C   UNL     1      42.523 -13.423   5.486  1.00  0.00     0.032 A 
ENDROOT
BRANCH   4   7
HETATM    7  N   UNL     1      40.899 -16.064   3.437  1.00  0.00    -0.378 N 
HETATM    8  C   UNL     1      41.004 -17.426   3.999  1.00  0.00     0.150 C 
HETATM    9  C   UNL     1      42.411 -18.013   3.751  1.00  0.00     0.255 C 
HETATM   10  N   UNL     1      42.747 -17.962   2.257  1.00  0.00    -0.064 N 
HETATM   11  H   UNL     1      42.019 -18.502   1.777  1.00  0.00     0.280 HD
HETATM   12  C   UNL     1      42.666 -16.527   1.742  1.00  0.00     0.255 C 
HETATM   13  C   UNL     1      41.270 -15.936   2.019  1.00  0.00     0.150 C 
BRANCH  10  14
HETATM   14  C   UNL     1      44.068 -18.608   1.922  1.00  0.00     0.273 C 
BRANCH  14  15
HETATM   15  C   UNL     1      44.317 -19.874   2.698  1.00  0.00    -0.033 A 
HETATM   16  C   UNL     1      44.121 -21.132   2.102  1.00  0.00     0.009 A 
HETATM   17  C   UNL     1      44.321 -22.300   2.838  1.00  0.00     0.001 A 
HETATM   18  C   UNL     1      44.725 -22.228   4.169  1.00  0.00     0.000 A 
HETATM   19  C   UNL     1      44.937 -20.987   4.766  1.00  0.00     0.001 A 
HETATM   20  C   UNL     1      44.734 -19.814   4.036  1.00  0.00     0.009 A 
ENDBRANCH  14  15
ENDBRANCH  10  14
ENDBRANCH   4   7
BRANCH   1  21
HETATM   21  N   UNL     1      41.723 -11.790   7.046  1.00  0.00    -0.325 N 
HETATM   22  C   UNL     1      41.274 -10.474   6.980  1.00  0.00     0.246 C 
HETATM   23  O   UNL     1      40.599 -10.000   6.072  1.00  0.00    -0.271 OA
HETATM   24  H   UNL     1      42.346 -12.020   7.812  1.00  0.00     0.169 HD
BRANCH  22  25
HETATM   25  C   UNL     1      41.730  -9.657   8.196  1.00  0.00     0.278 C 
BRANCH  25  26
HETATM   26  O   UNL     1      42.862 -10.231   8.843  1.00  0.00    -0.342 OA
BRANCH  26  27
HETATM   27  C   UNL     1      42.807 -10.009  10.193  1.00  0.00     0.075 A 
HETATM   28  C   UNL     1      43.883 -10.349  11.024  1.00  0.00    -0.029 A 
HETATM   29  C   UNL     1      45.140 -10.959  10.476  1.00  0.00     0.051 C 
HETATM   30  C   UNL     1      43.779 -10.075  12.394  1.00  0.00     0.009 A 
HETATM   31  C   UNL     1      42.613  -9.514  12.921  1.00  0.00     0.001 A 
HETATM   32  C   UNL     1      41.536  -9.221  12.085  1.00  0.00     0.003 A 
HETATM   33  C   UNL     1      41.630  -9.474  10.719  1.00  0.00     0.037 A 
ENDBRANCH  26  27
ENDBRANCH  25  26
ENDBRANCH  22  25
ENDBRANCH   1  21
TORSDOF 7
ENDMDL
MODEL 8
REMARK VINA RESULT:      -8.6      6.559     10.551
REMARK  7 active torsions:
REMARK  status: ('A' for Active; 'I' for Inactive)
REMARK    1  A    between atoms: C_3  and  O_4 
REMARK    2  A    between atoms: O_4  and  C_5 
REMARK    3  A    between atoms: C_5  and  C_6 
REMARK       I    between atoms: C_6  and  N_7 
REMARK    4  A    between atoms: N_7  and  C_8 
REMARK    5  A    between atoms: C_11  and  N_12 
REMARK    6  A    between atoms: N_15  and  C_17 
REMARK    7  A    between atoms: C_17  and  C_18 
ROOT
HETATM    1  C   UNL     1      41.437 -15.803   3.631  1.00  0.00     0.034 A 
HETATM    2  C   UNL     1      40.682 -16.193   2.528  1.00  0.00     0.032 A 
HETATM    3  C   UNL     1      39.800 -15.294   1.907  1.00  0.00     0.031 A 
HETATM    4  C   UNL     1      39.626 -13.986   2.375  1.00  0.00     0.030 A 
HETATM    5  C   UNL     1      40.402 -13.611   3.483  1.00  0.00     0.031 A 
HETATM    6  C   UNL     1      41.293 -14.497   4.100  1.00  0.00     0.032 A 
ENDROOT
BRANCH   4   7
HETATM    7  N   UNL     1      38.773 -13.062   1.776  1.00  0.00    -0.378 N 
HETATM    8  C   UNL     1      37.604 -13.591   1.045  1.00  0.00     0.150 C 
HETATM    9  C   UNL     1      37.880 -13.631  -0.474  1.00  0.00     0.255 C 
HETATM   10  N   UNL     1      38.309 -12.246  -0.968  1.00  0.00    -0.064 N 
HETATM   11  H   UNL     1      37.543 -11.604  -0.737  1.00  0.00     0.280 HD
HETATM   12  C   UNL     1      39.547 -11.770  -0.210  1.00  0.00     0.255 C 
HETATM   13  C   UNL     1      39.275 -11.761   1.307  1.00  0.00     0.150 C 
BRANCH  10  14
HETATM   14  C   UNL     1      38.503 -12.181  -2.462  1.00  0.00     0.273 C 
BRANCH  14  15
HETATM   15  C   UNL     1      38.728 -13.532  -3.085  1.00  0.00    -0.033 A 
HETATM   16  C   UNL     1      37.659 -14.248  -3.653  1.00  0.00     0.009 A 
HETATM   17  C   UNL     1      37.869 -15.514  -4.199  1.00  0.00     0.001 A 
HETATM   18  C   UNL     1      39.143 -16.077  -4.191  1.00  0.00     0.000 A 
HETATM   19  C   UNL     1      40.213 -15.372  -3.644  1.00  0.00     0.001 A 
HETATM   20  C   UNL     1      40.008 -14.105  -3.092  1.00  0.00     0.009 A 
ENDBRANCH  14  15
ENDBRANCH  10  14
ENDBRANCH   4   7
BRANCH   1  21
HETATM   21  N   UNL     1      42.363 -16.632   4.293  1.00  0.00    -0.325 N 
HETATM   22  C   UNL     1      42.090 -17.756   5.068  1.00  0.00     0.246 C 
HETATM   23  O   UNL     1      40.970 -18.169   5.350  1.00  0.00    -0.271 OA
HETATM   24  H   UNL     1      43.336 -16.359   4.216  1.00  0.00     0.169 HD
BRANCH  22  25
HETATM   25  C   UNL     1      43.377 -18.439   5.551  1.00  0.00     0.278 C 
BRANCH  25  26
HETATM   26  O   UNL     1      44.367 -18.517   4.530  1.00  0.00    -0.342 OA
BRANCH  26  27
HETATM   27  C   UNL     1      44.388 -19.768   3.975  1.00  0.00     0.075 A 
HETATM   28  C   UNL     1      44.014 -19.971   2.640  1.00  0.00    -0.029 A 
HETATM   29  C   UNL     1      43.586 -18.833   1.759  1.00  0.00     0.051 C 
HETATM   30  C   UNL     1      44.081 -21.270   2.119  1.00  0.00     0.009 A 
HETATM   31  C   UNL     1      44.471 -22.341   2.928  1.00  0.00     0.001 A 
HETATM   32  C   UNL     1      44.798 -22.127   4.266  1.00  0.00     0.003 A 
HETATM   33  C   UNL     1      44.752 -20.839   4.793  1.00  0.00     0.037 A 
ENDBRANCH  26  27
ENDBRANCH  25  26
ENDBRANCH  22  25
ENDBRANCH   1  21
TORSDOF 7
ENDMDL
MODEL 9
REMARK VINA RESULT:      -8.5      6.165     10.146
REMARK  7 active torsions:
REMARK  status: ('A' for Active; 'I' for Inactive)
REMARK    1  A    between atoms: C_3  and  O_4 
REMARK    2  A    between atoms: O_4  and  C_5 
REMARK    3  A    between atoms: C_5  and  C_6 
REMARK       I    between atoms: C_6  and  N_7 
REMARK    4  A    between atoms: N_7  and  C_8 
REMARK    5  A    between atoms: C_11  and  N_12 
REMARK    6  A    between atoms: N_15  and  C_17 
REMARK    7  A    between atoms: C_17  and  C_18 
ROOT
HETATM    1  C   UNL     1      39.808 -14.278   2.175  1.00  0.00     0.034 A 
HETATM    2  C   UNL     1      39.727 -13.763   3.466  1.00  0.00     0.032 A 
HETATM    3  C   UNL     1      40.223 -14.490   4.561  1.00  0.00     0.031 A 
HETATM    4  C   UNL     1      40.795 -15.758   4.409  1.00  0.00     0.030 A 
HETATM    5  C   UNL     1      40.874 -16.255   3.099  1.00  0.00     0.031 A 
HETATM    6  C   UNL     1      40.393 -15.532   2.000  1.00  0.00     0.032 A 
ENDROOT
BRANCH   4   7
HETATM    7  N   UNL     1      41.312 -16.500   5.468  1.00  0.00    -0.378 N 
HETATM    8  C   UNL     1      42.458 -15.927   6.204  1.00  0.00     0.150 C 
HETATM    9  C   UNL     1      43.786 -16.552   5.722  1.00  0.00     0.255 C 
HETATM   10  N   UNL     1      43.718 -18.079   5.828  1.00  0.00    -0.064 N 
HETATM   11  H   UNL     1      43.532 -18.294   6.813  1.00  0.00     0.280 HD
HETATM   12  C   UNL     1      42.544 -18.618   5.013  1.00  0.00     0.255 C 
HETATM   13  C   UNL     1      41.226 -17.968   5.479  1.00  0.00     0.150 C 
BRANCH  10  14
HETATM   14  C   UNL     1      45.015 -18.758   5.465  1.00  0.00     0.273 C 
BRANCH  14  15
HETATM   15  C   UNL     1      44.819 -19.979   4.608  1.00  0.00    -0.033 A 
HETATM   16  C   UNL     1      44.588 -19.857   3.227  1.00  0.00     0.009 A 
HETATM   17  C   UNL     1      44.375 -20.992   2.444  1.00  0.00     0.001 A 
HETATM   18  C   UNL     1      44.397 -22.257   3.026  1.00  0.00     0.000 A 
HETATM   19  C   UNL     1      44.638 -22.392   4.392  1.00  0.00     0.001 A 
HETATM   20  C   UNL     1      44.849 -21.259   5.181  1.00  0.00     0.009 A 
ENDBRANCH  14  15
ENDBRANCH  10  14
ENDBRANCH   4   7
BRANCH   1  21
HETATM   21  N   UNL     1      39.361 -13.604   1.021  1.00  0.00    -0.325 N 
HETATM   22  C   UNL     1      38.100 -13.673   0.436  1.00  0.00     0.246 C 
HETATM   23  O   UNL     1      37.182 -14.396   0.809  1.00  0.00    -0.271 OA
HETATM   24  H   UNL     1      40.049 -13.026   0.552  1.00  0.00     0.169 HD
BRANCH  22  25
HETATM   25  C   UNL     1      37.979 -12.724  -0.765  1.00  0.00     0.278 C 
BRANCH  25  26
HETATM   26  O   UNL     1      39.104 -12.801  -1.634  1.00  0.00    -0.342 OA
BRANCH  26  27
HETATM   27  C   UNL     1      39.008 -13.897  -2.449  1.00  0.00     0.075 A 
HETATM   28  C   UNL     1      40.067 -14.808  -2.560  1.00  0.00    -0.029 A 
HETATM   29  C   UNL     1      41.343 -14.632  -1.791  1.00  0.00     0.051 C 
HETATM   30  C   UNL     1      39.900 -15.925  -3.390  1.00  0.00     0.009 A 
HETATM   31  C   UNL     1      38.721 -16.100  -4.120  1.00  0.00     0.001 A 
HETATM   32  C   UNL     1      37.694 -15.160  -4.029  1.00  0.00     0.003 A 
HETATM   33  C   UNL     1      37.839 -14.054  -3.196  1.00  0.00     0.037 A 
ENDBRANCH  26  27
ENDBRANCH  25  26
ENDBRANCH  22  25
ENDBRANCH   1  21
TORSDOF 7
ENDMDL
MODEL 10
REMARK VINA RESULT:      -8.4      3.374     11.161
REMARK  7 active torsions:
REMARK  status: ('A' for Active; 'I' for Inactive)
REMARK    1  A    between atoms: C_3  and  O_4 
REMARK    2  A    between atoms: O_4  and  C_5 
REMARK    3  A    between atoms: C_5  and  C_6 
REMARK       I    between atoms: C_6  and  N_7 
REMARK    4  A    between atoms: N_7  and  C_8 
REMARK    5  A    between atoms: C_11  and  N_12 
REMARK    6  A    between atoms: N_15  and  C_17 
REMARK    7  A    between atoms: C_17  and  C_18 
ROOT
HETATM    1  C   UNL     1      40.649 -11.946   6.565  1.00  0.00     0.034 A 
HETATM    2  C   UNL     1      39.980 -13.110   6.195  1.00  0.00     0.032 A 
HETATM    3  C   UNL     1      39.971 -13.539   4.858  1.00  0.00     0.031 A 
HETATM    4  C   UNL     1      40.610 -12.815   3.844  1.00  0.00     0.030 A 
HETATM    5  C   UNL     1      41.285 -11.650   4.240  1.00  0.00     0.031 A 
HETATM    6  C   UNL     1      41.309 -11.221   5.573  1.00  0.00     0.032 A 
ENDROOT
BRANCH   4   7
HETATM    7  N   UNL     1      40.636 -13.218   2.512  1.00  0.00    -0.378 N 
HETATM    8  C   UNL     1      39.436 -13.897   1.982  1.00  0.00     0.150 C 
HETATM    9  C   UNL     1      39.634 -15.429   1.971  1.00  0.00     0.255 C 
HETATM   10  N   UNL     1      40.906 -15.790   1.198  1.00  0.00    -0.064 N 
HETATM   11  H   UNL     1      40.788 -15.414   0.251  1.00  0.00     0.280 HD
HETATM   12  C   UNL     1      42.119 -15.097   1.816  1.00  0.00     0.255 C 
HETATM   13  C   UNL     1      41.903 -13.571   1.852  1.00  0.00     0.150 C 
BRANCH  10  14
HETATM   14  C   UNL     1      41.116 -17.277   1.059  1.00  0.00     0.273 C 
BRANCH  14  15
HETATM   15  C   UNL     1      42.109 -17.825   2.048  1.00  0.00    -0.033 A 
HETATM   16  C   UNL     1      43.321 -18.388   1.613  1.00  0.00     0.009 A 
HETATM   17  C   UNL     1      44.221 -18.925   2.534  1.00  0.00     0.001 A 
HETATM   18  C   UNL     1      43.927 -18.900   3.896  1.00  0.00     0.000 A 
HETATM   19  C   UNL     1      42.735 -18.332   4.341  1.00  0.00     0.001 A 
HETATM   20  C   UNL     1      41.828 -17.797   3.423  1.00  0.00     0.009 A 
ENDBRANCH  14  15
ENDBRANCH  10  14
ENDBRANCH   4   7
BRANCH   1  21
HETATM   21  N   UNL     1      40.730 -11.462   7.885  1.00  0.00    -0.325 N 
HETATM   22  C   UNL     1      39.762 -10.746   8.585  1.00  0.00     0.246 C 
HETATM   23  O   UNL     1      38.690 -10.366   8.126  1.00  0.00    -0.271 OA
HETATM   24  H   UNL     1      41.605 -11.632   8.366  1.00  0.00     0.169 HD
BRANCH  22  25
HETATM   25  C   UNL     1      40.195 -10.471  10.031  1.00  0.00     0.278 C 
BRANCH  25  26
HETATM   26  O   UNL     1      41.417 -11.122  10.366  1.00  0.00    -0.342 OA
BRANCH  26  27
HETATM   27  C   UNL     1      41.863 -10.707  11.592  1.00  0.00     0.075 A 
HETATM   28  C   UNL     1      43.196 -10.321  11.781  1.00  0.00    -0.029 A 
HETATM   29  C   UNL     1      44.189 -10.335  10.656  1.00  0.00     0.051 C 
HETATM   30  C   UNL     1      43.588  -9.880  13.053  1.00  0.00     0.009 A 
HETATM   31  C   UNL     1      42.678  -9.868  14.113  1.00  0.00     0.001 A 
HETATM   32  C   UNL     1      41.366 -10.296  13.916  1.00  0.00     0.003 A 
HETATM   33  C   UNL     1      40.958 -10.721  12.655  1.00  0.00     0.037 A 
ENDBRANCH  26  27
ENDBRANCH  25  26
ENDBRANCH  22  25
ENDBRANCH   1  21
TORSDOF 7
ENDMDL
