MODEL 1
REMARK VINA RESULT:      -7.6      0.000      0.000
REMARK  6 active torsions:
REMARK  status: ('A' for Active; 'I' for Inactive)
REMARK    1  A    between atoms: C_4  and  C_5 
REMARK    2  A    between atoms: C_5  and  N_6 
REMARK    3  A    between atoms: C_5  and  C_10 
REMARK    4  A    between atoms: C_10  and  N_11 
REMARK       I    between atoms: N_11  and  C_12 
REMARK       I    between atoms: C_12  and  N_13 
REMARK    5  A    between atoms: N_13  and  C_14 
REMARK    6  A    between atoms: C_17  and  N_18 
ROOT
HETATM    1  N   UNL     1      42.457 -13.943   3.038  1.00  0.00    -0.340 N 
HETATM    2  C   UNL     1      41.738 -14.272   1.939  1.00  0.00     0.320 C 
HETATM    3  N   UNL     1      42.010 -15.444   1.316  1.00  0.00    -0.309 N 
HETATM    4  O   UNL     1      40.921 -13.486   1.458  1.00  0.00    -0.247 OA
HETATM    5  H   UNL     1      43.321 -14.456   3.175  1.00  0.00     0.164 HD
HETATM    6  H   UNL     1      41.616 -15.483   0.382  1.00  0.00     0.170 HD
ENDROOT
BRANCH   1   7
HETATM    7  C   UNL     1      42.202 -12.780   3.893  1.00  0.00     0.164 C 
BRANCH   7   8
HETATM    8  C   UNL     1      41.510 -13.066   5.267  1.00  0.00     0.261 C 
BRANCH   8   9
HETATM    9  C   UNL     1      41.704 -14.490   5.685  1.00  0.00     0.085 A 
HETATM   10  O   UNL     1      42.990 -14.927   5.813  1.00  0.00    -0.318 OA
HETATM   11  C   UNL     1      42.935 -16.243   6.164  1.00  0.00     0.049 A 
HETATM   12  C   UNL     1      44.226 -16.944   6.335  1.00  0.00     0.076 C 
HETATM   13  C   UNL     1      41.623 -16.645   6.285  1.00  0.00     0.035 A 
HETATM   14  C   UNL     1      40.828 -15.516   5.977  1.00  0.00     0.037 A 
ENDBRANCH   8   9
BRANCH   8  15
HETATM   15  N   UNL     1      40.045 -12.623   5.285  1.00  0.00    -0.067 N 
HETATM   16  H   UNL     1      39.514 -13.490   5.062  1.00  0.00     0.280 HD
HETATM   17  C   UNL     1      39.500 -12.176   6.608  1.00  0.00     0.270 C 
HETATM   18  C   UNL     1      39.716 -11.648   4.199  1.00  0.00     0.270 C 
ENDBRANCH   8  15
ENDBRANCH   7   8
ENDBRANCH   1   7
BRANCH   3  19
HETATM   19  C   UNL     1      42.594 -16.644   1.768  1.00  0.00     0.036 A 
HETATM   20  C   UNL     1      43.865 -17.089   1.411  1.00  0.00     0.032 A 
HETATM   21  C   UNL     1      44.390 -18.273   1.956  1.00  0.00     0.032 A 
HETATM   22  C   UNL     1      43.658 -19.022   2.883  1.00  0.00     0.040 A 
HETATM   23  C   UNL     1      42.380 -18.572   3.240  1.00  0.00     0.032 A 
HETATM   24  C   UNL     1      41.862 -17.390   2.696  1.00  0.00     0.032 A 
BRANCH  22  25
HETATM   25  N   UNL     1      44.174 -20.225   3.461  1.00  0.00    -0.309 N 
HETATM   26  C   UNL     1      44.280 -21.508   2.921  1.00  0.00     0.106 A 
HETATM   27  C   UNL     1      44.032 -21.890   1.507  1.00  0.00     0.091 C 
HETATM   28  N   UNL     1      44.746 -22.365   3.811  1.00  0.00    -0.246 NA
HETATM   29  C   UNL     1      45.014 -21.643   4.932  1.00  0.00     0.136 A 
HETATM   30  C   UNL     1      44.697 -20.324   4.738  1.00  0.00     0.118 A 
ENDBRANCH  22  25
ENDBRANCH   3  19
TORSDOF 6
ENDMDL
MODEL 2
REMARK VINA RESULT:      -7.4      1.954      3.798
REMARK  6 active torsions:
REMARK  status: ('A' for Active; 'I' for Inactive)
REMARK    1  A    between atoms: C_4  and  C_5 
REMARK    2  A    between atoms: C_5  and  N_6 
REMARK    3  A    between atoms: C_5  and  C_10 
REMARK    4  A    between atoms: C_10  and  N_11 
REMARK       I    between atoms: N_11  and  C_12 
REMARK       I    between atoms: C_12  and  N_13 
REMARK    5  A    between atoms: N_13  and  C_14 
REMARK    6  A    between atoms: C_17  and  N_18 
ROOT
HETATM    1  N   UNL     1      42.953 -14.607   6.229  1.00  0.00    -0.340 N 
HETATM    2  C   UNL     1      43.965 -14.943   7.064  1.00  0.00     0.320 C 
HETATM    3  N   UNL     1      44.337 -16.244   7.136  1.00  0.00    -0.309 N 
HETATM    4  O   UNL     1      44.475 -14.107   7.811  1.00  0.00    -0.247 OA
HETATM    5  H   UNL     1      42.366 -15.369   5.911  1.00  0.00     0.164 HD
HETATM    6  H   UNL     1      44.907 -16.436   7.953  1.00  0.00     0.170 HD
ENDROOT
BRANCH   1   7
HETATM    7  C   UNL     1      42.520 -13.236   5.944  1.00  0.00     0.164 C 
BRANCH   7   8
HETATM    8  C   UNL     1      41.629 -13.039   4.673  1.00  0.00     0.261 C 
BRANCH   8   9
HETATM    9  C   UNL     1      41.905 -14.095   3.649  1.00  0.00     0.085 A 
HETATM   10  O   UNL     1      40.900 -14.980   3.387  1.00  0.00    -0.318 OA
HETATM   11  C   UNL     1      41.372 -15.863   2.463  1.00  0.00     0.049 A 
HETATM   12  C   UNL     1      40.455 -16.943   2.040  1.00  0.00     0.076 C 
HETATM   13  C   UNL     1      42.664 -15.536   2.113  1.00  0.00     0.035 A 
HETATM   14  C   UNL     1      43.009 -14.395   2.877  1.00  0.00     0.037 A 
ENDBRANCH   8   9
BRANCH   8  15
HETATM   15  N   UNL     1      41.716 -11.615   4.115  1.00  0.00    -0.067 N 
HETATM   16  H   UNL     1      42.719 -11.500   3.868  1.00  0.00     0.280 HD
HETATM   17  C   UNL     1      40.977 -11.354   2.838  1.00  0.00     0.270 C 
HETATM   18  C   UNL     1      41.422 -10.568   5.142  1.00  0.00     0.270 C 
ENDBRANCH   8  15
ENDBRANCH   7   8
ENDBRANCH   1   7
BRANCH   3  19
HETATM   19  C   UNL     1      44.209 -17.318   6.232  1.00  0.00     0.036 A 
HETATM   20  C   UNL     1      43.135 -17.498   5.363  1.00  0.00     0.032 A 
HETATM   21  C   UNL     1      43.119 -18.569   4.454  1.00  0.00     0.032 A 
HETATM   22  C   UNL     1      44.189 -19.468   4.387  1.00  0.00     0.040 A 
HETATM   23  C   UNL     1      45.267 -19.285   5.262  1.00  0.00     0.032 A 
HETATM   24  C   UNL     1      45.280 -18.214   6.165  1.00  0.00     0.032 A 
BRANCH  22  25
HETATM   25  N   UNL     1      44.202 -20.561   3.463  1.00  0.00    -0.309 N 
HETATM   26  C   UNL     1      44.585 -21.891   3.649  1.00  0.00     0.106 A 
HETATM   27  C   UNL     1      44.914 -22.538   4.945  1.00  0.00     0.091 C 
HETATM   28  N   UNL     1      44.521 -22.570   2.518  1.00  0.00    -0.246 NA
HETATM   29  C   UNL     1      44.031 -21.711   1.585  1.00  0.00     0.136 A 
HETATM   30  C   UNL     1      43.803 -20.479   2.141  1.00  0.00     0.118 A 
ENDBRANCH  22  25
ENDBRANCH   3  19
TORSDOF 6
ENDMDL
MODEL 3
REMARK VINA RESULT:      -7.2      2.555      3.922
REMARK  6 active torsions:
REMARK  status: ('A' for Active; 'I' for Inactive)
REMARK    1  A    between atoms: C_4  and  C_5 
REMARK    2  A    between atoms: C_5  and  N_6 
REMARK    3  A    between atoms: C_5  and  C_10 
REMARK    4  A    between atoms: C_10  and  N_11 
REMARK       I    between atoms: N_11  and  C_12 
REMARK       I    between atoms: C_12  and  N_13 
REMARK    5  A    between atoms: N_13  and  C_14 
REMARK    6  A    between atoms: C_17  and  N_18 
ROOT
HETATM    1  N   UNL     1      41.971 -14.266  -0.699  1.00  0.00    -0.340 N 
HETATM    2  C   UNL     1      41.034 -15.211  -0.952  1.00  0.00     0.320 C 
HETATM    3  N   UNL     1      41.183 -16.434  -0.389  1.00  0.00    -0.309 N 
HETATM    4  O   UNL     1      40.119 -14.998  -1.748  1.00  0.00    -0.247 OA
HETATM    5  H   UNL     1      42.852 -14.602  -0.326  1.00  0.00     0.164 HD
HETATM    6  H   UNL     1      40.594 -17.134  -0.830  1.00  0.00     0.170 HD
ENDROOT
BRANCH   1   7
HETATM    7  C   UNL     1      41.890 -12.867  -1.126  1.00  0.00     0.164 C 
BRANCH   7   8
HETATM    8  C   UNL     1      41.620 -11.812  -0.002  1.00  0.00     0.261 C 
BRANCH   8   9
HETATM    9  C   UNL     1      41.604 -12.453   1.350  1.00  0.00     0.085 A 
HETATM   10  O   UNL     1      42.804 -12.858   1.858  1.00  0.00    -0.318 OA
HETATM   11  C   UNL     1      42.556 -13.438   3.066  1.00  0.00     0.049 A 
HETATM   12  C   UNL     1      43.719 -13.980   3.799  1.00  0.00     0.076 C 
HETATM   13  C   UNL     1      41.208 -13.386   3.346  1.00  0.00     0.035 A 
HETATM   14  C   UNL     1      40.592 -12.751   2.241  1.00  0.00     0.037 A 
ENDBRANCH   8   9
BRANCH   8  15
HETATM   15  N   UNL     1      40.378 -10.963  -0.286  1.00  0.00    -0.067 N 
HETATM   16  H   UNL     1      39.890 -10.913   0.632  1.00  0.00     0.280 HD
HETATM   17  C   UNL     1      40.621  -9.533  -0.664  1.00  0.00     0.270 C 
HETATM   18  C   UNL     1      39.421 -11.624  -1.226  1.00  0.00     0.270 C 
ENDBRANCH   8  15
ENDBRANCH   7   8
ENDBRANCH   1   7
BRANCH   3  19
HETATM   19  C   UNL     1      41.870 -16.872   0.760  1.00  0.00     0.036 A 
HETATM   20  C   UNL     1      43.230 -17.171   0.803  1.00  0.00     0.032 A 
HETATM   21  C   UNL     1      43.844 -17.547   2.010  1.00  0.00     0.032 A 
HETATM   22  C   UNL     1      43.110 -17.610   3.199  1.00  0.00     0.040 A 
HETATM   23  C   UNL     1      41.743 -17.308   3.153  1.00  0.00     0.032 A 
HETATM   24  C   UNL     1      41.136 -16.932   1.948  1.00  0.00     0.032 A 
BRANCH  22  25
HETATM   25  N   UNL     1      43.714 -17.978   4.443  1.00  0.00    -0.309 N 
HETATM   26  C   UNL     1      44.347 -19.165   4.817  1.00  0.00     0.106 A 
HETATM   27  C   UNL     1      44.704 -20.293   3.919  1.00  0.00     0.091 C 
HETATM   28  N   UNL     1      44.706 -19.136   6.088  1.00  0.00    -0.246 NA
HETATM   29  C   UNL     1      44.371 -17.902   6.550  1.00  0.00     0.136 A 
HETATM   30  C   UNL     1      43.784 -17.162   5.557  1.00  0.00     0.118 A 
ENDBRANCH  22  25
ENDBRANCH   3  19
TORSDOF 6
ENDMDL
MODEL 4
REMARK VINA RESULT:      -7.2      1.847      4.067
REMARK  6 active torsions:
REMARK  status: ('A' for Active; 'I' for Inactive)
REMARK    1  A    between atoms: C_4  and  C_5 
REMARK    2  A    between atoms: C_5  and  N_6 
REMARK    3  A    between atoms: C_5  and  C_10 
REMARK    4  A    between atoms: C_10  and  N_11 
REMARK       I    between atoms: N_11  and  C_12 
REMARK       I    between atoms: C_12  and  N_13 
REMARK    5  A    between atoms: N_13  and  C_14 
REMARK    6  A    between atoms: C_17  and  N_18 
ROOT
HETATM    1  N   UNL     1      41.601 -13.906   4.112  1.00  0.00    -0.340 N 
HETATM    2  C   UNL     1      42.026 -13.615   5.364  1.00  0.00     0.320 C 
HETATM    3  N   UNL     1      42.300 -14.639   6.208  1.00  0.00    -0.309 N 
HETATM    4  O   UNL     1      42.074 -12.450   5.763  1.00  0.00    -0.247 OA
HETATM    5  H   UNL     1      41.264 -14.851   3.965  1.00  0.00     0.164 HD
HETATM    6  H   UNL     1      42.357 -14.336   7.174  1.00  0.00     0.170 HD
ENDROOT
BRANCH   1   7
HETATM    7  C   UNL     1      41.387 -12.922   3.047  1.00  0.00     0.164 C 
BRANCH   7   8
HETATM    8  C   UNL     1      41.179 -13.492   1.606  1.00  0.00     0.261 C 
BRANCH   8   9
HETATM    9  C   UNL     1      41.442 -14.965   1.562  1.00  0.00     0.085 A 
HETATM   10  O   UNL     1      42.729 -15.371   1.763  1.00  0.00    -0.318 OA
HETATM   11  C   UNL     1      42.746 -16.729   1.648  1.00  0.00     0.049 A 
HETATM   12  C   UNL     1      44.056 -17.396   1.804  1.00  0.00     0.076 C 
HETATM   13  C   UNL     1      41.475 -17.198   1.399  1.00  0.00     0.035 A 
HETATM   14  C   UNL     1      40.632 -16.062   1.344  1.00  0.00     0.037 A 
ENDBRANCH   8   9
BRANCH   8  15
HETATM   15  N   UNL     1      41.960 -12.706   0.549  1.00  0.00    -0.067 N 
HETATM   16  H   UNL     1      42.957 -12.876   0.791  1.00  0.00     0.280 HD
HETATM   17  C   UNL     1      41.827 -13.178  -0.868  1.00  0.00     0.270 C 
HETATM   18  C   UNL     1      41.757 -11.228   0.655  1.00  0.00     0.270 C 
ENDBRANCH   8  15
ENDBRANCH   7   8
ENDBRANCH   1   7
BRANCH   3  19
HETATM   19  C   UNL     1      42.659 -15.983   5.982  1.00  0.00     0.036 A 
HETATM   20  C   UNL     1      41.848 -16.924   5.350  1.00  0.00     0.032 A 
HETATM   21  C   UNL     1      42.312 -18.229   5.116  1.00  0.00     0.032 A 
HETATM   22  C   UNL     1      43.604 -18.609   5.494  1.00  0.00     0.040 A 
HETATM   23  C   UNL     1      44.417 -17.661   6.129  1.00  0.00     0.032 A 
HETATM   24  C   UNL     1      43.951 -16.360   6.358  1.00  0.00     0.032 A 
BRANCH  22  25
HETATM   25  N   UNL     1      44.104 -19.929   5.257  1.00  0.00    -0.309 N 
HETATM   26  C   UNL     1      44.167 -21.032   6.110  1.00  0.00     0.106 A 
HETATM   27  C   UNL     1      43.546 -21.141   7.455  1.00  0.00     0.091 C 
HETATM   28  N   UNL     1      44.774 -22.052   5.529  1.00  0.00    -0.246 NA
HETATM   29  C   UNL     1      45.061 -21.653   4.262  1.00  0.00     0.136 A 
HETATM   30  C   UNL     1      44.640 -20.365   4.058  1.00  0.00     0.118 A 
ENDBRANCH  22  25
ENDBRANCH   3  19
TORSDOF 6
ENDMDL
MODEL 5
REMARK VINA RESULT:      -7.2      1.401      2.008
REMARK  6 active torsions:
REMARK  status: ('A' for Active; 'I' for Inactive)
REMARK    1  A    between atoms: C_4  and  C_5 
REMARK    2  A    between atoms: C_5  and  N_6 
REMARK    3  A    between atoms: C_5  and  C_10 
REMARK    4  A    between atoms: C_10  and  N_11 
REMARK       I    between atoms: N_11  and  C_12 
REMARK       I    between atoms: C_12  and  N_13 
REMARK    5  A    between atoms: N_13  and  C_14 
REMARK    6  A    between atoms: C_17  and  N_18 
ROOT
HETATM    1  N   UNL     1      42.088 -14.018   1.204  1.00  0.00    -0.340 N 
HETATM    2  C   UNL     1      41.595 -14.642   0.108  1.00  0.00     0.320 C 
HETATM    3  N   UNL     1      41.942 -15.933  -0.111  1.00  0.00    -0.309 N 
HETATM    4  O   UNL     1      40.924 -14.028  -0.723  1.00  0.00    -0.247 OA
HETATM    5  H   UNL     1      42.885 -14.461   1.647  1.00  0.00     0.164 HD
HETATM    6  H   UNL     1      41.744 -16.229  -1.062  1.00  0.00     0.170 HD
ENDROOT
BRANCH   1   7
HETATM    7  C   UNL     1      41.709 -12.673   1.647  1.00  0.00     0.164 C 
BRANCH   7   8
HETATM    8  C   UNL     1      41.818 -12.391   3.181  1.00  0.00     0.261 C 
BRANCH   8   9
HETATM    9  C   UNL     1      42.337 -13.586   3.917  1.00  0.00     0.085 A 
HETATM   10  O   UNL     1      41.540 -14.693   3.940  1.00  0.00    -0.318 OA
HETATM   11  C   UNL     1      42.183 -15.638   4.683  1.00  0.00     0.049 A 
HETATM   12  C   UNL     1      41.487 -16.929   4.871  1.00  0.00     0.076 C 
HETATM   13  C   UNL     1      43.397 -15.152   5.116  1.00  0.00     0.035 A 
HETATM   14  C   UNL     1      43.499 -13.829   4.622  1.00  0.00     0.037 A 
ENDBRANCH   8   9
BRANCH   8  15
HETATM   15  N   UNL     1      40.515 -11.838   3.766  1.00  0.00    -0.067 N 
HETATM   16  H   UNL     1      40.514 -10.837   3.480  1.00  0.00     0.280 HD
HETATM   17  C   UNL     1      39.242 -12.395   3.205  1.00  0.00     0.270 C 
HETATM   18  C   UNL     1      40.501 -11.838   5.262  1.00  0.00     0.270 C 
ENDBRANCH   8  15
ENDBRANCH   7   8
ENDBRANCH   1   7
BRANCH   3  19
HETATM   19  C   UNL     1      42.374 -16.959   0.754  1.00  0.00     0.036 A 
HETATM   20  C   UNL     1      41.562 -17.986   1.231  1.00  0.00     0.032 A 
HETATM   21  C   UNL     1      42.094 -19.001   2.044  1.00  0.00     0.032 A 
HETATM   22  C   UNL     1      43.452 -19.015   2.379  1.00  0.00     0.040 A 
HETATM   23  C   UNL     1      44.265 -17.980   1.898  1.00  0.00     0.032 A 
HETATM   24  C   UNL     1      43.732 -16.972   1.084  1.00  0.00     0.032 A 
BRANCH  22  25
HETATM   25  N   UNL     1      44.020 -20.043   3.196  1.00  0.00    -0.309 N 
HETATM   26  C   UNL     1      44.289 -21.380   2.900  1.00  0.00     0.106 A 
HETATM   27  C   UNL     1      44.204 -22.019   1.561  1.00  0.00     0.091 C 
HETATM   28  N   UNL     1      44.748 -22.022   3.959  1.00  0.00    -0.246 NA
HETATM   29  C   UNL     1      44.848 -21.098   4.951  1.00  0.00     0.136 A 
HETATM   30  C   UNL     1      44.432 -19.870   4.505  1.00  0.00     0.118 A 
ENDBRANCH  22  25
ENDBRANCH   3  19
TORSDOF 6
ENDMDL
MODEL 6
REMARK VINA RESULT:      -7.2      3.248      5.426
REMARK  6 active torsions:
REMARK  status: ('A' for Active; 'I' for Inactive)
REMARK    1  A    between atoms: C_4  and  C_5 
REMARK    2  A    between atoms: C_5  and  N_6 
REMARK    3  A    between atoms: C_5  and  C_10 
REMARK    4  A    between atoms: C_10  and  N_11 
REMARK       I    between atoms: N_11  and  C_12 
REMARK       I    between atoms: C_12  and  N_13 
REMARK    5  A    between atoms: N_13  and  C_14 
REMARK    6  A    between atoms: C_17  and  N_18 
ROOT
HETATM    1  N   UNL     1      41.991 -15.031   0.928  1.00  0.00    -0.340 N 
HETATM    2  C   UNL     1      42.591 -14.445   1.992  1.00  0.00     0.320 C 
HETATM    3  N   UNL     1      42.985 -15.229   3.024  1.00  0.00    -0.309 N 
HETATM    4  O   UNL     1      42.692 -13.220   2.066  1.00  0.00    -0.247 OA
HETATM    5  H   UNL     1      41.638 -15.970   1.078  1.00  0.00     0.164 HD
HETATM    6  H   UNL     1      43.180 -14.692   3.862  1.00  0.00     0.170 HD
ENDROOT
BRANCH   1   7
HETATM    7  C   UNL     1      41.624 -14.344  -0.313  1.00  0.00     0.164 C 
BRANCH   7   8
HETATM    8  C   UNL     1      40.095 -14.110  -0.550  1.00  0.00     0.261 C 
BRANCH   8   9
HETATM    9  C   UNL     1      39.668 -14.630  -1.887  1.00  0.00     0.085 A 
HETATM   10  O   UNL     1      38.401 -14.326  -2.293  1.00  0.00    -0.318 OA
HETATM   11  C   UNL     1      38.213 -14.920  -3.505  1.00  0.00     0.049 A 
HETATM   12  C   UNL     1      36.887 -14.748  -4.136  1.00  0.00     0.076 C 
HETATM   13  C   UNL     1      39.358 -15.583  -3.888  1.00  0.00     0.035 A 
HETATM   14  C   UNL     1      40.298 -15.396  -2.846  1.00  0.00     0.037 A 
ENDBRANCH   8   9
BRANCH   8  15
HETATM   15  N   UNL     1      39.684 -12.655  -0.306  1.00  0.00    -0.067 N 
HETATM   16  H   UNL     1      38.836 -12.528  -0.896  1.00  0.00     0.280 HD
HETATM   17  C   UNL     1      39.234 -12.313   1.083  1.00  0.00     0.270 C 
HETATM   18  C   UNL     1      40.689 -11.671  -0.814  1.00  0.00     0.270 C 
ENDBRANCH   8  15
ENDBRANCH   7   8
ENDBRANCH   1   7
BRANCH   3  19
HETATM   19  C   UNL     1      43.311 -16.598   3.104  1.00  0.00     0.036 A 
HETATM   20  C   UNL     1      43.939 -17.323   2.092  1.00  0.00     0.032 A 
HETATM   21  C   UNL     1      44.278 -18.673   2.283  1.00  0.00     0.032 A 
HETATM   22  C   UNL     1      44.013 -19.315   3.497  1.00  0.00     0.040 A 
HETATM   23  C   UNL     1      43.382 -18.584   4.512  1.00  0.00     0.032 A 
HETATM   24  C   UNL     1      43.048 -17.237   4.319  1.00  0.00     0.032 A 
BRANCH  22  25
HETATM   25  N   UNL     1      44.359 -20.685   3.719  1.00  0.00    -0.309 N 
HETATM   26  C   UNL     1      44.285 -21.782   2.858  1.00  0.00     0.106 A 
HETATM   27  C   UNL     1      43.982 -21.740   1.405  1.00  0.00     0.091 C 
HETATM   28  N   UNL     1      44.631 -22.899   3.474  1.00  0.00    -0.246 NA
HETATM   29  C   UNL     1      44.999 -22.541   4.733  1.00  0.00     0.136 A 
HETATM   30  C   UNL     1      44.867 -21.187   4.904  1.00  0.00     0.118 A 
ENDBRANCH  22  25
ENDBRANCH   3  19
TORSDOF 6
ENDMDL
MODEL 7
REMARK VINA RESULT:      -7.0      4.072      5.424
REMARK  6 active torsions:
REMARK  status: ('A' for Active; 'I' for Inactive)
REMARK    1  A    between atoms: C_4  and  C_5 
REMARK    2  A    between atoms: C_5  and  N_6 
REMARK    3  A    between atoms: C_5  and  C_10 
REMARK    4  A    between atoms: C_10  and  N_11 
REMARK       I    between atoms: N_11  and  C_12 
REMARK       I    between atoms: C_12  and  N_13 
REMARK    5  A    between atoms: N_13  and  C_14 
REMARK    6  A    between atoms: C_17  and  N_18 
ROOT
HETATM    1  N   UNL     1      41.673 -11.393   7.814  1.00  0.00    -0.340 N 
HETATM    2  C   UNL     1      41.327 -11.303   6.508  1.00  0.00     0.320 C 
HETATM    3  N   UNL     1      41.824 -12.219   5.643  1.00  0.00    -0.309 N 
HETATM    4  O   UNL     1      40.652 -10.358   6.095  1.00  0.00    -0.247 OA
HETATM    5  H   UNL     1      42.481 -11.970   8.021  1.00  0.00     0.164 HD
HETATM    6  H   UNL     1      41.725 -11.928   4.676  1.00  0.00     0.170 HD
ENDROOT
BRANCH   1   7
HETATM    7  C   UNL     1      41.124 -10.562   8.889  1.00  0.00     0.164 C 
BRANCH   7   8
HETATM    8  C   UNL     1      42.162  -9.882   9.841  1.00  0.00     0.261 C 
BRANCH   8   9
HETATM    9  C   UNL     1      43.354 -10.760  10.058  1.00  0.00     0.085 A 
HETATM   10  O   UNL     1      44.184 -10.951   8.992  1.00  0.00    -0.318 OA
HETATM   11  C   UNL     1      45.171 -11.799   9.397  1.00  0.00     0.049 A 
HETATM   12  C   UNL     1      46.185 -12.175   8.389  1.00  0.00     0.076 C 
HETATM   13  C   UNL     1      44.993 -12.134  10.721  1.00  0.00     0.035 A 
HETATM   14  C   UNL     1      43.822 -11.464  11.150  1.00  0.00     0.037 A 
ENDBRANCH   8   9
BRANCH   8  15
HETATM   15  N   UNL     1      41.524  -9.392  11.144  1.00  0.00    -0.067 N 
HETATM   16  H   UNL     1      42.241  -9.595  11.870  1.00  0.00     0.280 HD
HETATM   17  C   UNL     1      41.281  -7.917  11.254  1.00  0.00     0.270 C 
HETATM   18  C   UNL     1      40.312 -10.178  11.532  1.00  0.00     0.270 C 
ENDBRANCH   8  15
ENDBRANCH   7   8
ENDBRANCH   1   7
BRANCH   3  19
HETATM   19  C   UNL     1      42.303 -13.532   5.824  1.00  0.00     0.036 A 
HETATM   20  C   UNL     1      43.607 -13.854   6.194  1.00  0.00     0.032 A 
HETATM   21  C   UNL     1      43.982 -15.191   6.408  1.00  0.00     0.032 A 
HETATM   22  C   UNL     1      43.051 -16.227   6.274  1.00  0.00     0.040 A 
HETATM   23  C   UNL     1      41.741 -15.900   5.902  1.00  0.00     0.032 A 
HETATM   24  C   UNL     1      41.371 -14.565   5.693  1.00  0.00     0.032 A 
BRANCH  22  25
HETATM   25  N   UNL     1      43.405 -17.596   6.498  1.00  0.00    -0.309 N 
HETATM   26  C   UNL     1      43.688 -18.612   5.582  1.00  0.00     0.106 A 
HETATM   27  C   UNL     1      43.862 -18.451   4.116  1.00  0.00     0.091 C 
HETATM   28  N   UNL     1      43.897 -19.763   6.195  1.00  0.00    -0.246 NA
HETATM   29  C   UNL     1      43.818 -19.506   7.527  1.00  0.00     0.136 A 
HETATM   30  C   UNL     1      43.542 -18.181   7.744  1.00  0.00     0.118 A 
ENDBRANCH  22  25
ENDBRANCH   3  19
TORSDOF 6
ENDMDL
MODEL 8
REMARK VINA RESULT:      -7.0      2.007      7.894
REMARK  6 active torsions:
REMARK  status: ('A' for Active; 'I' for Inactive)
REMARK    1  A    between atoms: C_4  and  C_5 
REMARK    2  A    between atoms: C_5  and  N_6 
REMARK    3  A    between atoms: C_5  and  C_10 
REMARK    4  A    between atoms: C_10  and  N_11 
REMARK       I    between atoms: N_11  and  C_12 
REMARK       I    between atoms: C_12  and  N_13 
REMARK    5  A    between atoms: N_13  and  C_14 
REMARK    6  A    between atoms: C_17  and  N_18 
ROOT
HETATM    1  N   UNL     1      44.186 -18.907   5.729  1.00  0.00    -0.340 N 
HETATM    2  C   UNL     1      43.681 -18.917   6.985  1.00  0.00     0.320 C 
HETATM    3  N   UNL     1      43.000 -17.828   7.416  1.00  0.00    -0.309 N 
HETATM    4  O   UNL     1      43.912 -19.851   7.754  1.00  0.00    -0.247 OA
HETATM    5  H   UNL     1      44.255 -17.999   5.284  1.00  0.00     0.164 HD
HETATM    6  H   UNL     1      42.888 -17.819   8.424  1.00  0.00     0.170 HD
ENDROOT
BRANCH   1   7
HETATM    7  C   UNL     1      44.833 -20.048   5.075  1.00  0.00     0.164 C 
BRANCH   7   8
HETATM    8  C   UNL     1      44.646 -20.158   3.526  1.00  0.00     0.261 C 
BRANCH   8   9
HETATM    9  C   UNL     1      43.754 -19.072   3.009  1.00  0.00     0.085 A 
HETATM   10  O   UNL     1      44.189 -17.788   3.164  1.00  0.00    -0.318 OA
HETATM   11  C   UNL     1      43.220 -16.972   2.661  1.00  0.00     0.049 A 
HETATM   12  C   UNL     1      43.463 -15.516   2.745  1.00  0.00     0.076 C 
HETATM   13  C   UNL     1      42.179 -17.725   2.164  1.00  0.00     0.035 A 
HETATM   14  C   UNL     1      42.522 -19.080   2.387  1.00  0.00     0.037 A 
ENDBRANCH   8   9
BRANCH   8  15
HETATM   15  N   UNL     1      44.211 -21.559   3.088  1.00  0.00    -0.067 N 
HETATM   16  H   UNL     1      43.173 -21.532   3.145  1.00  0.00     0.280 HD
HETATM   17  C   UNL     1      44.505 -21.936   1.667  1.00  0.00     0.270 C 
HETATM   18  C   UNL     1      44.647 -22.628   4.040  1.00  0.00     0.270 C 
ENDBRANCH   8  15
ENDBRANCH   7   8
ENDBRANCH   1   7
BRANCH   3  19
HETATM   19  C   UNL     1      42.306 -16.811   6.730  1.00  0.00     0.036 A 
HETATM   20  C   UNL     1      40.991 -16.914   6.280  1.00  0.00     0.032 A 
HETATM   21  C   UNL     1      40.360 -15.826   5.655  1.00  0.00     0.032 A 
HETATM   22  C   UNL     1      41.028 -14.609   5.487  1.00  0.00     0.040 A 
HETATM   23  C   UNL     1      42.350 -14.508   5.940  1.00  0.00     0.032 A 
HETATM   24  C   UNL     1      42.974 -15.594   6.566  1.00  0.00     0.032 A 
BRANCH  22  25
HETATM   25  N   UNL     1      40.403 -13.482   4.864  1.00  0.00    -0.309 N 
HETATM   26  C   UNL     1      39.650 -12.449   5.424  1.00  0.00     0.106 A 
HETATM   27  C   UNL     1      39.465 -12.180   6.873  1.00  0.00     0.091 C 
HETATM   28  N   UNL     1      39.183 -11.637   4.492  1.00  0.00    -0.246 NA
HETATM   29  C   UNL     1      39.678 -12.090   3.310  1.00  0.00     0.136 A 
HETATM   30  C   UNL     1      40.450 -13.205   3.509  1.00  0.00     0.118 A 
ENDBRANCH  22  25
ENDBRANCH   3  19
TORSDOF 6
ENDMDL
MODEL 9
REMARK VINA RESULT:      -6.9      2.143      7.696
REMARK  6 active torsions:
REMARK  status: ('A' for Active; 'I' for Inactive)
REMARK    1  A    between atoms: C_4  and  C_5 
REMARK    2  A    between atoms: C_5  and  N_6 
REMARK    3  A    between atoms: C_5  and  C_10 
REMARK    4  A    between atoms: C_10  and  N_11 
REMARK       I    between atoms: N_11  and  C_12 
REMARK       I    between atoms: C_12  and  N_13 
REMARK    5  A    between atoms: N_13  and  C_14 
REMARK    6  A    between atoms: C_17  and  N_18 
ROOT
HETATM    1  N   UNL     1      43.917 -17.394   5.469  1.00  0.00    -0.340 N 
HETATM    2  C   UNL     1      43.508 -16.942   6.678  1.00  0.00     0.320 C 
HETATM    3  N   UNL     1      42.839 -15.766   6.735  1.00  0.00    -0.309 N 
HETATM    4  O   UNL     1      43.817 -17.534   7.713  1.00  0.00    -0.247 OA
HETATM    5  H   UNL     1      43.933 -16.710   4.720  1.00  0.00     0.164 HD
HETATM    6  H   UNL     1      42.803 -15.389   7.677  1.00  0.00     0.170 HD
ENDROOT
BRANCH   1   7
HETATM    7  C   UNL     1      44.537 -18.700   5.225  1.00  0.00     0.164 C 
BRANCH   7   8
HETATM    8  C   UNL     1      44.568 -19.187   3.739  1.00  0.00     0.261 C 
BRANCH   8   9
HETATM    9  C   UNL     1      43.791 -18.267   2.850  1.00  0.00     0.085 A 
HETATM   10  O   UNL     1      42.450 -18.168   3.082  1.00  0.00    -0.318 OA
HETATM   11  C   UNL     1      41.942 -17.315   2.148  1.00  0.00     0.049 A 
HETATM   12  C   UNL     1      40.484 -17.072   2.188  1.00  0.00     0.076 C 
HETATM   13  C   UNL     1      42.952 -16.849   1.335  1.00  0.00     0.035 A 
HETATM   14  C   UNL     1      44.145 -17.461   1.787  1.00  0.00     0.037 A 
ENDBRANCH   8   9
BRANCH   8  15
HETATM   15  N   UNL     1      44.157 -20.656   3.598  1.00  0.00    -0.067 N 
HETATM   16  H   UNL     1      43.165 -20.673   3.911  1.00  0.00     0.280 HD
HETATM   17  C   UNL     1      44.126 -21.209   2.206  1.00  0.00     0.270 C 
HETATM   18  C   UNL     1      44.898 -21.560   4.531  1.00  0.00     0.270 C 
ENDBRANCH   8  15
ENDBRANCH   7   8
ENDBRANCH   1   7
BRANCH   3  19
HETATM   19  C   UNL     1      42.074 -15.063   5.783  1.00  0.00     0.036 A 
HETATM   20  C   UNL     1      42.604 -14.390   4.683  1.00  0.00     0.032 A 
HETATM   21  C   UNL     1      41.759 -13.763   3.751  1.00  0.00     0.032 A 
HETATM   22  C   UNL     1      40.369 -13.816   3.895  1.00  0.00     0.040 A 
HETATM   23  C   UNL     1      39.840 -14.492   5.002  1.00  0.00     0.032 A 
HETATM   24  C   UNL     1      40.685 -15.118   5.926  1.00  0.00     0.032 A 
BRANCH  22  25
HETATM   25  N   UNL     1      39.487 -13.195   2.954  1.00  0.00    -0.309 N 
HETATM   26  C   UNL     1      38.774 -11.998   3.045  1.00  0.00     0.106 A 
HETATM   27  C   UNL     1      38.911 -10.971   4.110  1.00  0.00     0.091 C 
HETATM   28  N   UNL     1      38.008 -11.815   1.985  1.00  0.00    -0.246 NA
HETATM   29  C   UNL     1      38.256 -12.860   1.151  1.00  0.00     0.136 A 
HETATM   30  C   UNL     1      39.177 -13.709   1.707  1.00  0.00     0.118 A 
ENDBRANCH  22  25
ENDBRANCH   3  19
TORSDOF 6
ENDMDL
MODEL 10
REMARK VINA RESULT:      -6.9      3.998      5.691
REMARK  6 active torsions:
REMARK  status: ('A' for Active; 'I' for Inactive)
REMARK    1  A    between atoms: C_4  and  C_5 
REMARK    2  A    between atoms: C_5  and  N_6 
REMARK    3  A    between atoms: C_5  and  C_10 
REMARK    4  A    between atoms: C_10  and  N_11 
REMARK       I    between atoms: N_11  and  C_12 
REMARK       I    between atoms: C_12  and  N_13 
REMARK    5  A    between atoms: N_13  and  C_14 
REMARK    6  A    between atoms: C_17  and  N_18 
ROOT
HETATM    1  N   UNL     1      40.900 -11.309   7.976  1.00  0.00    -0.340 N 
HETATM    2  C   UNL     1      40.079 -11.328   6.899  1.00  0.00     0.320 C 
HETATM    3  N   UNL     1      40.407 -12.121   5.851  1.00  0.00    -0.309 N 
HETATM    4  O   UNL     1      39.107 -10.574   6.829  1.00  0.00    -0.247 OA
HETATM    5  H   UNL     1      41.833 -11.678   7.831  1.00  0.00     0.164 HD
HETATM    6  H   UNL     1      39.892 -11.881   5.011  1.00  0.00     0.170 HD
ENDROOT
BRANCH   1   7
HETATM    7  C   UNL     1      40.622 -10.606   9.232  1.00  0.00     0.164 C 
BRANCH   7   8
HETATM    8  C   UNL     1      41.834  -9.882   9.905  1.00  0.00     0.261 C 
BRANCH   8   9
HETATM    9  C   UNL     1      42.980 -10.821  10.113  1.00  0.00     0.085 A 
HETATM   10  O   UNL     1      43.714 -11.155   9.012  1.00  0.00    -0.318 OA
HETATM   11  C   UNL     1      44.672 -12.035   9.418  1.00  0.00     0.049 A 
HETATM   12  C   UNL     1      45.581 -12.561   8.377  1.00  0.00     0.076 C 
HETATM   13  C   UNL     1      44.571 -12.250  10.775  1.00  0.00     0.035 A 
HETATM   14  C   UNL     1      43.481 -11.467  11.225  1.00  0.00     0.037 A 
ENDBRANCH   8   9
BRANCH   8  15
HETATM   15  N   UNL     1      41.430  -9.128  11.175  1.00  0.00    -0.067 N 
HETATM   16  H   UNL     1      42.182  -9.356  11.856  1.00  0.00     0.280 HD
HETATM   17  C   UNL     1      41.435  -7.631  11.092  1.00  0.00     0.270 C 
HETATM   18  C   UNL     1      40.160  -9.639  11.778  1.00  0.00     0.270 C 
ENDBRANCH   8  15
ENDBRANCH   7   8
ENDBRANCH   1   7
BRANCH   3  19
HETATM   19  C   UNL     1      41.199 -13.283   5.753  1.00  0.00     0.036 A 
HETATM   20  C   UNL     1      42.590 -13.288   5.665  1.00  0.00     0.032 A 
HETATM   21  C   UNL     1      43.301 -14.499   5.629  1.00  0.00     0.032 A 
HETATM   22  C   UNL     1      42.633 -15.726   5.699  1.00  0.00     0.040 A 
HETATM   23  C   UNL     1      41.235 -15.718   5.786  1.00  0.00     0.032 A 
HETATM   24  C   UNL     1      40.530 -14.508   5.826  1.00  0.00     0.032 A 
BRANCH  22  25
HETATM   25  N   UNL     1      43.335 -16.973   5.674  1.00  0.00    -0.309 N 
HETATM   26  C   UNL     1      43.812 -17.756   6.728  1.00  0.00     0.106 A 
HETATM   27  C   UNL     1      43.534 -17.551   8.172  1.00  0.00     0.091 C 
HETATM   28  N   UNL     1      44.478 -18.806   6.280  1.00  0.00    -0.246 NA
HETATM   29  C   UNL     1      44.393 -18.761   4.924  1.00  0.00     0.136 A 
HETATM   30  C   UNL     1      43.677 -17.662   4.525  1.00  0.00     0.118 A 
ENDBRANCH  22  25
ENDBRANCH   3  19
TORSDOF 6
ENDMDL
