MODEL 1
REMARK VINA RESULT:      -8.8      0.000      0.000
REMARK  2 active torsions:
REMARK  status: ('A' for Active; 'I' for Inactive)
REMARK    1  A    between atoms: C_15  and  C_16 
REMARK    2  A    between atoms: C_19  and  O_20 
ROOT
HETATM    1  C   UNL     1      43.982 -21.896   1.423  1.00  0.00     0.048 C 
HETATM    2  C   UNL     1      44.096 -20.944   2.578  1.00  0.00    -0.061 A 
HETATM    3  C   UNL     1      43.764 -19.586   2.414  1.00  0.00     0.021 A 
HETATM    4  C   UNL     1      43.866 -18.701   3.506  1.00  0.00    -0.000 A 
HETATM    5  C   UNL     1      44.298 -19.212   4.737  1.00  0.00     0.043 A 
HETATM    6  N   UNL     1      44.352 -18.162   5.625  1.00  0.00    -0.353 N 
HETATM    7  H   UNL     1      44.640 -18.222   6.592  1.00  0.00     0.166 HD
HETATM    8  C   UNL     1      43.907 -17.031   5.015  1.00  0.00     0.066 A 
HETATM    9  C   UNL     1      43.611 -17.313   3.696  1.00  0.00    -0.017 A 
HETATM   10  C   UNL     1      43.110 -16.252   2.755  1.00  0.00     0.043 C 
HETATM   11  C   UNL     1      43.281 -14.821   3.352  1.00  0.00     0.018 C 
HETATM   12  C   UNL     1      42.863 -14.776   4.838  1.00  0.00     0.065 C 
HETATM   13  C   UNL     1      43.761 -15.732   5.572  1.00  0.00     0.082 C 
HETATM   14  N   UNL     1      44.404 -15.285   6.598  1.00  0.00    -0.203 NA
HETATM   15  C   UNL     1      43.173 -13.501   5.630  1.00  0.00     0.121 C 
HETATM   16  N   UNL     1      44.005 -14.002   6.738  1.00  0.00    -0.207 NA
HETATM   17  C   UNL     1      44.598 -20.563   4.933  1.00  0.00     0.031 A 
HETATM   18  C   UNL     1      44.483 -21.419   3.836  1.00  0.00     0.009 A 
HETATM   19  H   UNL     1      44.748 -13.360   7.012  1.00  0.00     0.149 HD
ENDROOT
BRANCH  15  20
HETATM   20  C   UNL     1      41.978 -12.784   6.236  1.00  0.00    -0.038 A 
HETATM   21  C   UNL     1      42.139 -11.663   7.070  1.00  0.00     0.011 A 
HETATM   22  C   UNL     1      41.038 -10.920   7.499  1.00  0.00     0.037 A 
HETATM   23  C   UNL     1      39.761 -11.259   7.066  1.00  0.00     0.068 A 
HETATM   24  C   UNL     1      39.572 -12.384   6.266  1.00  0.00     0.037 A 
HETATM   25  C   UNL     1      40.676 -13.142   5.850  1.00  0.00     0.011 A 
BRANCH  23  26
HETATM   26  O   UNL     1      38.739 -10.452   7.482  1.00  0.00    -0.356 OA
HETATM   27  C   UNL     1      38.896 -10.024   8.835  1.00  0.00     0.210 C 
ENDBRANCH  23  26
ENDBRANCH  15  20
TORSDOF 2
ENDMDL
MODEL 2
REMARK VINA RESULT:      -8.8      3.458      8.614
REMARK  2 active torsions:
REMARK  status: ('A' for Active; 'I' for Inactive)
REMARK    1  A    between atoms: C_15  and  C_16 
REMARK    2  A    between atoms: C_19  and  O_20 
ROOT
HETATM    1  C   UNL     1      41.126  -9.814   7.251  1.00  0.00     0.048 C 
HETATM    2  C   UNL     1      40.763 -11.115   6.597  1.00  0.00    -0.061 A 
HETATM    3  C   UNL     1      41.713 -11.815   5.830  1.00  0.00     0.021 A 
HETATM    4  C   UNL     1      41.365 -13.041   5.227  1.00  0.00    -0.000 A 
HETATM    5  C   UNL     1      40.065 -13.528   5.416  1.00  0.00     0.043 A 
HETATM    6  N   UNL     1      39.958 -14.703   4.707  1.00  0.00    -0.353 N 
HETATM    7  H   UNL     1      39.129 -15.280   4.646  1.00  0.00     0.166 HD
HETATM    8  C   UNL     1      41.157 -15.001   4.141  1.00  0.00     0.066 A 
HETATM    9  C   UNL     1      42.055 -13.990   4.420  1.00  0.00    -0.017 A 
HETATM   10  C   UNL     1      43.469 -14.026   3.910  1.00  0.00     0.043 C 
HETATM   11  C   UNL     1      43.663 -15.124   2.819  1.00  0.00     0.018 C 
HETATM   12  C   UNL     1      42.965 -16.443   3.216  1.00  0.00     0.065 C 
HETATM   13  C   UNL     1      41.501 -16.136   3.358  1.00  0.00     0.082 C 
HETATM   14  N   UNL     1      40.667 -16.862   2.692  1.00  0.00    -0.203 NA
HETATM   15  C   UNL     1      42.875 -17.551   2.160  1.00  0.00     0.121 C 
HETATM   16  N   UNL     1      41.424 -17.782   2.056  1.00  0.00    -0.207 NA
HETATM   17  C   UNL     1      39.116 -12.870   6.202  1.00  0.00     0.031 A 
HETATM   18  C   UNL     1      39.489 -11.661   6.793  1.00  0.00     0.009 A 
HETATM   19  H   UNL     1      41.113 -17.997   1.109  1.00  0.00     0.149 HD
ENDROOT
BRANCH  15  20
HETATM   20  C   UNL     1      43.529 -18.874   2.522  1.00  0.00    -0.038 A 
HETATM   21  C   UNL     1      44.148 -19.070   3.770  1.00  0.00     0.011 A 
HETATM   22  C   UNL     1      44.612 -20.329   4.154  1.00  0.00     0.037 A 
HETATM   23  C   UNL     1      44.425 -21.422   3.317  1.00  0.00     0.068 A 
HETATM   24  C   UNL     1      43.844 -21.248   2.062  1.00  0.00     0.037 A 
HETATM   25  C   UNL     1      43.395 -19.981   1.668  1.00  0.00     0.011 A 
BRANCH  23  26
HETATM   26  O   UNL     1      44.855 -22.633   3.786  1.00  0.00    -0.356 OA
HETATM   27  C   UNL     1      45.173 -22.599   5.176  1.00  0.00     0.210 C 
ENDBRANCH  23  26
ENDBRANCH  15  20
TORSDOF 2
ENDMDL
MODEL 3
REMARK VINA RESULT:      -8.5      5.099      8.651
REMARK  2 active torsions:
REMARK  status: ('A' for Active; 'I' for Inactive)
REMARK    1  A    between atoms: C_15  and  C_16 
REMARK    2  A    between atoms: C_19  and  O_20 
ROOT
HETATM    1  C   UNL     1      42.336 -10.765  -4.633  1.00  0.00     0.048 C 
HETATM    2  C   UNL     1      42.316 -11.201  -3.197  1.00  0.00    -0.061 A 
HETATM    3  C   UNL     1      42.005 -12.532  -2.862  1.00  0.00     0.021 A 
HETATM    4  C   UNL     1      41.997 -12.933  -1.511  1.00  0.00    -0.000 A 
HETATM    5  C   UNL     1      42.305 -11.979  -0.533  1.00  0.00     0.043 A 
HETATM    6  N   UNL     1      42.195 -12.593   0.694  1.00  0.00    -0.353 N 
HETATM    7  H   UNL     1      42.349 -12.151   1.591  1.00  0.00     0.166 HD
HETATM    8  C   UNL     1      41.897 -13.907   0.516  1.00  0.00     0.066 A 
HETATM    9  C   UNL     1      41.746 -14.160  -0.833  1.00  0.00    -0.017 A 
HETATM   10  C   UNL     1      41.394 -15.529  -1.346  1.00  0.00     0.043 C 
HETATM   11  C   UNL     1      40.927 -16.475  -0.196  1.00  0.00     0.018 C 
HETATM   12  C   UNL     1      41.831 -16.340   1.048  1.00  0.00     0.065 C 
HETATM   13  C   UNL     1      41.730 -14.912   1.507  1.00  0.00     0.082 C 
HETATM   14  N   UNL     1      41.412 -14.698   2.740  1.00  0.00    -0.203 NA
HETATM   15  C   UNL     1      41.382 -17.037   2.338  1.00  0.00     0.121 C 
HETATM   16  N   UNL     1      41.305 -15.923   3.298  1.00  0.00    -0.207 NA
HETATM   17  C   UNL     1      42.653 -10.661  -0.843  1.00  0.00     0.031 A 
HETATM   18  C   UNL     1      42.658 -10.291  -2.189  1.00  0.00     0.009 A 
HETATM   19  H   UNL     1      40.539 -16.012   3.965  1.00  0.00     0.149 HD
ENDROOT
BRANCH  15  20
HETATM   20  C   UNL     1      42.339 -18.072   2.906  1.00  0.00    -0.038 A 
HETATM   21  C   UNL     1      43.030 -18.969   2.072  1.00  0.00     0.011 A 
HETATM   22  C   UNL     1      44.018 -19.813   2.583  1.00  0.00     0.037 A 
HETATM   23  C   UNL     1      44.364 -19.741   3.927  1.00  0.00     0.068 A 
HETATM   24  C   UNL     1      43.672 -18.883   4.780  1.00  0.00     0.037 A 
HETATM   25  C   UNL     1      42.667 -18.049   4.271  1.00  0.00     0.011 A 
BRANCH  23  26
HETATM   26  O   UNL     1      45.379 -20.558   4.342  1.00  0.00    -0.356 OA
HETATM   27  C   UNL     1      44.903 -21.731   4.999  1.00  0.00     0.210 C 
ENDBRANCH  23  26
ENDBRANCH  15  20
TORSDOF 2
ENDMDL
MODEL 4
REMARK VINA RESULT:      -8.4      3.961      4.924
REMARK  2 active torsions:
REMARK  status: ('A' for Active; 'I' for Inactive)
REMARK    1  A    between atoms: C_15  and  C_16 
REMARK    2  A    between atoms: C_19  and  O_20 
ROOT
HETATM    1  C   UNL     1      45.342 -22.907   5.116  1.00  0.00     0.048 C 
HETATM    2  C   UNL     1      44.721 -21.548   5.261  1.00  0.00    -0.061 A 
HETATM    3  C   UNL     1      44.638 -20.684   4.153  1.00  0.00     0.021 A 
HETATM    4  C   UNL     1      44.045 -19.413   4.297  1.00  0.00    -0.000 A 
HETATM    5  C   UNL     1      43.550 -19.050   5.556  1.00  0.00     0.043 A 
HETATM    6  N   UNL     1      43.061 -17.767   5.454  1.00  0.00    -0.353 N 
HETATM    7  H   UNL     1      42.648 -17.232   6.206  1.00  0.00     0.166 HD
HETATM    8  C   UNL     1      43.171 -17.343   4.167  1.00  0.00     0.066 A 
HETATM    9  C   UNL     1      43.791 -18.322   3.418  1.00  0.00    -0.017 A 
HETATM   10  C   UNL     1      44.072 -18.137   1.952  1.00  0.00     0.043 C 
HETATM   11  C   UNL     1      43.878 -16.653   1.509  1.00  0.00     0.018 C 
HETATM   12  C   UNL     1      42.597 -16.045   2.120  1.00  0.00     0.065 C 
HETATM   13  C   UNL     1      42.758 -16.101   3.614  1.00  0.00     0.082 C 
HETATM   14  N   UNL     1      42.599 -15.005   4.277  1.00  0.00    -0.203 NA
HETATM   15  C   UNL     1      42.375 -14.536   1.961  1.00  0.00     0.121 C 
HETATM   16  N   UNL     1      42.263 -14.076   3.356  1.00  0.00    -0.207 NA
HETATM   17  C   UNL     1      43.588 -19.905   6.661  1.00  0.00     0.031 A 
HETATM   18  C   UNL     1      44.175 -21.160   6.490  1.00  0.00     0.009 A 
HETATM   19  H   UNL     1      42.678 -13.159   3.517  1.00  0.00     0.149 HD
ENDROOT
BRANCH  15  20
HETATM   20  C   UNL     1      41.107 -14.120   1.234  1.00  0.00    -0.038 A 
HETATM   21  C   UNL     1      41.154 -13.467  -0.010  1.00  0.00     0.011 A 
HETATM   22  C   UNL     1      39.990 -13.224  -0.742  1.00  0.00     0.037 A 
HETATM   23  C   UNL     1      38.764 -13.672  -0.262  1.00  0.00     0.068 A 
HETATM   24  C   UNL     1      38.687 -14.292   0.982  1.00  0.00     0.037 A 
HETATM   25  C   UNL     1      39.853 -14.520   1.726  1.00  0.00     0.011 A 
BRANCH  23  26
HETATM   26  O   UNL     1      37.677 -13.448  -1.061  1.00  0.00    -0.356 OA
HETATM   27  C   UNL     1      37.924 -13.777  -2.427  1.00  0.00     0.210 C 
ENDBRANCH  23  26
ENDBRANCH  15  20
TORSDOF 2
ENDMDL
MODEL 5
REMARK VINA RESULT:      -8.3      2.351      2.984
REMARK  2 active torsions:
REMARK  status: ('A' for Active; 'I' for Inactive)
REMARK    1  A    between atoms: C_15  and  C_16 
REMARK    2  A    between atoms: C_19  and  O_20 
ROOT
HETATM    1  C   UNL     1      45.471 -21.952   4.794  1.00  0.00     0.048 C 
HETATM    2  C   UNL     1      44.673 -20.832   4.194  1.00  0.00    -0.061 A 
HETATM    3  C   UNL     1      43.936 -19.963   5.019  1.00  0.00     0.021 A 
HETATM    4  C   UNL     1      43.197 -18.908   4.447  1.00  0.00    -0.000 A 
HETATM    5  C   UNL     1      43.223 -18.759   3.054  1.00  0.00     0.043 A 
HETATM    6  N   UNL     1      42.405 -17.698   2.737  1.00  0.00    -0.353 N 
HETATM    7  H   UNL     1      42.217 -17.358   1.803  1.00  0.00     0.166 HD
HETATM    8  C   UNL     1      41.924 -17.140   3.879  1.00  0.00     0.066 A 
HETATM    9  C   UNL     1      42.373 -17.868   4.963  1.00  0.00    -0.017 A 
HETATM   10  C   UNL     1      41.992 -17.504   6.372  1.00  0.00     0.043 C 
HETATM   11  C   UNL     1      40.828 -16.464   6.406  1.00  0.00     0.018 C 
HETATM   12  C   UNL     1      41.041 -15.346   5.363  1.00  0.00     0.065 C 
HETATM   13  C   UNL     1      41.077 -16.008   4.015  1.00  0.00     0.082 C 
HETATM   14  N   UNL     1      40.276 -15.563   3.105  1.00  0.00    -0.203 NA
HETATM   15  C   UNL     1      39.886 -14.368   5.118  1.00  0.00     0.121 C 
HETATM   16  N   UNL     1      39.631 -14.523   3.676  1.00  0.00    -0.207 NA
HETATM   17  C   UNL     1      43.976 -19.586   2.217  1.00  0.00     0.031 A 
HETATM   18  C   UNL     1      44.704 -20.619   2.811  1.00  0.00     0.009 A 
HETATM   19  H   UNL     1      38.644 -14.456   3.427  1.00  0.00     0.149 HD
ENDROOT
BRANCH  15  20
HETATM   20  C   UNL     1      40.186 -12.901   5.380  1.00  0.00    -0.038 A 
HETATM   21  C   UNL     1      39.882 -12.298   6.613  1.00  0.00     0.011 A 
HETATM   22  C   UNL     1      40.296 -10.995   6.900  1.00  0.00     0.037 A 
HETATM   23  C   UNL     1      41.059 -10.291   5.976  1.00  0.00     0.068 A 
HETATM   24  C   UNL     1      41.346 -10.855   4.735  1.00  0.00     0.037 A 
HETATM   25  C   UNL     1      40.915 -12.155   4.439  1.00  0.00     0.011 A 
BRANCH  23  26
HETATM   26  O   UNL     1      41.475  -9.044   6.351  1.00  0.00    -0.356 OA
HETATM   27  C   UNL     1      41.346  -8.823   7.754  1.00  0.00     0.210 C 
ENDBRANCH  23  26
ENDBRANCH  15  20
TORSDOF 2
ENDMDL
MODEL 6
REMARK VINA RESULT:      -8.3      3.353      3.856
REMARK  2 active torsions:
REMARK  status: ('A' for Active; 'I' for Inactive)
REMARK    1  A    between atoms: C_15  and  C_16 
REMARK    2  A    between atoms: C_19  and  O_20 
ROOT
HETATM    1  C   UNL     1      43.991 -21.914   2.008  1.00  0.00     0.048 C 
HETATM    2  C   UNL     1      43.939 -20.486   2.467  1.00  0.00    -0.061 A 
HETATM    3  C   UNL     1      43.271 -19.516   1.697  1.00  0.00     0.021 A 
HETATM    4  C   UNL     1      43.220 -18.179   2.141  1.00  0.00    -0.000 A 
HETATM    5  C   UNL     1      43.844 -17.857   3.353  1.00  0.00     0.043 A 
HETATM    6  N   UNL     1      43.693 -16.504   3.550  1.00  0.00    -0.353 N 
HETATM    7  H   UNL     1      44.048 -15.979   4.338  1.00  0.00     0.166 HD
HETATM    8  C   UNL     1      42.942 -15.982   2.544  1.00  0.00     0.066 A 
HETATM    9  C   UNL     1      42.641 -16.979   1.637  1.00  0.00    -0.017 A 
HETATM   10  C   UNL     1      41.833 -16.704   0.399  1.00  0.00     0.043 C 
HETATM   11  C   UNL     1      41.681 -15.173   0.135  1.00  0.00     0.018 C 
HETATM   12  C   UNL     1      41.362 -14.406   1.437  1.00  0.00     0.065 C 
HETATM   13  C   UNL     1      42.515 -14.638   2.373  1.00  0.00     0.082 C 
HETATM   14  N   UNL     1      43.092 -13.602   2.884  1.00  0.00    -0.203 NA
HETATM   15  C   UNL     1      41.397 -12.874   1.391  1.00  0.00     0.121 C 
HETATM   16  N   UNL     1      42.396 -12.541   2.420  1.00  0.00    -0.207 NA
HETATM   17  C   UNL     1      44.482 -18.810   4.153  1.00  0.00     0.031 A 
HETATM   18  C   UNL     1      44.513 -20.128   3.692  1.00  0.00     0.009 A 
HETATM   19  H   UNL     1      42.973 -11.735   2.182  1.00  0.00     0.149 HD
ENDROOT
BRANCH  15  20
HETATM   20  C   UNL     1      40.102 -12.166   1.756  1.00  0.00    -0.038 A 
HETATM   21  C   UNL     1      40.097 -11.018   2.568  1.00  0.00     0.011 A 
HETATM   22  C   UNL     1      38.926 -10.287   2.776  1.00  0.00     0.037 A 
HETATM   23  C   UNL     1      37.750 -10.665   2.138  1.00  0.00     0.068 A 
HETATM   24  C   UNL     1      37.722 -11.817   1.355  1.00  0.00     0.037 A 
HETATM   25  C   UNL     1      38.893 -12.562   1.161  1.00  0.00     0.011 A 
BRANCH  23  26
HETATM   26  O   UNL     1      36.659  -9.868   2.344  1.00  0.00    -0.356 OA
HETATM   27  C   UNL     1      36.960  -8.724   3.143  1.00  0.00     0.210 C 
ENDBRANCH  23  26
ENDBRANCH  15  20
TORSDOF 2
ENDMDL
MODEL 7
REMARK VINA RESULT:      -8.0      4.510      6.056
REMARK  2 active torsions:
REMARK  status: ('A' for Active; 'I' for Inactive)
REMARK    1  A    between atoms: C_15  and  C_16 
REMARK    2  A    between atoms: C_19  and  O_20 
ROOT
HETATM    1  C   UNL     1      43.935 -19.990   7.333  1.00  0.00     0.048 C 
HETATM    2  C   UNL     1      43.796 -19.619   5.885  1.00  0.00    -0.061 A 
HETATM    3  C   UNL     1      43.053 -18.484   5.511  1.00  0.00     0.021 A 
HETATM    4  C   UNL     1      42.935 -18.139   4.149  1.00  0.00    -0.000 A 
HETATM    5  C   UNL     1      43.571 -18.950   3.201  1.00  0.00     0.043 A 
HETATM    6  N   UNL     1      43.281 -18.438   1.957  1.00  0.00    -0.353 N 
HETATM    7  H   UNL     1      43.595 -18.819   1.074  1.00  0.00     0.166 HD
HETATM    8  C   UNL     1      42.546 -17.303   2.096  1.00  0.00     0.066 A 
HETATM    9  C   UNL     1      42.291 -17.089   3.435  1.00  0.00    -0.017 A 
HETATM   10  C   UNL     1      41.479 -15.913   3.907  1.00  0.00     0.043 C 
HETATM   11  C   UNL     1      40.738 -15.211   2.727  1.00  0.00     0.018 C 
HETATM   12  C   UNL     1      41.658 -15.054   1.497  1.00  0.00     0.065 C 
HETATM   13  C   UNL     1      42.064 -16.439   1.076  1.00  0.00     0.082 C 
HETATM   14  N   UNL     1      41.863 -16.776  -0.154  1.00  0.00    -0.203 NA
HETATM   15  C   UNL     1      41.022 -14.583   0.184  1.00  0.00     0.121 C 
HETATM   16  N   UNL     1      41.352 -15.676  -0.746  1.00  0.00    -0.207 NA
HETATM   17  C   UNL     1      44.344 -20.061   3.551  1.00  0.00     0.031 A 
HETATM   18  C   UNL     1      44.450 -20.377   4.907  1.00  0.00     0.009 A 
HETATM   19  H   UNL     1      40.616 -15.870  -1.424  1.00  0.00     0.149 HD
ENDROOT
BRANCH  15  20
HETATM   20  C   UNL     1      41.577 -13.294  -0.401  1.00  0.00    -0.038 A 
HETATM   21  C   UNL     1      41.722 -12.135   0.382  1.00  0.00     0.011 A 
HETATM   22  C   UNL     1      42.370 -11.004  -0.119  1.00  0.00     0.037 A 
HETATM   23  C   UNL     1      42.923 -11.029  -1.394  1.00  0.00     0.068 A 
HETATM   24  C   UNL     1      42.764 -12.154  -2.200  1.00  0.00     0.037 A 
HETATM   25  C   UNL     1      42.098 -13.283  -1.706  1.00  0.00     0.011 A 
BRANCH  23  26
HETATM   26  O   UNL     1      43.591  -9.905  -1.793  1.00  0.00    -0.356 OA
HETATM   27  C   UNL     1      42.719  -8.793  -1.995  1.00  0.00     0.210 C 
ENDBRANCH  23  26
ENDBRANCH  15  20
TORSDOF 2
ENDMDL
MODEL 8
REMARK VINA RESULT:      -7.7      7.103      8.707
REMARK  2 active torsions:
REMARK  status: ('A' for Active; 'I' for Inactive)
REMARK    1  A    between atoms: C_15  and  C_16 
REMARK    2  A    between atoms: C_19  and  O_20 
ROOT
HETATM    1  C   UNL     1      41.381 -17.417   5.370  1.00  0.00     0.048 C 
HETATM    2  C   UNL     1      41.627 -17.257   3.898  1.00  0.00    -0.061 A 
HETATM    3  C   UNL     1      40.885 -16.324   3.151  1.00  0.00     0.021 A 
HETATM    4  C   UNL     1      41.129 -16.175   1.771  1.00  0.00    -0.000 A 
HETATM    5  C   UNL     1      42.118 -16.973   1.182  1.00  0.00     0.043 A 
HETATM    6  N   UNL     1      42.143 -16.676  -0.162  1.00  0.00    -0.353 N 
HETATM    7  H   UNL     1      42.751 -17.102  -0.849  1.00  0.00     0.166 HD
HETATM    8  C   UNL     1      41.256 -15.678  -0.421  1.00  0.00     0.066 A 
HETATM    9  C   UNL     1      40.591 -15.348   0.743  1.00  0.00    -0.017 A 
HETATM   10  C   UNL     1      39.529 -14.284   0.772  1.00  0.00     0.043 C 
HETATM   11  C   UNL     1      39.083 -13.873  -0.665  1.00  0.00     0.018 C 
HETATM   12  C   UNL     1      40.296 -13.710  -1.607  1.00  0.00     0.065 C 
HETATM   13  C   UNL     1      40.986 -15.043  -1.663  1.00  0.00     0.082 C 
HETATM   14  N   UNL     1      41.204 -15.559  -2.826  1.00  0.00    -0.203 NA
HETATM   15  C   UNL     1      40.019 -13.521  -3.103  1.00  0.00     0.121 C 
HETATM   16  N   UNL     1      40.750 -14.646  -3.712  1.00  0.00    -0.207 NA
HETATM   17  C   UNL     1      42.893 -17.880   1.909  1.00  0.00     0.031 A 
HETATM   18  C   UNL     1      42.635 -18.003   3.276  1.00  0.00     0.009 A 
HETATM   19  H   UNL     1      40.278 -15.047  -4.521  1.00  0.00     0.149 HD
ENDROOT
BRANCH  15  20
HETATM   20  C   UNL     1      40.546 -12.237  -3.723  1.00  0.00    -0.038 A 
HETATM   21  C   UNL     1      41.924 -12.021  -3.903  1.00  0.00     0.011 A 
HETATM   22  C   UNL     1      42.393 -10.910  -4.608  1.00  0.00     0.037 A 
HETATM   23  C   UNL     1      41.491 -10.023  -5.183  1.00  0.00     0.068 A 
HETATM   24  C   UNL     1      40.122 -10.198  -4.991  1.00  0.00     0.037 A 
HETATM   25  C   UNL     1      39.651 -11.302  -4.267  1.00  0.00     0.011 A 
BRANCH  23  26
HETATM   26  O   UNL     1      42.024  -8.991  -5.905  1.00  0.00    -0.356 OA
HETATM   27  C   UNL     1      42.468  -7.916  -5.078  1.00  0.00     0.210 C 
ENDBRANCH  23  26
ENDBRANCH  15  20
TORSDOF 2
ENDMDL
MODEL 9
REMARK VINA RESULT:      -7.7      4.733      8.597
REMARK  2 active torsions:
REMARK  status: ('A' for Active; 'I' for Inactive)
REMARK    1  A    between atoms: C_15  and  C_16 
REMARK    2  A    between atoms: C_19  and  O_20 
ROOT
HETATM    1  C   UNL     1      36.404  -9.707   1.903  1.00  0.00     0.048 C 
HETATM    2  C   UNL     1      37.036 -11.001   1.480  1.00  0.00    -0.061 A 
HETATM    3  C   UNL     1      38.339 -11.327   1.902  1.00  0.00     0.021 A 
HETATM    4  C   UNL     1      38.921 -12.548   1.507  1.00  0.00    -0.000 A 
HETATM    5  C   UNL     1      38.170 -13.410   0.696  1.00  0.00     0.043 A 
HETATM    6  N   UNL     1      38.957 -14.504   0.416  1.00  0.00    -0.353 N 
HETATM    7  H   UNL     1      38.687 -15.293  -0.157  1.00  0.00     0.166 HD
HETATM    8  C   UNL     1      40.141 -14.390   1.074  1.00  0.00     0.066 A 
HETATM    9  C   UNL     1      40.171 -13.185   1.748  1.00  0.00    -0.017 A 
HETATM   10  C   UNL     1      41.366 -12.763   2.558  1.00  0.00     0.043 C 
HETATM   11  C   UNL     1      42.607 -13.664   2.271  1.00  0.00     0.018 C 
HETATM   12  C   UNL     1      42.218 -15.157   2.215  1.00  0.00     0.065 C 
HETATM   13  C   UNL     1      41.226 -15.307   1.096  1.00  0.00     0.082 C 
HETATM   14  N   UNL     1      41.472 -16.191   0.187  1.00  0.00    -0.203 NA
HETATM   15  C   UNL     1      43.277 -16.155   1.729  1.00  0.00     0.121 C 
HETATM   16  N   UNL     1      42.616 -16.793   0.578  1.00  0.00    -0.207 NA
HETATM   17  C   UNL     1      36.862 -13.125   0.295  1.00  0.00     0.031 A 
HETATM   18  C   UNL     1      36.308 -11.911   0.705  1.00  0.00     0.009 A 
HETATM   19  H   UNL     1      43.254 -17.014  -0.186  1.00  0.00     0.149 HD
ENDROOT
BRANCH  15  20
HETATM   20  C   UNL     1      43.660 -17.251   2.709  1.00  0.00    -0.038 A 
HETATM   21  C   UNL     1      43.638 -17.035   4.099  1.00  0.00     0.011 A 
HETATM   22  C   UNL     1      43.844 -18.086   4.995  1.00  0.00     0.037 A 
HETATM   23  C   UNL     1      44.030 -19.378   4.517  1.00  0.00     0.068 A 
HETATM   24  C   UNL     1      44.088 -19.612   3.146  1.00  0.00     0.037 A 
HETATM   25  C   UNL     1      43.900 -18.555   2.245  1.00  0.00     0.011 A 
BRANCH  23  26
HETATM   26  O   UNL     1      44.168 -20.363   5.456  1.00  0.00    -0.356 OA
HETATM   27  C   UNL     1      43.724 -19.952   6.749  1.00  0.00     0.210 C 
ENDBRANCH  23  26
ENDBRANCH  15  20
TORSDOF 2
ENDMDL
MODEL 10
REMARK VINA RESULT:      -7.7      3.912      5.067
REMARK  2 active torsions:
REMARK  status: ('A' for Active; 'I' for Inactive)
REMARK    1  A    between atoms: C_15  and  C_16 
REMARK    2  A    between atoms: C_19  and  O_20 
ROOT
HETATM    1  C   UNL     1      43.969 -21.005   6.723  1.00  0.00     0.048 C 
HETATM    2  C   UNL     1      43.843 -19.567   6.314  1.00  0.00    -0.061 A 
HETATM    3  C   UNL     1      43.369 -19.232   5.032  1.00  0.00     0.021 A 
HETATM    4  C   UNL     1      43.246 -17.878   4.660  1.00  0.00    -0.000 A 
HETATM    5  C   UNL     1      43.604 -16.897   5.594  1.00  0.00     0.043 A 
HETATM    6  N   UNL     1      43.436 -15.671   4.992  1.00  0.00    -0.353 N 
HETATM    7  H   UNL     1      43.625 -14.774   5.419  1.00  0.00     0.166 HD
HETATM    8  C   UNL     1      42.925 -15.846   3.745  1.00  0.00     0.066 A 
HETATM    9  C   UNL     1      42.807 -17.198   3.488  1.00  0.00    -0.017 A 
HETATM   10  C   UNL     1      42.285 -17.710   2.174  1.00  0.00     0.043 C 
HETATM   11  C   UNL     1      42.217 -16.581   1.099  1.00  0.00     0.018 C 
HETATM   12  C   UNL     1      41.641 -15.275   1.688  1.00  0.00     0.065 C 
HETATM   13  C   UNL     1      42.565 -14.852   2.796  1.00  0.00     0.082 C 
HETATM   14  N   UNL     1      43.036 -13.651   2.759  1.00  0.00    -0.203 NA
HETATM   15  C   UNL     1      41.709 -14.010   0.825  1.00  0.00     0.121 C 
HETATM   16  N   UNL     1      42.472 -13.079   1.673  1.00  0.00    -0.207 NA
HETATM   17  C   UNL     1      44.042 -17.205   6.885  1.00  0.00     0.031 A 
HETATM   18  C   UNL     1      44.149 -18.554   7.230  1.00  0.00     0.009 A 
HETATM   19  H   UNL     1      43.099 -12.470   1.148  1.00  0.00     0.149 HD
ENDROOT
BRANCH  15  20
HETATM   20  C   UNL     1      40.378 -13.353   0.498  1.00  0.00    -0.038 A 
HETATM   21  C   UNL     1      39.564 -13.823  -0.548  1.00  0.00     0.011 A 
HETATM   22  C   UNL     1      38.279 -13.313  -0.746  1.00  0.00     0.037 A 
HETATM   23  C   UNL     1      37.770 -12.358   0.127  1.00  0.00     0.068 A 
HETATM   24  C   UNL     1      38.569 -11.853   1.150  1.00  0.00     0.037 A 
HETATM   25  C   UNL     1      39.865 -12.351   1.338  1.00  0.00     0.011 A 
BRANCH  23  26
HETATM   26  O   UNL     1      36.484 -11.949  -0.097  1.00  0.00    -0.356 OA
HETATM   27  C   UNL     1      36.027 -11.020   0.885  1.00  0.00     0.210 C 
ENDBRANCH  23  26
ENDBRANCH  15  20
TORSDOF 2
ENDMDL
