MODEL 1
REMARK VINA RESULT:      -8.1      0.000      0.000
REMARK  4 active torsions:
REMARK  status: ('A' for Active; 'I' for Inactive)
REMARK    1  A    between atoms: O_2  and  C_3 
REMARK    2  A    between atoms: C_7  and  N_8 
REMARK       I    between atoms: N_8  and  C_9 
REMARK    3  A    between atoms: C_9  and  C_10 
REMARK    4  A    between atoms: C_12  and  C_13 
ROOT
HETATM    1  N   UNL     1      41.715 -16.304   2.216  1.00  0.00    -0.323 N 
HETATM    2  C   UNL     1      42.258 -16.007   3.455  1.00  0.00     0.256 C 
HETATM    3  O   UNL     1      42.151 -14.947   4.059  1.00  0.00    -0.267 OA
HETATM    4  H   UNL     1      41.991 -17.179   1.791  1.00  0.00     0.169 HD
ENDROOT
BRANCH   2   5
HETATM    5  C   UNL     1      43.073 -17.094   4.075  1.00  0.00     0.033 A 
HETATM    6  C   UNL     1      43.237 -18.288   3.358  1.00  0.00     0.029 A 
HETATM    7  C   UNL     1      44.007 -19.338   3.880  1.00  0.00    -0.023 A 
HETATM    8  C   UNL     1      44.607 -19.172   5.136  1.00  0.00     0.012 A 
HETATM    9  C   UNL     1      44.461 -17.978   5.847  1.00  0.00     0.002 A 
HETATM   10  C   UNL     1      43.703 -16.935   5.316  1.00  0.00     0.017 A 
BRANCH   7  11
HETATM   11  C   UNL     1      44.190 -20.578   3.143  1.00  0.00    -0.002 A 
HETATM   12  C   UNL     1      44.638 -21.761   3.698  1.00  0.00     0.153 A 
HETATM   13  O   UNL     1      44.688 -22.747   2.764  1.00  0.00    -0.334 OA
HETATM   14  C   UNL     1      44.267 -22.203   1.595  1.00  0.00     0.142 A 
HETATM   15  C   UNL     1      43.944 -20.878   1.772  1.00  0.00     0.038 A 
ENDBRANCH   7  11
ENDBRANCH   2   5
BRANCH   1  16
HETATM   16  C   UNL     1      40.859 -15.488   1.444  1.00  0.00     0.041 A 
HETATM   17  C   UNL     1      39.517 -15.258   1.740  1.00  0.00     0.074 A 
HETATM   18  C   UNL     1      38.745 -14.446   0.906  1.00  0.00     0.155 A 
HETATM   19  C   UNL     1      39.272 -13.848  -0.241  1.00  0.00     0.145 A 
HETATM   20  F   UNL     1      37.456 -14.250   1.228  1.00  0.00    -0.203 F 
HETATM   21  C   UNL     1      40.615 -14.083  -0.525  1.00  0.00     0.155 A 
HETATM   22  C   UNL     1      41.402 -14.890   0.304  1.00  0.00     0.074 A 
HETATM   23  F   UNL     1      41.210 -13.549  -1.601  1.00  0.00    -0.203 F 
BRANCH  19  24
HETATM   24  O   UNL     1      38.396 -13.088  -0.965  1.00  0.00    -0.350 OA
HETATM   25  C   UNL     1      37.969 -13.597  -2.221  1.00  0.00     0.210 C 
ENDBRANCH  19  24
ENDBRANCH   1  16
TORSDOF 4
ENDMDL
MODEL 2
REMARK VINA RESULT:      -8.1      3.217      8.087
REMARK  4 active torsions:
REMARK  status: ('A' for Active; 'I' for Inactive)
REMARK    1  A    between atoms: O_2  and  C_3 
REMARK    2  A    between atoms: C_7  and  N_8 
REMARK       I    between atoms: N_8  and  C_9 
REMARK    3  A    between atoms: C_9  and  C_10 
REMARK    4  A    between atoms: C_12  and  C_13 
ROOT
HETATM    1  N   UNL     1      42.019 -17.504   2.094  1.00  0.00    -0.323 N 
HETATM    2  C   UNL     1      41.124 -16.652   2.720  1.00  0.00     0.256 C 
HETATM    3  O   UNL     1      40.886 -16.604   3.920  1.00  0.00    -0.267 OA
HETATM    4  H   UNL     1      42.017 -17.510   1.083  1.00  0.00     0.169 HD
ENDROOT
BRANCH   2   5
HETATM    5  C   UNL     1      40.368 -15.737   1.813  1.00  0.00     0.033 A 
HETATM    6  C   UNL     1      40.907 -15.468   0.546  1.00  0.00     0.029 A 
HETATM    7  C   UNL     1      40.234 -14.632  -0.357  1.00  0.00    -0.023 A 
HETATM    8  C   UNL     1      39.013 -14.065   0.033  1.00  0.00     0.012 A 
HETATM    9  C   UNL     1      38.464 -14.343   1.288  1.00  0.00     0.002 A 
HETATM   10  C   UNL     1      39.133 -15.185   2.176  1.00  0.00     0.017 A 
BRANCH   7  11
HETATM   11  C   UNL     1      40.779 -14.352  -1.675  1.00  0.00    -0.002 A 
HETATM   12  C   UNL     1      40.806 -15.255  -2.721  1.00  0.00     0.153 A 
HETATM   13  O   UNL     1      41.359 -14.697  -3.829  1.00  0.00    -0.334 OA
HETATM   14  C   UNL     1      41.690 -13.422  -3.505  1.00  0.00     0.142 A 
HETATM   15  C   UNL     1      41.352 -13.157  -2.199  1.00  0.00     0.038 A 
ENDBRANCH   7  11
ENDBRANCH   2   5
BRANCH   1  16
HETATM   16  C   UNL     1      42.899 -18.418   2.713  1.00  0.00     0.041 A 
HETATM   17  C   UNL     1      43.554 -18.182   3.919  1.00  0.00     0.074 A 
HETATM   18  C   UNL     1      44.420 -19.142   4.446  1.00  0.00     0.155 A 
HETATM   19  C   UNL     1      44.667 -20.354   3.796  1.00  0.00     0.145 A 
HETATM   20  F   UNL     1      45.031 -18.875   5.612  1.00  0.00    -0.203 F 
HETATM   21  C   UNL     1      44.004 -20.580   2.593  1.00  0.00     0.155 A 
HETATM   22  C   UNL     1      43.131 -19.629   2.055  1.00  0.00     0.074 A 
HETATM   23  F   UNL     1      44.175 -21.714   1.899  1.00  0.00    -0.203 F 
BRANCH  19  24
HETATM   24  O   UNL     1      45.544 -21.193   4.426  1.00  0.00    -0.350 OA
HETATM   25  C   UNL     1      44.998 -22.253   5.198  1.00  0.00     0.210 C 
ENDBRANCH  19  24
ENDBRANCH   1  16
TORSDOF 4
ENDMDL
MODEL 3
REMARK VINA RESULT:      -8.0      0.411      1.701
REMARK  4 active torsions:
REMARK  status: ('A' for Active; 'I' for Inactive)
REMARK    1  A    between atoms: O_2  and  C_3 
REMARK    2  A    between atoms: C_7  and  N_8 
REMARK       I    between atoms: N_8  and  C_9 
REMARK    3  A    between atoms: C_9  and  C_10 
REMARK    4  A    between atoms: C_12  and  C_13 
ROOT
HETATM    1  N   UNL     1      41.980 -16.247   2.385  1.00  0.00    -0.323 N 
HETATM    2  C   UNL     1      42.430 -16.041   3.679  1.00  0.00     0.256 C 
HETATM    3  O   UNL     1      42.268 -15.030   4.351  1.00  0.00    -0.267 OA
HETATM    4  H   UNL     1      42.296 -17.085   1.917  1.00  0.00     0.169 HD
ENDROOT
BRANCH   2   5
HETATM    5  C   UNL     1      43.211 -17.165   4.273  1.00  0.00     0.033 A 
HETATM    6  C   UNL     1      43.351 -18.342   3.523  1.00  0.00     0.029 A 
HETATM    7  C   UNL     1      44.090 -19.426   4.019  1.00  0.00    -0.023 A 
HETATM    8  C   UNL     1      44.683 -19.313   5.284  1.00  0.00     0.012 A 
HETATM    9  C   UNL     1      44.561 -18.137   6.028  1.00  0.00     0.002 A 
HETATM   10  C   UNL     1      43.834 -17.059   5.522  1.00  0.00     0.017 A 
BRANCH   7  11
HETATM   11  C   UNL     1      44.247 -20.649   3.247  1.00  0.00    -0.002 A 
HETATM   12  C   UNL     1      44.647 -21.862   3.773  1.00  0.00     0.153 A 
HETATM   13  O   UNL     1      44.683 -22.820   2.811  1.00  0.00    -0.334 OA
HETATM   14  C   UNL     1      44.301 -22.228   1.652  1.00  0.00     0.142 A 
HETATM   15  C   UNL     1      44.017 -20.899   1.864  1.00  0.00     0.038 A 
ENDBRANCH   7  11
ENDBRANCH   2   5
BRANCH   1  16
HETATM   16  C   UNL     1      41.172 -15.381   1.616  1.00  0.00     0.041 A 
HETATM   17  C   UNL     1      41.663 -14.474   0.680  1.00  0.00     0.074 A 
HETATM   18  C   UNL     1      40.784 -13.646  -0.022  1.00  0.00     0.155 A 
HETATM   19  C   UNL     1      39.403 -13.685   0.186  1.00  0.00     0.145 A 
HETATM   20  F   UNL     1      41.299 -12.787  -0.917  1.00  0.00    -0.203 F 
HETATM   21  C   UNL     1      38.924 -14.597   1.123  1.00  0.00     0.155 A 
HETATM   22  C   UNL     1      39.791 -15.436   1.830  1.00  0.00     0.074 A 
HETATM   23  F   UNL     1      37.615 -14.710   1.388  1.00  0.00    -0.203 F 
BRANCH  19  24
HETATM   24  O   UNL     1      38.669 -12.811  -0.567  1.00  0.00    -0.350 OA
HETATM   25  C   UNL     1      38.047 -13.317  -1.740  1.00  0.00     0.210 C 
ENDBRANCH  19  24
ENDBRANCH   1  16
TORSDOF 4
ENDMDL
MODEL 4
REMARK VINA RESULT:      -8.0      6.202      9.398
REMARK  4 active torsions:
REMARK  status: ('A' for Active; 'I' for Inactive)
REMARK    1  A    between atoms: O_2  and  C_3 
REMARK    2  A    between atoms: C_7  and  N_8 
REMARK       I    between atoms: N_8  and  C_9 
REMARK    3  A    between atoms: C_9  and  C_10 
REMARK    4  A    between atoms: C_12  and  C_13 
ROOT
HETATM    1  N   UNL     1      44.029 -14.575   7.539  1.00  0.00    -0.323 N 
HETATM    2  C   UNL     1      44.995 -13.593   7.393  1.00  0.00     0.256 C 
HETATM    3  O   UNL     1      45.816 -13.512   6.488  1.00  0.00    -0.267 OA
HETATM    4  H   UNL     1      43.503 -14.577   8.403  1.00  0.00     0.169 HD
ENDROOT
BRANCH   2   5
HETATM    5  C   UNL     1      45.035 -12.566   8.475  1.00  0.00     0.033 A 
HETATM    6  C   UNL     1      43.894 -12.403   9.275  1.00  0.00     0.029 A 
HETATM    7  C   UNL     1      43.877 -11.468  10.320  1.00  0.00    -0.023 A 
HETATM    8  C   UNL     1      45.023 -10.694  10.548  1.00  0.00     0.012 A 
HETATM    9  C   UNL     1      46.168 -10.864   9.766  1.00  0.00     0.002 A 
HETATM   10  C   UNL     1      46.181 -11.804   8.736  1.00  0.00     0.017 A 
BRANCH   7  11
HETATM   11  C   UNL     1      42.702 -11.295  11.159  1.00  0.00    -0.002 A 
HETATM   12  C   UNL     1      41.440 -10.986  10.689  1.00  0.00     0.153 A 
HETATM   13  O   UNL     1      40.548 -10.908  11.710  1.00  0.00    -0.334 OA
HETATM   14  C   UNL     1      41.231 -11.173  12.851  1.00  0.00     0.142 A 
HETATM   15  C   UNL     1      42.553 -11.423  12.570  1.00  0.00     0.038 A 
ENDBRANCH   7  11
ENDBRANCH   2   5
BRANCH   1  16
HETATM   16  C   UNL     1      43.734 -15.620   6.637  1.00  0.00     0.041 A 
HETATM   17  C   UNL     1      42.652 -15.617   5.760  1.00  0.00     0.074 A 
HETATM   18  C   UNL     1      42.433 -16.707   4.914  1.00  0.00     0.155 A 
HETATM   19  C   UNL     1      43.268 -17.827   4.916  1.00  0.00     0.145 A 
HETATM   20  F   UNL     1      41.378 -16.663   4.083  1.00  0.00    -0.203 F 
HETATM   21  C   UNL     1      44.348 -17.817   5.795  1.00  0.00     0.155 A 
HETATM   22  C   UNL     1      44.582 -16.731   6.645  1.00  0.00     0.074 A 
HETATM   23  F   UNL     1      45.205 -18.844   5.866  1.00  0.00    -0.203 F 
BRANCH  19  24
HETATM   24  O   UNL     1      42.925 -18.820   4.040  1.00  0.00    -0.350 OA
HETATM   25  C   UNL     1      43.698 -18.944   2.854  1.00  0.00     0.210 C 
ENDBRANCH  19  24
ENDBRANCH   1  16
TORSDOF 4
ENDMDL
MODEL 5
REMARK VINA RESULT:      -7.8      1.814      2.006
REMARK  4 active torsions:
REMARK  status: ('A' for Active; 'I' for Inactive)
REMARK    1  A    between atoms: O_2  and  C_3 
REMARK    2  A    between atoms: C_7  and  N_8 
REMARK       I    between atoms: N_8  and  C_9 
REMARK    3  A    between atoms: C_9  and  C_10 
REMARK    4  A    between atoms: C_12  and  C_13 
ROOT
HETATM    1  N   UNL     1      41.888 -15.695   3.403  1.00  0.00    -0.323 N 
HETATM    2  C   UNL     1      41.792 -16.382   4.602  1.00  0.00     0.256 C 
HETATM    3  O   UNL     1      40.926 -16.234   5.455  1.00  0.00    -0.267 OA
HETATM    4  H   UNL     1      42.727 -15.840   2.858  1.00  0.00     0.169 HD
ENDROOT
BRANCH   2   5
HETATM    5  C   UNL     1      42.881 -17.367   4.866  1.00  0.00     0.033 A 
HETATM    6  C   UNL     1      43.001 -18.468   4.005  1.00  0.00     0.029 A 
HETATM    7  C   UNL     1      44.016 -19.417   4.190  1.00  0.00    -0.023 A 
HETATM    8  C   UNL     1      44.908 -19.249   5.258  1.00  0.00     0.012 A 
HETATM    9  C   UNL     1      44.804 -18.145   6.110  1.00  0.00     0.002 A 
HETATM   10  C   UNL     1      43.799 -17.199   5.911  1.00  0.00     0.017 A 
BRANCH   7  11
HETATM   11  C   UNL     1      44.154 -20.558   3.299  1.00  0.00    -0.002 A 
HETATM   12  C   UNL     1      44.663 -21.788   3.672  1.00  0.00     0.153 A 
HETATM   13  O   UNL     1      44.649 -22.656   2.627  1.00  0.00    -0.334 OA
HETATM   14  C   UNL     1      44.124 -21.989   1.569  1.00  0.00     0.142 A 
HETATM   15  C   UNL     1      43.799 -20.702   1.927  1.00  0.00     0.038 A 
ENDBRANCH   7  11
ENDBRANCH   2   5
BRANCH   1  16
HETATM   16  C   UNL     1      40.968 -14.761   2.880  1.00  0.00     0.041 A 
HETATM   17  C   UNL     1      39.745 -15.102   2.306  1.00  0.00     0.074 A 
HETATM   18  C   UNL     1      38.906 -14.106   1.801  1.00  0.00     0.155 A 
HETATM   19  C   UNL     1      39.253 -12.754   1.842  1.00  0.00     0.145 A 
HETATM   20  F   UNL     1      37.736 -14.478   1.256  1.00  0.00    -0.203 F 
HETATM   21  C   UNL     1      40.476 -12.425   2.421  1.00  0.00     0.155 A 
HETATM   22  C   UNL     1      41.325 -13.411   2.935  1.00  0.00     0.074 A 
HETATM   23  F   UNL     1      40.893 -11.154   2.510  1.00  0.00    -0.203 F 
BRANCH  19  24
HETATM   24  O   UNL     1      38.337 -11.894   1.302  1.00  0.00    -0.350 OA
HETATM   25  C   UNL     1      37.662 -11.013   2.190  1.00  0.00     0.210 C 
ENDBRANCH  19  24
ENDBRANCH   1  16
TORSDOF 4
ENDMDL
MODEL 6
REMARK VINA RESULT:      -7.7      2.360      3.596
REMARK  4 active torsions:
REMARK  status: ('A' for Active; 'I' for Inactive)
REMARK    1  A    between atoms: O_2  and  C_3 
REMARK    2  A    between atoms: C_7  and  N_8 
REMARK       I    between atoms: N_8  and  C_9 
REMARK    3  A    between atoms: C_9  and  C_10 
REMARK    4  A    between atoms: C_12  and  C_13 
ROOT
HETATM    1  N   UNL     1      42.004 -16.254   0.457  1.00  0.00    -0.323 N 
HETATM    2  C   UNL     1      41.449 -17.019   1.471  1.00  0.00     0.256 C 
HETATM    3  O   UNL     1      40.266 -17.059   1.785  1.00  0.00    -0.267 OA
HETATM    4  H   UNL     1      43.012 -16.234   0.398  1.00  0.00     0.169 HD
ENDROOT
BRANCH   2   5
HETATM    5  C   UNL     1      42.416 -17.838   2.259  1.00  0.00     0.033 A 
HETATM    6  C   UNL     1      42.469 -17.647   3.647  1.00  0.00     0.029 A 
HETATM    7  C   UNL     1      43.344 -18.400   4.443  1.00  0.00    -0.023 A 
HETATM    8  C   UNL     1      44.171 -19.347   3.823  1.00  0.00     0.012 A 
HETATM    9  C   UNL     1      44.110 -19.554   2.443  1.00  0.00     0.002 A 
HETATM   10  C   UNL     1      43.229 -18.809   1.660  1.00  0.00     0.017 A 
BRANCH   7  11
HETATM   11  C   UNL     1      43.402 -18.214   5.884  1.00  0.00    -0.002 A 
HETATM   12  C   UNL     1      44.077 -19.048   6.756  1.00  0.00     0.153 A 
HETATM   13  O   UNL     1      43.964 -18.606   8.035  1.00  0.00    -0.334 OA
HETATM   14  C   UNL     1      43.215 -17.475   7.996  1.00  0.00     0.142 A 
HETATM   15  C   UNL     1      42.850 -17.187   6.703  1.00  0.00     0.038 A 
ENDBRANCH   7  11
ENDBRANCH   2   5
BRANCH   1  16
HETATM   16  C   UNL     1      41.315 -15.444  -0.472  1.00  0.00     0.041 A 
HETATM   17  C   UNL     1      40.868 -14.152  -0.206  1.00  0.00     0.074 A 
HETATM   18  C   UNL     1      40.181 -13.432  -1.186  1.00  0.00     0.155 A 
HETATM   19  C   UNL     1      39.911 -13.969  -2.447  1.00  0.00     0.145 A 
HETATM   20  F   UNL     1      39.768 -12.189  -0.888  1.00  0.00    -0.203 F 
HETATM   21  C   UNL     1      40.365 -15.261  -2.702  1.00  0.00     0.155 A 
HETATM   22  C   UNL     1      41.059 -15.992  -1.732  1.00  0.00     0.074 A 
HETATM   23  F   UNL     1      40.157 -15.859  -3.883  1.00  0.00    -0.203 F 
BRANCH  19  24
HETATM   24  O   UNL     1      39.222 -13.152  -3.300  1.00  0.00    -0.350 OA
HETATM   25  C   UNL     1      37.812 -13.317  -3.369  1.00  0.00     0.210 C 
ENDBRANCH  19  24
ENDBRANCH   1  16
TORSDOF 4
ENDMDL
MODEL 7
REMARK VINA RESULT:      -7.7      3.661      4.843
REMARK  4 active torsions:
REMARK  status: ('A' for Active; 'I' for Inactive)
REMARK    1  A    between atoms: O_2  and  C_3 
REMARK    2  A    between atoms: C_7  and  N_8 
REMARK       I    between atoms: N_8  and  C_9 
REMARK    3  A    between atoms: C_9  and  C_10 
REMARK    4  A    between atoms: C_12  and  C_13 
ROOT
HETATM    1  N   UNL     1      42.199 -14.932   4.077  1.00  0.00    -0.323 N 
HETATM    2  C   UNL     1      42.463 -16.219   4.517  1.00  0.00     0.256 C 
HETATM    3  O   UNL     1      42.260 -16.657   5.642  1.00  0.00    -0.267 OA
HETATM    4  H   UNL     1      42.535 -14.684   3.156  1.00  0.00     0.169 HD
ENDROOT
BRANCH   2   5
HETATM    5  C   UNL     1      43.084 -17.127   3.508  1.00  0.00     0.033 A 
HETATM    6  C   UNL     1      43.416 -18.431   3.906  1.00  0.00     0.029 A 
HETATM    7  C   UNL     1      43.984 -19.336   2.998  1.00  0.00    -0.023 A 
HETATM    8  C   UNL     1      44.220 -18.911   1.683  1.00  0.00     0.012 A 
HETATM    9  C   UNL     1      43.876 -17.619   1.276  1.00  0.00     0.002 A 
HETATM   10  C   UNL     1      43.300 -16.729   2.182  1.00  0.00     0.017 A 
BRANCH   7  11
HETATM   11  C   UNL     1      44.326 -20.692   3.398  1.00  0.00    -0.002 A 
HETATM   12  C   UNL     1      44.309 -21.786   2.554  1.00  0.00     0.153 A 
HETATM   13  O   UNL     1      44.693 -22.911   3.211  1.00  0.00    -0.334 OA
HETATM   14  C   UNL     1      44.966 -22.547   4.489  1.00  0.00     0.142 A 
HETATM   15  C   UNL     1      44.763 -21.197   4.656  1.00  0.00     0.038 A 
ENDBRANCH   7  11
ENDBRANCH   2   5
BRANCH   1  16
HETATM   16  C   UNL     1      41.563 -13.899   4.799  1.00  0.00     0.041 A 
HETATM   17  C   UNL     1      40.234 -13.523   4.624  1.00  0.00     0.074 A 
HETATM   18  C   UNL     1      39.696 -12.477   5.377  1.00  0.00     0.155 A 
HETATM   19  C   UNL     1      40.456 -11.770   6.313  1.00  0.00     0.145 A 
HETATM   20  F   UNL     1      38.410 -12.147   5.178  1.00  0.00    -0.203 F 
HETATM   21  C   UNL     1      41.784 -12.157   6.480  1.00  0.00     0.155 A 
HETATM   22  C   UNL     1      42.334 -13.207   5.738  1.00  0.00     0.074 A 
HETATM   23  F   UNL     1      42.589 -11.541   7.357  1.00  0.00    -0.203 F 
BRANCH  19  24
HETATM   24  O   UNL     1      39.800 -10.766   6.968  1.00  0.00    -0.350 OA
HETATM   25  C   UNL     1      39.565 -10.934   8.359  1.00  0.00     0.210 C 
ENDBRANCH  19  24
ENDBRANCH   1  16
TORSDOF 4
ENDMDL
MODEL 8
REMARK VINA RESULT:      -7.7      6.173      9.457
REMARK  4 active torsions:
REMARK  status: ('A' for Active; 'I' for Inactive)
REMARK    1  A    between atoms: O_2  and  C_3 
REMARK    2  A    between atoms: C_7  and  N_8 
REMARK       I    between atoms: N_8  and  C_9 
REMARK    3  A    between atoms: C_9  and  C_10 
REMARK    4  A    between atoms: C_12  and  C_13 
ROOT
HETATM    1  N   UNL     1      44.038 -14.619   7.480  1.00  0.00    -0.323 N 
HETATM    2  C   UNL     1      44.956 -13.589   7.348  1.00  0.00     0.256 C 
HETATM    3  O   UNL     1      45.835 -13.505   6.500  1.00  0.00    -0.267 OA
HETATM    4  H   UNL     1      43.452 -14.609   8.303  1.00  0.00     0.169 HD
ENDROOT
BRANCH   2   5
HETATM    5  C   UNL     1      44.859 -12.509   8.374  1.00  0.00     0.033 A 
HETATM    6  C   UNL     1      43.585 -12.026   8.708  1.00  0.00     0.029 A 
HETATM    7  C   UNL     1      43.428 -11.025   9.677  1.00  0.00    -0.023 A 
HETATM    8  C   UNL     1      44.571 -10.512  10.305  1.00  0.00     0.012 A 
HETATM    9  C   UNL     1      45.841 -11.002   9.989  1.00  0.00     0.002 A 
HETATM   10  C   UNL     1      45.988 -12.005   9.032  1.00  0.00     0.017 A 
BRANCH   7  11
HETATM   11  C   UNL     1      42.112 -10.522  10.036  1.00  0.00    -0.002 A 
HETATM   12  C   UNL     1      41.803  -9.925  11.243  1.00  0.00     0.153 A 
HETATM   13  O   UNL     1      40.500  -9.543  11.276  1.00  0.00    -0.334 OA
HETATM   14  C   UNL     1      39.958  -9.888  10.082  1.00  0.00     0.142 A 
HETATM   15  C   UNL     1      40.904 -10.486   9.282  1.00  0.00     0.038 A 
ENDBRANCH   7  11
ENDBRANCH   2   5
BRANCH   1  16
HETATM   16  C   UNL     1      43.869 -15.723   6.617  1.00  0.00     0.041 A 
HETATM   17  C   UNL     1      44.628 -16.889   6.677  1.00  0.00     0.074 A 
HETATM   18  C   UNL     1      44.397 -17.924   5.768  1.00  0.00     0.155 A 
HETATM   19  C   UNL     1      43.418 -17.834   4.775  1.00  0.00     0.145 A 
HETATM   20  F   UNL     1      45.151 -19.032   5.862  1.00  0.00    -0.203 F 
HETATM   21  C   UNL     1      42.663 -16.665   4.727  1.00  0.00     0.155 A 
HETATM   22  C   UNL     1      42.881 -15.622   5.633  1.00  0.00     0.074 A 
HETATM   23  F   UNL     1      41.700 -16.488   3.812  1.00  0.00    -0.203 F 
BRANCH  19  24
HETATM   24  O   UNL     1      43.311 -18.921   3.953  1.00  0.00    -0.350 OA
HETATM   25  C   UNL     1      43.950 -18.849   2.685  1.00  0.00     0.210 C 
ENDBRANCH  19  24
ENDBRANCH   1  16
TORSDOF 4
ENDMDL
MODEL 9
REMARK VINA RESULT:      -7.6      3.413      3.945
REMARK  4 active torsions:
REMARK  status: ('A' for Active; 'I' for Inactive)
REMARK    1  A    between atoms: O_2  and  C_3 
REMARK    2  A    between atoms: C_7  and  N_8 
REMARK       I    between atoms: N_8  and  C_9 
REMARK    3  A    between atoms: C_9  and  C_10 
REMARK    4  A    between atoms: C_12  and  C_13 
ROOT
HETATM    1  N   UNL     1      42.435 -15.080   5.107  1.00  0.00    -0.323 N 
HETATM    2  C   UNL     1      42.100 -16.350   4.665  1.00  0.00     0.256 C 
HETATM    3  O   UNL     1      41.044 -16.680   4.139  1.00  0.00    -0.267 OA
HETATM    4  H   UNL     1      43.295 -14.989   5.630  1.00  0.00     0.169 HD
ENDROOT
BRANCH   2   5
HETATM    5  C   UNL     1      43.134 -17.402   4.894  1.00  0.00     0.033 A 
HETATM    6  C   UNL     1      43.186 -18.483   4.001  1.00  0.00     0.029 A 
HETATM    7  C   UNL     1      44.147 -19.493   4.153  1.00  0.00    -0.023 A 
HETATM    8  C   UNL     1      45.053 -19.404   5.219  1.00  0.00     0.012 A 
HETATM    9  C   UNL     1      45.017 -18.321   6.101  1.00  0.00     0.002 A 
HETATM   10  C   UNL     1      44.065 -17.315   5.935  1.00  0.00     0.017 A 
BRANCH   7  11
HETATM   11  C   UNL     1      44.215 -20.615   3.231  1.00  0.00    -0.002 A 
HETATM   12  C   UNL     1      44.702 -21.867   3.553  1.00  0.00     0.153 A 
HETATM   13  O   UNL     1      44.620 -22.708   2.489  1.00  0.00    -0.334 OA
HETATM   14  C   UNL     1      44.072 -22.001   1.470  1.00  0.00     0.142 A 
HETATM   15  C   UNL     1      43.800 -20.715   1.872  1.00  0.00     0.038 A 
ENDBRANCH   7  11
ENDBRANCH   2   5
BRANCH   1  16
HETATM   16  C   UNL     1      41.675 -13.900   4.960  1.00  0.00     0.041 A 
HETATM   17  C   UNL     1      41.895 -12.942   3.973  1.00  0.00     0.074 A 
HETATM   18  C   UNL     1      41.099 -11.796   3.918  1.00  0.00     0.155 A 
HETATM   19  C   UNL     1      40.072 -11.562   4.836  1.00  0.00     0.145 A 
HETATM   20  F   UNL     1      41.345 -10.898   2.950  1.00  0.00    -0.203 F 
HETATM   21  C   UNL     1      39.859 -12.528   5.816  1.00  0.00     0.155 A 
HETATM   22  C   UNL     1      40.646 -13.683   5.881  1.00  0.00     0.074 A 
HETATM   23  F   UNL     1      38.895 -12.393   6.738  1.00  0.00    -0.203 F 
BRANCH  19  24
HETATM   24  O   UNL     1      39.382 -10.394   4.663  1.00  0.00    -0.350 OA
HETATM   25  C   UNL     1      38.174 -10.451   3.917  1.00  0.00     0.210 C 
ENDBRANCH  19  24
ENDBRANCH   1  16
TORSDOF 4
ENDMDL
MODEL 10
REMARK VINA RESULT:      -7.6      1.732      2.376
REMARK  4 active torsions:
REMARK  status: ('A' for Active; 'I' for Inactive)
REMARK    1  A    between atoms: O_2  and  C_3 
REMARK    2  A    between atoms: C_7  and  N_8 
REMARK       I    between atoms: N_8  and  C_9 
REMARK    3  A    between atoms: C_9  and  C_10 
REMARK    4  A    between atoms: C_12  and  C_13 
ROOT
HETATM    1  N   UNL     1      41.929 -15.775   0.664  1.00  0.00    -0.323 N 
HETATM    2  C   UNL     1      41.319 -16.428   1.723  1.00  0.00     0.256 C 
HETATM    3  O   UNL     1      40.117 -16.471   1.953  1.00  0.00    -0.267 OA
HETATM    4  H   UNL     1      42.939 -15.727   0.675  1.00  0.00     0.169 HD
ENDROOT
BRANCH   2   5
HETATM    5  C   UNL     1      42.245 -17.109   2.675  1.00  0.00     0.033 A 
HETATM    6  C   UNL     1      42.635 -18.426   2.390  1.00  0.00     0.029 A 
HETATM    7  C   UNL     1      43.517 -19.112   3.237  1.00  0.00    -0.023 A 
HETATM    8  C   UNL     1      44.000 -18.457   4.378  1.00  0.00     0.012 A 
HETATM    9  C   UNL     1      43.629 -17.139   4.658  1.00  0.00     0.002 A 
HETATM   10  C   UNL     1      42.760 -16.460   3.804  1.00  0.00     0.017 A 
BRANCH   7  11
HETATM   11  C   UNL     1      43.934 -20.475   2.949  1.00  0.00    -0.002 A 
HETATM   12  C   UNL     1      43.708 -21.128   1.752  1.00  0.00     0.153 A 
HETATM   13  O   UNL     1      44.230 -22.382   1.777  1.00  0.00    -0.334 OA
HETATM   14  C   UNL     1      44.802 -22.546   2.996  1.00  0.00     0.142 A 
HETATM   15  C   UNL     1      44.655 -21.406   3.751  1.00  0.00     0.038 A 
ENDBRANCH   7  11
ENDBRANCH   2   5
BRANCH   1  16
HETATM   16  C   UNL     1      41.293 -15.111  -0.407  1.00  0.00     0.041 A 
HETATM   17  C   UNL     1      41.027 -15.692  -1.644  1.00  0.00     0.074 A 
HETATM   18  C   UNL     1      40.405 -14.948  -2.650  1.00  0.00     0.155 A 
HETATM   19  C   UNL     1      40.037 -13.613  -2.464  1.00  0.00     0.145 A 
HETATM   20  F   UNL     1      40.166 -15.548  -3.828  1.00  0.00    -0.203 F 
HETATM   21  C   UNL     1      40.306 -13.044  -1.222  1.00  0.00     0.155 A 
HETATM   22  C   UNL     1      40.924 -13.778  -0.204  1.00  0.00     0.074 A 
HETATM   23  F   UNL     1      39.986 -11.771  -0.949  1.00  0.00    -0.203 F 
BRANCH  19  24
HETATM   24  O   UNL     1      39.446 -13.010  -3.539  1.00  0.00    -0.350 OA
HETATM   25  C   UNL     1      38.029 -12.903  -3.533  1.00  0.00     0.210 C 
ENDBRANCH  19  24
ENDBRANCH   1  16
TORSDOF 4
ENDMDL
