MODEL 1
REMARK VINA RESULT:      -8.0      0.000      0.000
REMARK  7 active torsions:
REMARK  status: ('A' for Active; 'I' for Inactive)
REMARK    1  A    between atoms: O_2  and  C_3 
REMARK    2  A    between atoms: C_4  and  O_5 
REMARK    3  A    between atoms: O_5  and  C_6 
REMARK       I    between atoms: C_6  and  N_7 
REMARK    4  A    between atoms: C_14  and  O_15 
REMARK    5  A    between atoms: C_18  and  C_19 
REMARK    6  A    between atoms: C_23  and  N_24 
REMARK    7  A    between atoms: C_31  and  C_32 
ROOT
HETATM    1  C   UNL     1      41.361 -13.910   4.848  1.00  0.00     0.106 A 
HETATM    2  C   UNL     1      40.806 -12.604   5.439  1.00  0.00     0.081 A 
HETATM    3  C   UNL     1      39.479 -12.244   5.062  1.00  0.00     0.100 C 
HETATM    4  N   UNL     1      38.392 -11.972   4.757  1.00  0.00    -0.191 NA
HETATM    5  C   UNL     1      41.494 -11.844   6.334  1.00  0.00     0.140 A 
HETATM    6  O   UNL     1      42.765 -12.212   6.799  1.00  0.00    -0.279 OA
HETATM    7  C   UNL     1      43.222 -13.390   6.392  1.00  0.00     0.175 A 
HETATM    8  C   UNL     1      42.653 -14.266   5.503  1.00  0.00     0.040 A 
HETATM    9  N   UNL     1      44.385 -13.945   6.811  1.00  0.00    -0.256 N 
HETATM   10  H   UNL     1      45.057 -13.573   7.472  1.00  0.00     0.191 HD
HETATM   11  N   UNL     1      44.624 -15.138   6.237  1.00  0.00    -0.172 NA
HETATM   12  C   UNL     1      43.553 -15.369   5.451  1.00  0.00     0.099 A 
ENDROOT
BRANCH   1  13
HETATM   13  C   UNL     1      41.596 -13.796   3.341  1.00  0.00    -0.039 C 
HETATM   14  C   UNL     1      42.040 -12.616   2.707  1.00  0.00     0.048 C 
HETATM   15  C   UNL     1      42.114 -12.522   1.313  1.00  0.00     0.105 C 
HETATM   16  C   UNL     1      41.634 -13.584   0.540  1.00  0.00     0.147 C 
HETATM   17  C   UNL     1      41.264 -14.788   1.135  1.00  0.00     0.105 C 
HETATM   18  C   UNL     1      41.237 -14.892   2.527  1.00  0.00     0.048 C 
BRANCH  15  19
HETATM   19  O   UNL     1      42.580 -11.420   0.646  1.00  0.00    -0.353 OA
HETATM   20  C   UNL     1      41.681 -10.318   0.598  1.00  0.00     0.210 C 
ENDBRANCH  15  19
BRANCH  16  21
HETATM   21  O   UNL     1      41.552 -13.482  -0.854  1.00  0.00    -0.256 OA
BRANCH  21  22
HETATM   22  C   UNL     1      40.254 -13.271  -1.309  1.00  0.00     0.368 C 
HETATM   23  N   UNL     1      40.060 -13.757  -2.591  1.00  0.00    -0.324 N 
HETATM   24  C   UNL     1      40.889 -14.802  -3.188  1.00  0.00     0.154 C 
HETATM   25  C   UNL     1      38.783 -13.551  -3.267  1.00  0.00     0.154 C 
HETATM   26  C   UNL     1      40.067 -16.094  -3.328  1.00  0.00     0.187 C 
HETATM   27  O   UNL     1      38.856 -15.859  -4.069  1.00  0.00    -0.388 OA
HETATM   28  C   UNL     1      38.034 -14.878  -3.409  1.00  0.00     0.187 C 
HETATM   29  O   UNL     1      39.361 -12.713  -0.673  1.00  0.00    -0.238 OA
ENDBRANCH  21  22
ENDBRANCH  16  21
BRANCH  17  30
HETATM   30  O   UNL     1      40.852 -15.821   0.334  1.00  0.00    -0.353 OA
HETATM   31  C   UNL     1      40.927 -17.073   1.014  1.00  0.00     0.210 C 
ENDBRANCH  17  30
ENDBRANCH   1  13
BRANCH   5  32
HETATM   32  N   UNL     1      41.046 -10.664   6.889  1.00  0.00    -0.282 NA
HETATM   33  H   UNL     1      40.713  -9.971   6.223  1.00  0.00     0.126 HD
HETATM   34  H   UNL     1      41.719 -10.278   7.548  1.00  0.00     0.126 HD
ENDBRANCH   5  32
BRANCH  12  35
HETATM   35  C   UNL     1      43.467 -16.603   4.670  1.00  0.00    -0.005 A 
HETATM   36  C   UNL     1      42.949 -17.784   5.220  1.00  0.00     0.015 A 
HETATM   37  C   UNL     1      42.882 -18.953   4.455  1.00  0.00     0.020 A 
HETATM   38  C   UNL     1      43.340 -18.948   3.139  1.00  0.00     0.011 A 
HETATM   39 BR   UNL     1      43.256 -20.532   2.111  1.00  0.00    -0.051 Br
HETATM   40  C   UNL     1      43.869 -17.788   2.580  1.00  0.00     0.020 A 
HETATM   41  C   UNL     1      43.933 -16.621   3.346  1.00  0.00     0.015 A 
ENDBRANCH  12  35
TORSDOF 7
ENDMDL
MODEL 2
REMARK VINA RESULT:      -7.8      2.476      7.332
REMARK  7 active torsions:
REMARK  status: ('A' for Active; 'I' for Inactive)
REMARK    1  A    between atoms: O_2  and  C_3 
REMARK    2  A    between atoms: C_4  and  O_5 
REMARK    3  A    between atoms: O_5  and  C_6 
REMARK       I    between atoms: C_6  and  N_7 
REMARK    4  A    between atoms: C_14  and  O_15 
REMARK    5  A    between atoms: C_18  and  C_19 
REMARK    6  A    between atoms: C_23  and  N_24 
REMARK    7  A    between atoms: C_31  and  C_32 
ROOT
HETATM    1  C   UNL     1      42.202 -13.315   0.219  1.00  0.00     0.106 A 
HETATM    2  C   UNL     1      41.965 -12.113  -0.708  1.00  0.00     0.081 A 
HETATM    3  C   UNL     1      42.667 -10.912  -0.391  1.00  0.00     0.100 C 
HETATM    4  N   UNL     1      43.256  -9.948  -0.128  1.00  0.00    -0.191 NA
HETATM    5  C   UNL     1      41.186 -12.177  -1.821  1.00  0.00     0.140 A 
HETATM    6  O   UNL     1      40.552 -13.364  -2.217  1.00  0.00    -0.279 OA
HETATM    7  C   UNL     1      40.827 -14.446  -1.499  1.00  0.00     0.175 A 
HETATM    8  C   UNL     1      41.587 -14.545  -0.362  1.00  0.00     0.040 A 
HETATM    9  N   UNL     1      40.379 -15.691  -1.788  1.00  0.00    -0.256 N 
HETATM   10  H   UNL     1      39.794 -15.984  -2.563  1.00  0.00     0.191 HD
HETATM   11  N   UNL     1      40.791 -16.609  -0.897  1.00  0.00    -0.172 NA
HETATM   12  C   UNL     1      41.563 -15.929  -0.026  1.00  0.00     0.099 A 
ENDROOT
BRANCH   1  13
HETATM   13  C   UNL     1      41.607 -13.086   1.610  1.00  0.00    -0.039 C 
HETATM   14  C   UNL     1      40.302 -12.593   1.830  1.00  0.00     0.048 C 
HETATM   15  C   UNL     1      39.851 -12.277   3.115  1.00  0.00     0.105 C 
HETATM   16  C   UNL     1      40.751 -12.351   4.183  1.00  0.00     0.147 C 
HETATM   17  C   UNL     1      42.017 -12.908   4.010  1.00  0.00     0.105 C 
HETATM   18  C   UNL     1      42.446 -13.265   2.730  1.00  0.00     0.048 C 
BRANCH  15  19
HETATM   19  O   UNL     1      38.582 -11.839   3.393  1.00  0.00    -0.353 OA
HETATM   20  C   UNL     1      38.241 -10.579   2.826  1.00  0.00     0.210 C 
ENDBRANCH  15  19
BRANCH  16  21
HETATM   21  O   UNL     1      40.391 -11.909   5.462  1.00  0.00    -0.256 OA
BRANCH  21  22
HETATM   22  C   UNL     1      40.660 -10.559   5.666  1.00  0.00     0.368 C 
HETATM   23  N   UNL     1      40.028 -10.061   6.793  1.00  0.00    -0.324 N 
HETATM   24  C   UNL     1      39.589 -10.901   7.906  1.00  0.00     0.154 C 
HETATM   25  C   UNL     1      40.125  -8.642   7.120  1.00  0.00     0.154 C 
HETATM   26  C   UNL     1      40.469 -10.627   9.136  1.00  0.00     0.187 C 
HETATM   27  O   UNL     1      40.472  -9.227   9.469  1.00  0.00    -0.388 OA
HETATM   28  C   UNL     1      40.979  -8.441   8.375  1.00  0.00     0.187 C 
HETATM   29  O   UNL     1      41.366  -9.859   4.943  1.00  0.00    -0.238 OA
ENDBRANCH  21  22
ENDBRANCH  16  21
BRANCH  17  30
HETATM   30  O   UNL     1      42.847 -13.011   5.096  1.00  0.00    -0.353 OA
HETATM   31  C   UNL     1      43.672 -14.172   5.016  1.00  0.00     0.210 C 
ENDBRANCH  17  30
ENDBRANCH   1  13
BRANCH   5  32
HETATM   32  N   UNL     1      40.936 -11.129  -2.682  1.00  0.00    -0.282 NA
HETATM   33  H   UNL     1      40.519 -11.390  -3.573  1.00  0.00     0.126 HD
HETATM   34  H   UNL     1      41.751 -10.531  -2.795  1.00  0.00     0.126 HD
ENDBRANCH   5  32
BRANCH  12  35
HETATM   35  C   UNL     1      42.200 -16.626   1.092  1.00  0.00    -0.005 A 
HETATM   36  C   UNL     1      43.481 -17.182   0.975  1.00  0.00     0.015 A 
HETATM   37  C   UNL     1      44.066 -17.848   2.056  1.00  0.00     0.020 A 
HETATM   38  C   UNL     1      43.369 -17.969   3.257  1.00  0.00     0.011 A 
HETATM   39 BR   UNL     1      44.159 -18.877   4.714  1.00  0.00    -0.051 Br
HETATM   40  C   UNL     1      42.091 -17.434   3.388  1.00  0.00     0.020 A 
HETATM   41  C   UNL     1      41.509 -16.767   2.306  1.00  0.00     0.015 A 
ENDBRANCH  12  35
TORSDOF 7
ENDMDL
MODEL 3
REMARK VINA RESULT:      -7.8      2.861      7.192
REMARK  7 active torsions:
REMARK  status: ('A' for Active; 'I' for Inactive)
REMARK    1  A    between atoms: O_2  and  C_3 
REMARK    2  A    between atoms: C_4  and  O_5 
REMARK    3  A    between atoms: O_5  and  C_6 
REMARK       I    between atoms: C_6  and  N_7 
REMARK    4  A    between atoms: C_14  and  O_15 
REMARK    5  A    between atoms: C_18  and  C_19 
REMARK    6  A    between atoms: C_23  and  N_24 
REMARK    7  A    between atoms: C_31  and  C_32 
ROOT
HETATM    1  C   UNL     1      41.979 -13.879   1.306  1.00  0.00     0.106 A 
HETATM    2  C   UNL     1      41.899 -13.104  -0.018  1.00  0.00     0.081 A 
HETATM    3  C   UNL     1      42.412 -11.774  -0.014  1.00  0.00     0.100 C 
HETATM    4  N   UNL     1      42.848 -10.698   0.002  1.00  0.00    -0.191 NA
HETATM    5  C   UNL     1      41.431 -13.654  -1.172  1.00  0.00     0.140 A 
HETATM    6  O   UNL     1      41.002 -14.989  -1.237  1.00  0.00    -0.279 OA
HETATM    7  C   UNL     1      41.164 -15.714  -0.138  1.00  0.00     0.175 A 
HETATM    8  C   UNL     1      41.619 -15.310   1.091  1.00  0.00     0.040 A 
HETATM    9  N   UNL     1      40.891 -17.038  -0.048  1.00  0.00    -0.256 N 
HETATM   10  H   UNL     1      40.543 -17.658  -0.770  1.00  0.00     0.191 HD
HETATM   11  N   UNL     1      41.129 -17.532   1.180  1.00  0.00    -0.172 NA
HETATM   12  C   UNL     1      41.609 -16.491   1.889  1.00  0.00     0.099 A 
ENDROOT
BRANCH   1  13
HETATM   13  C   UNL     1      41.039 -13.295   2.363  1.00  0.00    -0.039 C 
HETATM   14  C   UNL     1      39.825 -12.645   2.054  1.00  0.00     0.048 C 
HETATM   15  C   UNL     1      39.065 -12.013   3.045  1.00  0.00     0.105 C 
HETATM   16  C   UNL     1      39.580 -11.936   4.342  1.00  0.00     0.147 C 
HETATM   17  C   UNL     1      40.733 -12.635   4.694  1.00  0.00     0.105 C 
HETATM   18  C   UNL     1      41.464 -13.303   3.709  1.00  0.00     0.048 C 
BRANCH  15  19
HETATM   19  O   UNL     1      37.859 -11.407   2.811  1.00  0.00    -0.353 OA
HETATM   20  C   UNL     1      37.891 -10.344   1.864  1.00  0.00     0.210 C 
ENDBRANCH  15  19
BRANCH  16  21
HETATM   21  O   UNL     1      38.928 -11.193   5.334  1.00  0.00    -0.256 OA
BRANCH  21  22
HETATM   22  C   UNL     1      39.453  -9.912   5.486  1.00  0.00     0.368 C 
HETATM   23  N   UNL     1      39.420  -9.484   6.803  1.00  0.00    -0.324 N 
HETATM   24  C   UNL     1      39.359 -10.395   7.943  1.00  0.00     0.154 C 
HETATM   25  C   UNL     1      39.850  -8.131   7.142  1.00  0.00     0.154 C 
HETATM   26  C   UNL     1      40.696 -10.362   8.700  1.00  0.00     0.187 C 
HETATM   27  O   UNL     1      41.041  -9.019   9.085  1.00  0.00    -0.388 OA
HETATM   28  C   UNL     1      41.164  -8.171   7.927  1.00  0.00     0.187 C 
HETATM   29  O   UNL     1      39.894  -9.214   4.575  1.00  0.00    -0.238 OA
ENDBRANCH  21  22
ENDBRANCH  16  21
BRANCH  17  30
HETATM   30  O   UNL     1      41.172 -12.576   5.991  1.00  0.00    -0.353 OA
HETATM   31  C   UNL     1      42.493 -13.098   6.121  1.00  0.00     0.210 C 
ENDBRANCH  17  30
ENDBRANCH   1  13
BRANCH   5  32
HETATM   32  N   UNL     1      41.333 -13.005  -2.383  1.00  0.00    -0.282 NA
HETATM   33  H   UNL     1      42.076 -13.211  -3.047  1.00  0.00     0.126 HD
HETATM   34  H   UNL     1      41.185 -12.005  -2.264  1.00  0.00     0.126 HD
ENDBRANCH   5  32
BRANCH  12  35
HETATM   35  C   UNL     1      41.991 -16.669   3.290  1.00  0.00    -0.005 A 
HETATM   36  C   UNL     1      43.326 -16.571   3.704  1.00  0.00     0.015 A 
HETATM   37  C   UNL     1      43.667 -16.751   5.048  1.00  0.00     0.020 A 
HETATM   38  C   UNL     1      42.675 -17.038   5.984  1.00  0.00     0.011 A 
HETATM   39 BR   UNL     1      43.141 -17.290   7.798  1.00  0.00    -0.051 Br
HETATM   40  C   UNL     1      41.345 -17.152   5.590  1.00  0.00     0.020 A 
HETATM   41  C   UNL     1      41.007 -16.969   4.246  1.00  0.00     0.015 A 
ENDBRANCH  12  35
TORSDOF 7
ENDMDL
MODEL 4
REMARK VINA RESULT:      -7.5      3.767      8.404
REMARK  7 active torsions:
REMARK  status: ('A' for Active; 'I' for Inactive)
REMARK    1  A    between atoms: O_2  and  C_3 
REMARK    2  A    between atoms: C_4  and  O_5 
REMARK    3  A    between atoms: O_5  and  C_6 
REMARK       I    between atoms: C_6  and  N_7 
REMARK    4  A    between atoms: C_14  and  O_15 
REMARK    5  A    between atoms: C_18  and  C_19 
REMARK    6  A    between atoms: C_23  and  N_24 
REMARK    7  A    between atoms: C_31  and  C_32 
ROOT
HETATM    1  C   UNL     1      40.644 -15.755   3.678  1.00  0.00     0.106 A 
HETATM    2  C   UNL     1      41.423 -16.821   4.465  1.00  0.00     0.081 A 
HETATM    3  C   UNL     1      40.882 -17.208   5.726  1.00  0.00     0.100 C 
HETATM    4  N   UNL     1      40.421 -17.523   6.743  1.00  0.00    -0.191 NA
HETATM    5  C   UNL     1      42.538 -17.433   3.980  1.00  0.00     0.140 A 
HETATM    6  O   UNL     1      43.049 -17.144   2.706  1.00  0.00    -0.279 OA
HETATM    7  C   UNL     1      42.335 -16.312   1.960  1.00  0.00     0.175 A 
HETATM    8  C   UNL     1      41.199 -15.621   2.299  1.00  0.00     0.040 A 
HETATM    9  N   UNL     1      42.627 -15.991   0.676  1.00  0.00    -0.256 N 
HETATM   10  H   UNL     1      43.396 -16.323   0.105  1.00  0.00     0.191 HD
HETATM   11  N   UNL     1      41.753 -15.116   0.150  1.00  0.00    -0.172 NA
HETATM   12  C   UNL     1      40.846 -14.898   1.123  1.00  0.00     0.099 A 
ENDROOT
BRANCH   1  13
HETATM   13  C   UNL     1      40.705 -14.387   4.361  1.00  0.00    -0.039 C 
HETATM   14  C   UNL     1      41.782 -13.966   5.171  1.00  0.00     0.048 C 
HETATM   15  C   UNL     1      41.732 -12.761   5.879  1.00  0.00     0.105 C 
HETATM   16  C   UNL     1      40.547 -12.019   5.863  1.00  0.00     0.147 C 
HETATM   17  C   UNL     1      39.500 -12.367   5.013  1.00  0.00     0.105 C 
HETATM   18  C   UNL     1      39.574 -13.548   4.273  1.00  0.00     0.048 C 
BRANCH  15  19
HETATM   19  O   UNL     1      42.764 -12.281   6.643  1.00  0.00    -0.353 OA
HETATM   20  C   UNL     1      43.772 -13.234   6.962  1.00  0.00     0.210 C 
ENDBRANCH  15  19
BRANCH  16  21
HETATM   21  O   UNL     1      40.397 -10.883   6.668  1.00  0.00    -0.256 OA
BRANCH  21  22
HETATM   22  C   UNL     1      39.947 -11.181   7.951  1.00  0.00     0.368 C 
HETATM   23  N   UNL     1      40.727 -10.591   8.932  1.00  0.00    -0.324 N 
HETATM   24  C   UNL     1      41.557  -9.411   8.698  1.00  0.00     0.154 C 
HETATM   25  C   UNL     1      40.458 -10.861  10.341  1.00  0.00     0.154 C 
HETATM   26  C   UNL     1      40.956  -8.205   9.437  1.00  0.00     0.187 C 
HETATM   27  O   UNL     1      40.782  -8.489  10.837  1.00  0.00    -0.388 OA
HETATM   28  C   UNL     1      39.900  -9.611  11.026  1.00  0.00     0.187 C 
HETATM   29  O   UNL     1      38.979 -11.890   8.217  1.00  0.00    -0.238 OA
ENDBRANCH  21  22
ENDBRANCH  16  21
BRANCH  17  30
HETATM   30  O   UNL     1      38.378 -11.579   4.990  1.00  0.00    -0.353 OA
HETATM   31  C   UNL     1      38.362 -10.725   3.848  1.00  0.00     0.210 C 
ENDBRANCH  17  30
ENDBRANCH   1  13
BRANCH   5  32
HETATM   32  N   UNL     1      43.275 -18.388   4.645  1.00  0.00    -0.282 NA
HETATM   33  H   UNL     1      43.459 -19.239   4.117  1.00  0.00     0.126 HD
HETATM   34  H   UNL     1      42.899 -18.580   5.570  1.00  0.00     0.126 HD
ENDBRANCH   5  32
BRANCH  12  35
HETATM   35  C   UNL     1      39.723 -13.989   0.893  1.00  0.00    -0.005 A 
HETATM   36  C   UNL     1      39.926 -12.633   0.604  1.00  0.00     0.015 A 
HETATM   37  C   UNL     1      38.836 -11.782   0.393  1.00  0.00     0.020 A 
HETATM   38  C   UNL     1      37.538 -12.283   0.477  1.00  0.00     0.011 A 
HETATM   39 BR   UNL     1      36.067 -11.129   0.199  1.00  0.00    -0.051 Br
HETATM   40  C   UNL     1      37.317 -13.625   0.774  1.00  0.00     0.020 A 
HETATM   41  C   UNL     1      38.408 -14.473   0.983  1.00  0.00     0.015 A 
ENDBRANCH  12  35
TORSDOF 7
ENDMDL
MODEL 5
REMARK VINA RESULT:      -7.5      2.542      7.177
REMARK  7 active torsions:
REMARK  status: ('A' for Active; 'I' for Inactive)
REMARK    1  A    between atoms: O_2  and  C_3 
REMARK    2  A    between atoms: C_4  and  O_5 
REMARK    3  A    between atoms: O_5  and  C_6 
REMARK       I    between atoms: C_6  and  N_7 
REMARK    4  A    between atoms: C_14  and  O_15 
REMARK    5  A    between atoms: C_18  and  C_19 
REMARK    6  A    between atoms: C_23  and  N_24 
REMARK    7  A    between atoms: C_31  and  C_32 
ROOT
HETATM    1  C   UNL     1      42.324 -13.405  -0.390  1.00  0.00     0.106 A 
HETATM    2  C   UNL     1      42.334 -12.333  -1.491  1.00  0.00     0.081 A 
HETATM    3  C   UNL     1      43.157 -11.191  -1.265  1.00  0.00     0.100 C 
HETATM    4  N   UNL     1      43.843 -10.275  -1.073  1.00  0.00    -0.191 NA
HETATM    5  C   UNL     1      41.657 -12.469  -2.664  1.00  0.00     0.140 A 
HETATM    6  O   UNL     1      40.909 -13.618  -2.961  1.00  0.00    -0.279 OA
HETATM    7  C   UNL     1      40.973 -14.607  -2.079  1.00  0.00     0.175 A 
HETATM    8  C   UNL     1      41.607 -14.626  -0.863  1.00  0.00     0.040 A 
HETATM    9  N   UNL     1      40.391 -15.819  -2.244  1.00  0.00    -0.256 N 
HETATM   10  H   UNL     1      39.846 -16.152  -3.031  1.00  0.00     0.191 HD
HETATM   11  N   UNL     1      40.595 -16.638  -1.197  1.00  0.00    -0.172 NA
HETATM   12  C   UNL     1      41.370 -15.933  -0.347  1.00  0.00     0.099 A 
ENDROOT
BRANCH   1  13
HETATM   13  C   UNL     1      41.642 -12.905   0.884  1.00  0.00    -0.039 C 
HETATM   14  C   UNL     1      42.273 -12.871   2.146  1.00  0.00     0.048 C 
HETATM   15  C   UNL     1      41.567 -12.528   3.304  1.00  0.00     0.105 C 
HETATM   16  C   UNL     1      40.187 -12.325   3.216  1.00  0.00     0.147 C 
HETATM   17  C   UNL     1      39.552 -12.273   1.977  1.00  0.00     0.105 C 
HETATM   18  C   UNL     1      40.272 -12.570   0.819  1.00  0.00     0.048 C 
BRANCH  15  19
HETATM   19  O   UNL     1      42.138 -12.434   4.547  1.00  0.00    -0.353 OA
HETATM   20  C   UNL     1      42.799 -13.612   4.998  1.00  0.00     0.210 C 
ENDBRANCH  15  19
BRANCH  16  21
HETATM   21  O   UNL     1      39.413 -12.122   4.366  1.00  0.00    -0.256 OA
BRANCH  21  22
HETATM   22  C   UNL     1      39.362 -10.787   4.758  1.00  0.00     0.368 C 
HETATM   23  N   UNL     1      39.425 -10.641   6.134  1.00  0.00    -0.324 N 
HETATM   24  C   UNL     1      39.997 -11.649   7.024  1.00  0.00     0.154 C 
HETATM   25  C   UNL     1      39.300  -9.317   6.736  1.00  0.00     0.154 C 
HETATM   26  C   UNL     1      41.318 -11.128   7.611  1.00  0.00     0.187 C 
HETATM   27  O   UNL     1      41.131  -9.859   8.262  1.00  0.00    -0.388 OA
HETATM   28  C   UNL     1      40.637  -8.875   7.335  1.00  0.00     0.187 C 
HETATM   29  O   UNL     1      39.263  -9.827   3.997  1.00  0.00    -0.238 OA
ENDBRANCH  21  22
ENDBRANCH  16  21
BRANCH  17  30
HETATM   30  O   UNL     1      38.206 -12.016   1.935  1.00  0.00    -0.353 OA
HETATM   31  C   UNL     1      37.549 -12.825   0.961  1.00  0.00     0.210 C 
ENDBRANCH  17  30
ENDBRANCH   1  13
BRANCH   5  32
HETATM   32  N   UNL     1      41.628 -11.538  -3.680  1.00  0.00    -0.282 NA
HETATM   33  H   UNL     1      40.702 -11.195  -3.927  1.00  0.00     0.126 HD
HETATM   34  H   UNL     1      42.157 -11.848  -4.492  1.00  0.00     0.126 HD
ENDBRANCH   5  32
BRANCH  12  35
HETATM   35  C   UNL     1      41.804 -16.527   0.917  1.00  0.00    -0.005 A 
HETATM   36  C   UNL     1      41.017 -16.445   2.073  1.00  0.00     0.015 A 
HETATM   37  C   UNL     1      41.456 -17.017   3.272  1.00  0.00     0.020 A 
HETATM   38  C   UNL     1      42.689 -17.666   3.321  1.00  0.00     0.011 A 
HETATM   39 BR   UNL     1      43.283 -18.430   4.944  1.00  0.00    -0.051 Br
HETATM   40  C   UNL     1      43.489 -17.747   2.185  1.00  0.00     0.020 A 
HETATM   41  C   UNL     1      43.047 -17.177   0.988  1.00  0.00     0.015 A 
ENDBRANCH  12  35
TORSDOF 7
ENDMDL
MODEL 6
REMARK VINA RESULT:      -7.4      0.465      2.083
REMARK  7 active torsions:
REMARK  status: ('A' for Active; 'I' for Inactive)
REMARK    1  A    between atoms: O_2  and  C_3 
REMARK    2  A    between atoms: C_4  and  O_5 
REMARK    3  A    between atoms: O_5  and  C_6 
REMARK       I    between atoms: C_6  and  N_7 
REMARK    4  A    between atoms: C_14  and  O_15 
REMARK    5  A    between atoms: C_18  and  C_19 
REMARK    6  A    between atoms: C_23  and  N_24 
REMARK    7  A    between atoms: C_31  and  C_32 
ROOT
HETATM    1  C   UNL     1      41.277 -14.023   5.124  1.00  0.00     0.106 A 
HETATM    2  C   UNL     1      40.727 -12.765   5.812  1.00  0.00     0.081 A 
HETATM    3  C   UNL     1      39.332 -12.510   5.662  1.00  0.00     0.100 C 
HETATM    4  N   UNL     1      38.192 -12.325   5.542  1.00  0.00    -0.191 NA
HETATM    5  C   UNL     1      41.491 -11.951   6.591  1.00  0.00     0.140 A 
HETATM    6  O   UNL     1      42.846 -12.218   6.837  1.00  0.00    -0.279 OA
HETATM    7  C   UNL     1      43.320 -13.356   6.348  1.00  0.00     0.175 A 
HETATM    8  C   UNL     1      42.683 -14.276   5.554  1.00  0.00     0.040 A 
HETATM    9  N   UNL     1      44.576 -13.818   6.564  1.00  0.00    -0.256 N 
HETATM   10  H   UNL     1      45.316 -13.394   7.111  1.00  0.00     0.191 HD
HETATM   11  N   UNL     1      44.809 -14.989   5.946  1.00  0.00    -0.172 NA
HETATM   12  C   UNL     1      43.645 -15.305   5.343  1.00  0.00     0.099 A 
ENDROOT
BRANCH   1  13
HETATM   13  C   UNL     1      41.252 -13.894   3.599  1.00  0.00    -0.039 C 
HETATM   14  C   UNL     1      40.833 -14.929   2.735  1.00  0.00     0.048 C 
HETATM   15  C   UNL     1      40.952 -14.809   1.346  1.00  0.00     0.105 C 
HETATM   16  C   UNL     1      41.599 -13.686   0.820  1.00  0.00     0.147 C 
HETATM   17  C   UNL     1      41.950 -12.616   1.639  1.00  0.00     0.105 C 
HETATM   18  C   UNL     1      41.785 -12.722   3.022  1.00  0.00     0.048 C 
BRANCH  15  19
HETATM   19  O   UNL     1      40.522 -15.760   0.459  1.00  0.00    -0.353 OA
HETATM   20  C   UNL     1      41.296 -16.954   0.431  1.00  0.00     0.210 C 
ENDBRANCH  15  19
BRANCH  16  21
HETATM   21  O   UNL     1      41.870 -13.588  -0.551  1.00  0.00    -0.256 OA
BRANCH  21  22
HETATM   22  C   UNL     1      40.763 -13.197  -1.298  1.00  0.00     0.368 C 
HETATM   23  N   UNL     1      40.753 -13.765  -2.561  1.00  0.00    -0.324 N 
HETATM   24  C   UNL     1      41.470 -14.993  -2.895  1.00  0.00     0.154 C 
HETATM   25  C   UNL     1      39.712 -13.403  -3.518  1.00  0.00     0.154 C 
HETATM   26  C   UNL     1      40.462 -16.127  -3.143  1.00  0.00     0.187 C 
HETATM   27  O   UNL     1      39.503 -15.756  -4.150  1.00  0.00    -0.388 OA
HETATM   28  C   UNL     1      38.767 -14.585  -3.749  1.00  0.00     0.187 C 
HETATM   29  O   UNL     1      39.882 -12.430  -0.912  1.00  0.00    -0.238 OA
ENDBRANCH  21  22
ENDBRANCH  16  21
BRANCH  17  30
HETATM   30  O   UNL     1      42.531 -11.512   1.072  1.00  0.00    -0.353 OA
HETATM   31  C   UNL     1      41.641 -10.398   1.063  1.00  0.00     0.210 C 
ENDBRANCH  17  30
ENDBRANCH   1  13
BRANCH   5  32
HETATM   32  N   UNL     1      41.050 -10.810   7.225  1.00  0.00    -0.282 NA
HETATM   33  H   UNL     1      41.692 -10.421   7.913  1.00  0.00     0.126 HD
HETATM   34  H   UNL     1      40.108 -10.922   7.593  1.00  0.00     0.126 HD
ENDBRANCH   5  32
BRANCH  12  35
HETATM   35  C   UNL     1      43.528 -16.543   4.572  1.00  0.00    -0.005 A 
HETATM   36  C   UNL     1      43.052 -17.726   5.154  1.00  0.00     0.015 A 
HETATM   37  C   UNL     1      42.955 -18.899   4.398  1.00  0.00     0.020 A 
HETATM   38  C   UNL     1      43.340 -18.895   3.059  1.00  0.00     0.011 A 
HETATM   39 BR   UNL     1      43.215 -20.484   2.042  1.00  0.00    -0.051 Br
HETATM   40  C   UNL     1      43.827 -17.733   2.467  1.00  0.00     0.020 A 
HETATM   41  C   UNL     1      43.921 -16.562   3.224  1.00  0.00     0.015 A 
ENDBRANCH  12  35
TORSDOF 7
ENDMDL
MODEL 7
REMARK VINA RESULT:      -7.3      1.925      2.206
REMARK  7 active torsions:
REMARK  status: ('A' for Active; 'I' for Inactive)
REMARK    1  A    between atoms: O_2  and  C_3 
REMARK    2  A    between atoms: C_4  and  O_5 
REMARK    3  A    between atoms: O_5  and  C_6 
REMARK       I    between atoms: C_6  and  N_7 
REMARK    4  A    between atoms: C_14  and  O_15 
REMARK    5  A    between atoms: C_18  and  C_19 
REMARK    6  A    between atoms: C_23  and  N_24 
REMARK    7  A    between atoms: C_31  and  C_32 
ROOT
HETATM    1  C   UNL     1      40.664 -13.209   4.044  1.00  0.00     0.106 A 
HETATM    2  C   UNL     1      39.999 -11.893   4.474  1.00  0.00     0.081 A 
HETATM    3  C   UNL     1      38.766 -11.561   3.838  1.00  0.00     0.100 C 
HETATM    4  N   UNL     1      37.757 -11.312   3.323  1.00  0.00    -0.191 NA
HETATM    5  C   UNL     1      40.499 -11.096   5.458  1.00  0.00     0.140 A 
HETATM    6  O   UNL     1      41.660 -11.434   6.169  1.00  0.00    -0.279 OA
HETATM    7  C   UNL     1      42.193 -12.618   5.897  1.00  0.00     0.175 A 
HETATM    8  C   UNL     1      41.810 -13.528   4.945  1.00  0.00     0.040 A 
HETATM    9  N   UNL     1      43.257 -13.146   6.548  1.00  0.00    -0.256 N 
HETATM   10  H   UNL     1      43.788 -12.745   7.313  1.00  0.00     0.191 HD
HETATM   11  N   UNL     1      43.609 -14.353   6.071  1.00  0.00    -0.172 NA
HETATM   12  C   UNL     1      42.710 -14.622   5.103  1.00  0.00     0.099 A 
ENDROOT
BRANCH   1  13
HETATM   13  C   UNL     1      41.183 -13.140   2.606  1.00  0.00    -0.039 C 
HETATM   14  C   UNL     1      41.803 -11.998   2.053  1.00  0.00     0.048 C 
HETATM   15  C   UNL     1      42.141 -11.939   0.698  1.00  0.00     0.105 C 
HETATM   16  C   UNL     1      41.756 -12.989  -0.140  1.00  0.00     0.147 C 
HETATM   17  C   UNL     1      41.215 -14.160   0.388  1.00  0.00     0.105 C 
HETATM   18  C   UNL     1      40.922 -14.232   1.751  1.00  0.00     0.048 C 
BRANCH  15  19
HETATM   19  O   UNL     1      42.784 -10.876   0.117  1.00  0.00    -0.353 OA
HETATM   20  C   UNL     1      42.080  -9.641   0.174  1.00  0.00     0.210 C 
ENDBRANCH  15  19
BRANCH  16  21
HETATM   21  O   UNL     1      41.942 -12.913  -1.526  1.00  0.00    -0.256 OA
BRANCH  21  22
HETATM   22  C   UNL     1      40.840 -12.388  -2.194  1.00  0.00     0.368 C 
HETATM   23  N   UNL     1      41.150 -11.234  -2.895  1.00  0.00    -0.324 N 
HETATM   24  C   UNL     1      42.504 -10.897  -3.330  1.00  0.00     0.154 C 
HETATM   25  C   UNL     1      40.100 -10.495  -3.589  1.00  0.00     0.154 C 
HETATM   26  C   UNL     1      42.597 -11.013  -4.859  1.00  0.00     0.187 C 
HETATM   27  O   UNL     1      41.594 -10.207  -5.503  1.00  0.00    -0.388 OA
HETATM   28  C   UNL     1      40.273 -10.619  -5.105  1.00  0.00     0.187 C 
HETATM   29  O   UNL     1      39.706 -12.865  -2.177  1.00  0.00    -0.238 OA
ENDBRANCH  21  22
ENDBRANCH  16  21
BRANCH  17  30
HETATM   30  O   UNL     1      40.903 -15.187  -0.465  1.00  0.00    -0.353 OA
HETATM   31  C   UNL     1      41.449 -16.425  -0.015  1.00  0.00     0.210 C 
ENDBRANCH  17  30
ENDBRANCH   1  13
BRANCH   5  32
HETATM   32  N   UNL     1      39.946  -9.905   5.878  1.00  0.00    -0.282 NA
HETATM   33  H   UNL     1      39.132  -9.596   5.351  1.00  0.00     0.126 HD
HETATM   34  H   UNL     1      40.648  -9.175   5.972  1.00  0.00     0.126 HD
ENDBRANCH   5  32
BRANCH  12  35
HETATM   35  C   UNL     1      42.782 -15.881   4.361  1.00  0.00    -0.005 A 
HETATM   36  C   UNL     1      42.017 -16.995   4.732  1.00  0.00     0.015 A 
HETATM   37  C   UNL     1      42.108 -18.190   4.011  1.00  0.00     0.020 A 
HETATM   38  C   UNL     1      42.970 -18.278   2.919  1.00  0.00     0.011 A 
HETATM   39 BR   UNL     1      43.096 -19.896   1.951  1.00  0.00    -0.051 Br
HETATM   40  C   UNL     1      43.746 -17.185   2.543  1.00  0.00     0.020 A 
HETATM   41  C   UNL     1      43.652 -15.992   3.265  1.00  0.00     0.015 A 
ENDBRANCH  12  35
TORSDOF 7
ENDMDL
MODEL 8
REMARK VINA RESULT:      -7.2      3.107      8.046
REMARK  7 active torsions:
REMARK  status: ('A' for Active; 'I' for Inactive)
REMARK    1  A    between atoms: O_2  and  C_3 
REMARK    2  A    between atoms: C_4  and  O_5 
REMARK    3  A    between atoms: O_5  and  C_6 
REMARK       I    between atoms: C_6  and  N_7 
REMARK    4  A    between atoms: C_14  and  O_15 
REMARK    5  A    between atoms: C_18  and  C_19 
REMARK    6  A    between atoms: C_23  and  N_24 
REMARK    7  A    between atoms: C_31  and  C_32 
ROOT
HETATM    1  C   UNL     1      41.024 -12.802   2.037  1.00  0.00     0.106 A 
HETATM    2  C   UNL     1      40.456 -11.670   1.167  1.00  0.00     0.081 A 
HETATM    3  C   UNL     1      41.284 -10.524   0.986  1.00  0.00     0.100 C 
HETATM    4  N   UNL     1      41.977  -9.605   0.835  1.00  0.00    -0.191 NA
HETATM    5  C   UNL     1      39.255 -11.755   0.532  1.00  0.00     0.140 A 
HETATM    6  O   UNL     1      38.452 -12.902   0.613  1.00  0.00    -0.279 OA
HETATM    7  C   UNL     1      38.967 -13.937   1.264  1.00  0.00     0.175 A 
HETATM    8  C   UNL     1      40.152 -14.010   1.950  1.00  0.00     0.040 A 
HETATM    9  N   UNL     1      38.373 -15.151   1.364  1.00  0.00    -0.256 N 
HETATM   10  H   UNL     1      37.488 -15.452   0.972  1.00  0.00     0.191 HD
HETATM   11  N   UNL     1      39.097 -16.022   2.089  1.00  0.00    -0.172 NA
HETATM   12  C   UNL     1      40.213 -15.349   2.434  1.00  0.00     0.099 A 
ENDROOT
BRANCH   1  13
HETATM   13  C   UNL     1      41.134 -12.389   3.506  1.00  0.00    -0.039 C 
HETATM   14  C   UNL     1      42.150 -12.849   4.373  1.00  0.00     0.048 C 
HETATM   15  C   UNL     1      42.133 -12.547   5.738  1.00  0.00     0.105 C 
HETATM   16  C   UNL     1      41.029 -11.870   6.265  1.00  0.00     0.147 C 
HETATM   17  C   UNL     1      40.053 -11.336   5.426  1.00  0.00     0.105 C 
HETATM   18  C   UNL     1      40.100 -11.601   4.056  1.00  0.00     0.048 C 
BRANCH  15  19
HETATM   19  O   UNL     1      43.114 -12.927   6.616  1.00  0.00    -0.353 OA
HETATM   20  C   UNL     1      43.974 -13.960   6.149  1.00  0.00     0.210 C 
ENDBRANCH  15  19
BRANCH  16  21
HETATM   21  O   UNL     1      40.896 -11.671   7.645  1.00  0.00    -0.256 OA
BRANCH  21  22
HETATM   22  C   UNL     1      41.310 -10.406   8.054  1.00  0.00     0.368 C 
HETATM   23  N   UNL     1      40.725 -10.022   9.249  1.00  0.00    -0.324 N 
HETATM   24  C   UNL     1      40.186 -10.971  10.221  1.00  0.00     0.154 C 
HETATM   25  C   UNL     1      40.975  -8.690   9.791  1.00  0.00     0.154 C 
HETATM   26  C   UNL     1      41.078 -10.989  11.473  1.00  0.00     0.187 C 
HETATM   27  O   UNL     1      41.232  -9.666  12.018  1.00  0.00    -0.388 OA
HETATM   28  C   UNL     1      41.834  -8.781  11.055  1.00  0.00     0.187 C 
HETATM   29  O   UNL     1      42.096  -9.685   7.442  1.00  0.00    -0.238 OA
ENDBRANCH  21  22
ENDBRANCH  16  21
BRANCH  17  30
HETATM   30  O   UNL     1      39.017 -10.632   5.982  1.00  0.00    -0.353 OA
HETATM   31  C   UNL     1      38.757  -9.427   5.262  1.00  0.00     0.210 C 
ENDBRANCH  17  30
ENDBRANCH   1  13
BRANCH   5  32
HETATM   32  N   UNL     1      38.697 -10.770  -0.254  1.00  0.00    -0.282 NA
HETATM   33  H   UNL     1      38.802 -10.904  -1.257  1.00  0.00     0.126 HD
HETATM   34  H   UNL     1      38.984  -9.840   0.045  1.00  0.00     0.126 HD
ENDBRANCH   5  32
BRANCH  12  35
HETATM   35  C   UNL     1      41.249 -16.003   3.232  1.00  0.00    -0.005 A 
HETATM   36  C   UNL     1      42.514 -16.288   2.700  1.00  0.00     0.015 A 
HETATM   37  C   UNL     1      43.487 -16.919   3.482  1.00  0.00     0.020 A 
HETATM   38  C   UNL     1      43.196 -17.275   4.798  1.00  0.00     0.011 A 
HETATM   39 BR   UNL     1      44.510 -18.136   5.849  1.00  0.00    -0.051 Br
HETATM   40  C   UNL     1      41.942 -17.011   5.340  1.00  0.00     0.020 A 
HETATM   41  C   UNL     1      40.972 -16.378   4.557  1.00  0.00     0.015 A 
ENDBRANCH  12  35
TORSDOF 7
ENDMDL
MODEL 9
REMARK VINA RESULT:      -7.1      3.555      8.155
REMARK  7 active torsions:
REMARK  status: ('A' for Active; 'I' for Inactive)
REMARK    1  A    between atoms: O_2  and  C_3 
REMARK    2  A    between atoms: C_4  and  O_5 
REMARK    3  A    between atoms: O_5  and  C_6 
REMARK       I    between atoms: C_6  and  N_7 
REMARK    4  A    between atoms: C_14  and  O_15 
REMARK    5  A    between atoms: C_18  and  C_19 
REMARK    6  A    between atoms: C_23  and  N_24 
REMARK    7  A    between atoms: C_31  and  C_32 
ROOT
HETATM    1  C   UNL     1      40.560 -15.940   2.555  1.00  0.00     0.106 A 
HETATM    2  C   UNL     1      41.387 -17.173   2.951  1.00  0.00     0.081 A 
HETATM    3  C   UNL     1      41.094 -17.761   4.216  1.00  0.00     0.100 C 
HETATM    4  N   UNL     1      40.833 -18.237   5.243  1.00  0.00    -0.191 NA
HETATM    5  C   UNL     1      42.311 -17.741   2.129  1.00  0.00     0.140 A 
HETATM    6  O   UNL     1      42.562 -17.246   0.840  1.00  0.00    -0.279 OA
HETATM    7  C   UNL     1      41.786 -16.252   0.430  1.00  0.00     0.175 A 
HETATM    8  C   UNL     1      40.818 -15.579   1.131  1.00  0.00     0.040 A 
HETATM    9  N   UNL     1      41.826 -15.713  -0.813  1.00  0.00    -0.256 N 
HETATM   10  H   UNL     1      42.421 -15.972  -1.591  1.00  0.00     0.191 HD
HETATM   11  N   UNL     1      40.944 -14.710  -0.970  1.00  0.00    -0.172 NA
HETATM   12  C   UNL     1      40.290 -14.631   0.207  1.00  0.00     0.099 A 
ENDROOT
BRANCH   1  13
HETATM   13  C   UNL     1      40.892 -14.729   3.430  1.00  0.00    -0.039 C 
HETATM   14  C   UNL     1      42.182 -14.462   3.937  1.00  0.00     0.048 C 
HETATM   15  C   UNL     1      42.408 -13.417   4.838  1.00  0.00     0.105 C 
HETATM   16  C   UNL     1      41.311 -12.698   5.324  1.00  0.00     0.147 C 
HETATM   17  C   UNL     1      40.041 -12.885   4.785  1.00  0.00     0.105 C 
HETATM   18  C   UNL     1      39.830 -13.900   3.850  1.00  0.00     0.048 C 
BRANCH  15  19
HETATM   19  O   UNL     1      43.644 -13.084   5.327  1.00  0.00    -0.353 OA
HETATM   20  C   UNL     1      44.215 -14.031   6.222  1.00  0.00     0.210 C 
ENDBRANCH  15  19
BRANCH  16  21
HETATM   21  O   UNL     1      41.468 -11.740   6.334  1.00  0.00    -0.256 OA
BRANCH  21  22
HETATM   22  C   UNL     1      41.344 -10.434   5.867  1.00  0.00     0.368 C 
HETATM   23  N   UNL     1      40.649  -9.624   6.750  1.00  0.00    -0.324 N 
HETATM   24  C   UNL     1      40.527  -9.911   8.178  1.00  0.00     0.154 C 
HETATM   25  C   UNL     1      40.348  -8.241   6.392  1.00  0.00     0.154 C 
HETATM   26  C   UNL     1      41.348  -8.889   8.981  1.00  0.00     0.187 C 
HETATM   27  O   UNL     1      40.961  -7.542   8.653  1.00  0.00    -0.388 OA
HETATM   28  C   UNL     1      41.167  -7.276   7.253  1.00  0.00     0.187 C 
HETATM   29  O   UNL     1      41.781 -10.019   4.796  1.00  0.00    -0.238 OA
ENDBRANCH  21  22
ENDBRANCH  16  21
BRANCH  17  30
HETATM   30  O   UNL     1      39.005 -12.119   5.253  1.00  0.00    -0.353 OA
HETATM   31  C   UNL     1      38.410 -11.349   4.209  1.00  0.00     0.210 C 
ENDBRANCH  17  30
ENDBRANCH   1  13
BRANCH   5  32
HETATM   32  N   UNL     1      43.081 -18.842   2.436  1.00  0.00    -0.282 NA
HETATM   33  H   UNL     1      43.146 -19.544   1.702  1.00  0.00     0.126 HD
HETATM   34  H   UNL     1      42.827 -19.243   3.335  1.00  0.00     0.126 HD
ENDBRANCH   5  32
BRANCH  12  35
HETATM   35  C   UNL     1      39.233 -13.638   0.395  1.00  0.00    -0.005 A 
HETATM   36  C   UNL     1      37.889 -14.014   0.523  1.00  0.00     0.015 A 
HETATM   37  C   UNL     1      36.895 -13.045   0.697  1.00  0.00     0.020 A 
HETATM   38  C   UNL     1      37.241 -11.695   0.737  1.00  0.00     0.011 A 
HETATM   39 BR   UNL     1      35.895 -10.388   0.964  1.00  0.00    -0.051 Br
HETATM   40  C   UNL     1      38.569 -11.303   0.600  1.00  0.00     0.020 A 
HETATM   41  C   UNL     1      39.560 -12.273   0.428  1.00  0.00     0.015 A 
ENDBRANCH  12  35
TORSDOF 7
ENDMDL
MODEL 10
REMARK VINA RESULT:      -6.9      3.233      7.121
REMARK  7 active torsions:
REMARK  status: ('A' for Active; 'I' for Inactive)
REMARK    1  A    between atoms: O_2  and  C_3 
REMARK    2  A    between atoms: C_4  and  O_5 
REMARK    3  A    between atoms: O_5  and  C_6 
REMARK       I    between atoms: C_6  and  N_7 
REMARK    4  A    between atoms: C_14  and  O_15 
REMARK    5  A    between atoms: C_18  and  C_19 
REMARK    6  A    between atoms: C_23  and  N_24 
REMARK    7  A    between atoms: C_31  and  C_32 
ROOT
HETATM    1  C   UNL     1      42.035 -13.544  -0.205  1.00  0.00     0.106 A 
HETATM    2  C   UNL     1      41.870 -13.477  -1.732  1.00  0.00     0.081 A 
HETATM    3  C   UNL     1      42.353 -12.301  -2.377  1.00  0.00     0.100 C 
HETATM    4  N   UNL     1      42.765 -11.344  -2.889  1.00  0.00    -0.191 NA
HETATM    5  C   UNL     1      41.356 -14.500  -2.467  1.00  0.00     0.140 A 
HETATM    6  O   UNL     1      40.953 -15.708  -1.879  1.00  0.00    -0.279 OA
HETATM    7  C   UNL     1      41.187 -15.837  -0.580  1.00  0.00     0.175 A 
HETATM    8  C   UNL     1      41.696 -14.909   0.293  1.00  0.00     0.040 A 
HETATM    9  N   UNL     1      40.949 -16.965   0.133  1.00  0.00    -0.256 N 
HETATM   10  H   UNL     1      40.577 -17.849  -0.195  1.00  0.00     0.191 HD
HETATM   11  N   UNL     1      41.260 -16.830   1.434  1.00  0.00    -0.172 NA
HETATM   12  C   UNL     1      41.753 -15.580   1.548  1.00  0.00     0.099 A 
ENDROOT
BRANCH   1  13
HETATM   13  C   UNL     1      41.138 -12.530   0.508  1.00  0.00    -0.039 C 
HETATM   14  C   UNL     1      41.625 -11.365   1.140  1.00  0.00     0.048 C 
HETATM   15  C   UNL     1      40.783 -10.539   1.890  1.00  0.00     0.105 C 
HETATM   16  C   UNL     1      39.461 -10.939   2.104  1.00  0.00     0.147 C 
HETATM   17  C   UNL     1      38.932 -12.038   1.430  1.00  0.00     0.105 C 
HETATM   18  C   UNL     1      39.767 -12.834   0.644  1.00  0.00     0.048 C 
BRANCH  15  19
HETATM   19  O   UNL     1      41.191  -9.373   2.486  1.00  0.00    -0.353 OA
HETATM   20  C   UNL     1      41.255  -8.244   1.622  1.00  0.00     0.210 C 
ENDBRANCH  15  19
BRANCH  16  21
HETATM   21  O   UNL     1      38.620 -10.222   2.964  1.00  0.00    -0.256 OA
BRANCH  21  22
HETATM   22  C   UNL     1      38.821 -10.535   4.306  1.00  0.00     0.368 C 
HETATM   23  N   UNL     1      39.254  -9.444   5.041  1.00  0.00    -0.324 N 
HETATM   24  C   UNL     1      39.027  -8.059   4.634  1.00  0.00     0.154 C 
HETATM   25  C   UNL     1      39.599  -9.602   6.450  1.00  0.00     0.154 C 
HETATM   26  C   UNL     1      38.008  -7.405   5.579  1.00  0.00     0.187 C 
HETATM   27  O   UNL     1      38.427  -7.515   6.951  1.00  0.00    -0.388 OA
HETATM   28  C   UNL     1      38.568  -8.896   7.334  1.00  0.00     0.187 C 
HETATM   29  O   UNL     1      38.651 -11.644   4.809  1.00  0.00    -0.238 OA
ENDBRANCH  21  22
ENDBRANCH  16  21
BRANCH  17  30
HETATM   30  O   UNL     1      37.615 -12.362   1.628  1.00  0.00    -0.353 OA
HETATM   31  C   UNL     1      37.176 -13.355   0.702  1.00  0.00     0.210 C 
ENDBRANCH  17  30
ENDBRANCH   1  13
BRANCH   5  32
HETATM   32  N   UNL     1      41.181 -14.490  -3.834  1.00  0.00    -0.282 NA
HETATM   33  H   UNL     1      40.241 -14.715  -4.153  1.00  0.00     0.126 HD
HETATM   34  H   UNL     1      41.894 -15.038  -4.310  1.00  0.00     0.126 HD
ENDBRANCH   5  32
BRANCH  12  35
HETATM   35  C   UNL     1      42.210 -15.086   2.847  1.00  0.00    -0.005 A 
HETATM   36  C   UNL     1      41.464 -15.295   4.015  1.00  0.00     0.015 A 
HETATM   37  C   UNL     1      41.920 -14.808   5.244  1.00  0.00     0.020 A 
HETATM   38  C   UNL     1      43.120 -14.102   5.309  1.00  0.00     0.011 A 
HETATM   39 BR   UNL     1      43.729 -13.438   6.971  1.00  0.00    -0.051 Br
HETATM   40  C   UNL     1      43.868 -13.874   4.158  1.00  0.00     0.020 A 
HETATM   41  C   UNL     1      43.412 -14.364   2.932  1.00  0.00     0.015 A 
ENDBRANCH  12  35
TORSDOF 7
ENDMDL
