MODEL 1
REMARK VINA RESULT:      -9.5      0.000      0.000
REMARK  8 active torsions:
REMARK  status: ('A' for Active; 'I' for Inactive)
REMARK    1  A    between atoms: C_7  and  S_8 
REMARK    2  A    between atoms: S_8  and  N_9 
REMARK    3  A    between atoms: N_9  and  C_10 
REMARK    4  A    between atoms: C_19  and  N_20 
REMARK    5  A    between atoms: C_25  and  N_26 
REMARK    6  A    between atoms: C_30  and  S_31 
REMARK    7  A    between atoms: S_31  and  N_32 
REMARK    8  A    between atoms: N_32  and  C_33 
ROOT
HETATM    1  C   UNL     1      42.673 -17.958   3.850  1.00  0.00     0.041 A 
HETATM    2  C   UNL     1      42.212 -17.072   2.891  1.00  0.00     0.030 A 
HETATM    3  C   UNL     1      42.183 -15.667   3.022  1.00  0.00     0.025 A 
HETATM    4  C   UNL     1      41.583 -15.107   1.798  1.00  0.00     0.025 C 
HETATM    5  C   UNL     1      41.460 -16.150   0.854  1.00  0.00     0.030 C 
HETATM    6  C   UNL     1      41.026 -15.999  -0.453  1.00  0.00     0.041 C 
HETATM    7  C   UNL     1      40.642 -14.718  -0.843  1.00  0.00     0.077 C 
HETATM    8  C   UNL     1      40.601 -13.669   0.089  1.00  0.00     0.061 C 
HETATM    9  C   UNL     1      41.060 -13.874   1.409  1.00  0.00     0.116 C 
HETATM   10  C   UNL     1      41.806 -17.415   1.519  1.00  0.00     0.194 C 
HETATM   11  O   UNL     1      41.785 -18.521   1.026  1.00  0.00    -0.287 OA
HETATM   12  C   UNL     1      42.798 -15.151   4.165  1.00  0.00     0.116 A 
HETATM   13  C   UNL     1      43.283 -16.012   5.174  1.00  0.00     0.062 A 
HETATM   14  C   UNL     1      43.211 -17.405   5.007  1.00  0.00     0.082 A 
ENDROOT
BRANCH   7  15
HETATM   15  S   UNL     1      40.092 -14.444  -2.512  1.00  0.00     0.241 S 
HETATM   16  O   UNL     1      40.876 -15.309  -3.364  1.00  0.00    -0.206 OA
HETATM   17  O   UNL     1      38.649 -14.458  -2.523  1.00  0.00    -0.206 OA
BRANCH  15  18
HETATM   18  N   UNL     1      40.653 -12.878  -2.796  1.00  0.00    -0.211 NA
HETATM   19  H   UNL     1      40.530 -12.332  -1.940  1.00  0.00     0.140 HD
BRANCH  18  20
HETATM   20  C   UNL     1      41.968 -12.685  -3.462  1.00  0.00     0.071 C 
HETATM   21  C   UNL     1      42.023 -11.383  -4.265  1.00  0.00     0.020 C 
HETATM   22  C   UNL     1      41.964 -10.139  -3.381  1.00  0.00     0.002 C 
HETATM   23  C   UNL     1      43.064 -10.156  -2.326  1.00  0.00     0.000 C 
HETATM   24  C   UNL     1      43.033 -11.437  -1.501  1.00  0.00     0.002 C 
HETATM   25  C   UNL     1      43.066 -12.685  -2.384  1.00  0.00     0.020 C 
ENDBRANCH  18  20
ENDBRANCH  15  18
ENDBRANCH   7  15
BRANCH   9  26
HETATM   26  N   UNL     1      40.793 -12.810   2.367  1.00  0.00    -0.115 N 
HETATM   27  O   UNL     1      39.919 -13.033   3.215  1.00  0.00    -0.532 OA
HETATM   28  O   UNL     1      41.419 -11.752   2.236  1.00  0.00    -0.532 OA
ENDBRANCH   9  26
BRANCH  12  29
HETATM   29  N   UNL     1      43.181 -13.750   4.267  1.00  0.00    -0.115 N 
HETATM   30  O   UNL     1      44.082 -13.365   3.509  1.00  0.00    -0.532 OA
HETATM   31  O   UNL     1      42.636 -13.066   5.141  1.00  0.00    -0.532 OA
ENDBRANCH  12  29
BRANCH  14  32
HETATM   32  S   UNL     1      43.888 -18.461   6.263  1.00  0.00     0.259 S 
HETATM   33  O   UNL     1      45.267 -18.066   6.431  1.00  0.00    -0.201 OA
HETATM   34  O   UNL     1      42.962 -18.521   7.369  1.00  0.00    -0.201 OA
BRANCH  32  35
HETATM   35  N   UNL     1      43.920 -19.958   5.487  1.00  0.00    -0.311 N 
HETATM   36  H   UNL     1      43.112 -20.032   4.864  1.00  0.00     0.172 HD
BRANCH  35  37
HETATM   37  C   UNL     1      45.198 -20.485   4.952  1.00  0.00     0.093 C 
HETATM   38  C   UNL     1      45.308 -22.002   5.129  1.00  0.00     0.026 C 
HETATM   39  C   UNL     1      44.292 -22.771   4.285  1.00  0.00     0.002 C 
HETATM   40  C   UNL     1      44.404 -22.399   2.810  1.00  0.00     0.000 C 
HETATM   41  C   UNL     1      44.299 -20.893   2.595  1.00  0.00     0.002 C 
HETATM   42  C   UNL     1      45.296 -20.123   3.461  1.00  0.00     0.026 C 
ENDBRANCH  35  37
ENDBRANCH  32  35
ENDBRANCH  14  32
TORSDOF 8
ENDMDL
MODEL 2
REMARK VINA RESULT:      -9.4      2.327      2.903
REMARK  8 active torsions:
REMARK  status: ('A' for Active; 'I' for Inactive)
REMARK    1  A    between atoms: C_7  and  S_8 
REMARK    2  A    between atoms: S_8  and  N_9 
REMARK    3  A    between atoms: N_9  and  C_10 
REMARK    4  A    between atoms: C_19  and  N_20 
REMARK    5  A    between atoms: C_25  and  N_26 
REMARK    6  A    between atoms: C_30  and  S_31 
REMARK    7  A    between atoms: S_31  and  N_32 
REMARK    8  A    between atoms: N_32  and  C_33 
ROOT
HETATM    1  C   UNL     1      42.246 -17.801   4.551  1.00  0.00     0.041 A 
HETATM    2  C   UNL     1      41.631 -16.716   3.949  1.00  0.00     0.030 A 
HETATM    3  C   UNL     1      41.838 -15.363   4.294  1.00  0.00     0.025 A 
HETATM    4  C   UNL     1      40.964 -14.537   3.443  1.00  0.00     0.025 C 
HETATM    5  C   UNL     1      40.406 -15.369   2.449  1.00  0.00     0.030 C 
HETATM    6  C   UNL     1      39.606 -14.940   1.402  1.00  0.00     0.041 C 
HETATM    7  C   UNL     1      39.298 -13.582   1.363  1.00  0.00     0.077 C 
HETATM    8  C   UNL     1      39.699 -12.728   2.403  1.00  0.00     0.061 C 
HETATM    9  C   UNL     1      40.519 -13.214   3.444  1.00  0.00     0.116 C 
HETATM   10  C   UNL     1      40.769 -16.760   2.758  1.00  0.00     0.194 C 
HETATM   11  O   UNL     1      40.441 -17.748   2.139  1.00  0.00    -0.287 OA
HETATM   12  C   UNL     1      42.848 -15.122   5.228  1.00  0.00     0.116 A 
HETATM   13  C   UNL     1      43.505 -16.194   5.873  1.00  0.00     0.062 A 
HETATM   14  C   UNL     1      43.193 -17.521   5.530  1.00  0.00     0.082 A 
ENDROOT
BRANCH   7  15
HETATM   15  S   UNL     1      38.291 -12.955   0.038  1.00  0.00     0.241 S 
HETATM   16  O   UNL     1      36.912 -13.125   0.437  1.00  0.00    -0.206 OA
HETATM   17  O   UNL     1      38.821 -11.676  -0.369  1.00  0.00    -0.206 OA
BRANCH  15  18
HETATM   18  N   UNL     1      38.571 -14.103  -1.167  1.00  0.00    -0.211 NA
HETATM   19  H   UNL     1      37.783 -14.755  -1.179  1.00  0.00     0.140 HD
BRANCH  18  20
HETATM   20  C   UNL     1      39.015 -13.653  -2.512  1.00  0.00     0.071 C 
HETATM   21  C   UNL     1      40.307 -14.344  -2.955  1.00  0.00     0.020 C 
HETATM   22  C   UNL     1      40.126 -15.841  -3.199  1.00  0.00     0.002 C 
HETATM   23  C   UNL     1      39.012 -16.107  -4.206  1.00  0.00     0.000 C 
HETATM   24  C   UNL     1      37.706 -15.439  -3.791  1.00  0.00     0.002 C 
HETATM   25  C   UNL     1      37.891 -13.945  -3.521  1.00  0.00     0.020 C 
ENDBRANCH  18  20
ENDBRANCH  15  18
ENDBRANCH   7  15
BRANCH   9  26
HETATM   26  N   UNL     1      40.718 -12.333   4.586  1.00  0.00    -0.115 N 
HETATM   27  O   UNL     1      40.141 -12.644   5.636  1.00  0.00    -0.532 OA
HETATM   28  O   UNL     1      41.405 -11.319   4.414  1.00  0.00    -0.532 OA
ENDBRANCH   9  26
BRANCH  12  29
HETATM   29  N   UNL     1      43.433 -13.800   5.407  1.00  0.00    -0.115 N 
HETATM   30  O   UNL     1      44.075 -13.345   4.451  1.00  0.00    -0.532 OA
HETATM   31  O   UNL     1      43.307 -13.261   6.512  1.00  0.00    -0.532 OA
ENDBRANCH  12  29
BRANCH  14  32
HETATM   32  S   UNL     1      44.082 -18.845   6.309  1.00  0.00     0.259 S 
HETATM   33  O   UNL     1      45.467 -18.437   6.358  1.00  0.00    -0.201 OA
HETATM   34  O   UNL     1      43.358 -19.260   7.488  1.00  0.00    -0.201 OA
BRANCH  32  35
HETATM   35  N   UNL     1      43.991 -20.064   5.147  1.00  0.00    -0.311 N 
HETATM   36  H   UNL     1      43.057 -20.062   4.729  1.00  0.00     0.172 HD
BRANCH  35  37
HETATM   37  C   UNL     1      45.119 -20.273   4.208  1.00  0.00     0.093 C 
HETATM   38  C   UNL     1      45.441 -21.759   4.026  1.00  0.00     0.026 C 
HETATM   39  C   UNL     1      44.321 -22.525   3.323  1.00  0.00     0.002 C 
HETATM   40  C   UNL     1      43.974 -21.889   1.980  1.00  0.00     0.000 C 
HETATM   41  C   UNL     1      43.646 -20.406   2.123  1.00  0.00     0.002 C 
HETATM   42  C   UNL     1      44.754 -19.646   2.852  1.00  0.00     0.026 C 
ENDBRANCH  35  37
ENDBRANCH  32  35
ENDBRANCH  14  32
TORSDOF 8
ENDMDL
MODEL 3
REMARK VINA RESULT:      -9.1      2.151      8.561
REMARK  8 active torsions:
REMARK  status: ('A' for Active; 'I' for Inactive)
REMARK    1  A    between atoms: C_7  and  S_8 
REMARK    2  A    between atoms: S_8  and  N_9 
REMARK    3  A    between atoms: N_9  and  C_10 
REMARK    4  A    between atoms: C_19  and  N_20 
REMARK    5  A    between atoms: C_25  and  N_26 
REMARK    6  A    between atoms: C_30  and  S_31 
REMARK    7  A    between atoms: S_31  and  N_32 
REMARK    8  A    between atoms: N_32  and  C_33 
ROOT
HETATM    1  C   UNL     1      39.582 -15.037   1.391  1.00  0.00     0.041 A 
HETATM    2  C   UNL     1      40.461 -15.424   2.389  1.00  0.00     0.030 A 
HETATM    3  C   UNL     1      40.995 -14.574   3.382  1.00  0.00     0.025 A 
HETATM    4  C   UNL     1      41.914 -15.369   4.216  1.00  0.00     0.025 C 
HETATM    5  C   UNL     1      41.761 -16.727   3.864  1.00  0.00     0.030 C 
HETATM    6  C   UNL     1      42.386 -17.792   4.493  1.00  0.00     0.041 C 
HETATM    7  C   UNL     1      43.266 -17.482   5.526  1.00  0.00     0.077 C 
HETATM    8  C   UNL     1      43.575 -16.146   5.825  1.00  0.00     0.061 C 
HETATM    9  C   UNL     1      42.906 -15.096   5.159  1.00  0.00     0.116 C 
HETATM   10  C   UNL     1      40.884 -16.801   2.686  1.00  0.00     0.194 C 
HETATM   11  O   UNL     1      40.554 -17.802   2.091  1.00  0.00    -0.287 OA
HETATM   12  C   UNL     1      40.474 -13.279   3.418  1.00  0.00     0.116 A 
HETATM   13  C   UNL     1      39.576 -12.834   2.422  1.00  0.00     0.062 A 
HETATM   14  C   UNL     1      39.144 -13.718   1.418  1.00  0.00     0.082 A 
ENDROOT
BRANCH   7  15
HETATM   15  S   UNL     1      44.091 -18.799   6.392  1.00  0.00     0.241 S 
HETATM   16  O   UNL     1      45.489 -18.441   6.476  1.00  0.00    -0.206 OA
HETATM   17  O   UNL     1      43.312 -19.131   7.562  1.00  0.00    -0.206 OA
BRANCH  15  18
HETATM   18  N   UNL     1      43.997 -20.051   5.265  1.00  0.00    -0.211 NA
HETATM   19  H   UNL     1      43.121 -19.951   4.746  1.00  0.00     0.140 HD
BRANCH  18  20
HETATM   20  C   UNL     1      45.179 -20.360   4.419  1.00  0.00     0.071 C 
HETATM   21  C   UNL     1      45.457 -21.863   4.341  1.00  0.00     0.020 C 
HETATM   22  C   UNL     1      44.364 -22.630   3.599  1.00  0.00     0.002 C 
HETATM   23  C   UNL     1      44.140 -22.061   2.202  1.00  0.00     0.000 C 
HETATM   24  C   UNL     1      43.852 -20.565   2.244  1.00  0.00     0.002 C 
HETATM   25  C   UNL     1      44.930 -19.797   3.009  1.00  0.00     0.020 C 
ENDBRANCH  18  20
ENDBRANCH  15  18
ENDBRANCH   7  15
BRANCH   9  26
HETATM   26  N   UNL     1      43.423 -13.752   5.370  1.00  0.00    -0.115 N 
HETATM   27  O   UNL     1      44.029 -13.234   4.422  1.00  0.00    -0.532 OA
HETATM   28  O   UNL     1      43.264 -13.245   6.487  1.00  0.00    -0.532 OA
ENDBRANCH   9  26
BRANCH  12  29
HETATM   29  N   UNL     1      40.632 -12.416   4.581  1.00  0.00    -0.115 N 
HETATM   30  O   UNL     1      40.061 -12.777   5.619  1.00  0.00    -0.532 OA
HETATM   31  O   UNL     1      41.260 -11.362   4.434  1.00  0.00    -0.532 OA
ENDBRANCH  12  29
BRANCH  14  32
HETATM   32  S   UNL     1      37.964 -13.150   0.218  1.00  0.00     0.259 S 
HETATM   33  O   UNL     1      36.669 -13.599   0.674  1.00  0.00    -0.201 OA
HETATM   34  O   UNL     1      38.240 -11.766  -0.085  1.00  0.00    -0.201 OA
BRANCH  32  35
HETATM   35  N   UNL     1      38.344 -14.096  -1.125  1.00  0.00    -0.311 N 
HETATM   36  H   UNL     1      37.524 -14.645  -1.395  1.00  0.00     0.172 HD
BRANCH  35  37
HETATM   37  C   UNL     1      39.125 -13.512  -2.242  1.00  0.00     0.093 C 
HETATM   38  C   UNL     1      40.624 -13.476  -1.932  1.00  0.00     0.026 C 
HETATM   39  C   UNL     1      41.241 -14.871  -1.833  1.00  0.00     0.002 C 
HETATM   40  C   UNL     1      40.980 -15.682  -3.099  1.00  0.00     0.000 C 
HETATM   41  C   UNL     1      39.494 -15.740  -3.440  1.00  0.00     0.002 C 
HETATM   42  C   UNL     1      38.872 -14.346  -3.510  1.00  0.00     0.026 C 
ENDBRANCH  35  37
ENDBRANCH  32  35
ENDBRANCH  14  32
TORSDOF 8
ENDMDL
MODEL 4
REMARK VINA RESULT:      -9.0      0.670      9.064
REMARK  8 active torsions:
REMARK  status: ('A' for Active; 'I' for Inactive)
REMARK    1  A    between atoms: C_7  and  S_8 
REMARK    2  A    between atoms: S_8  and  N_9 
REMARK    3  A    between atoms: N_9  and  C_10 
REMARK    4  A    between atoms: C_19  and  N_20 
REMARK    5  A    between atoms: C_25  and  N_26 
REMARK    6  A    between atoms: C_30  and  S_31 
REMARK    7  A    between atoms: S_31  and  N_32 
REMARK    8  A    between atoms: N_32  and  C_33 
ROOT
HETATM    1  C   UNL     1      41.692 -15.686  -0.667  1.00  0.00     0.041 A 
HETATM    2  C   UNL     1      42.002 -15.893   0.667  1.00  0.00     0.030 A 
HETATM    3  C   UNL     1      41.557 -15.094   1.743  1.00  0.00     0.025 A 
HETATM    4  C   UNL     1      42.145 -15.631   2.982  1.00  0.00     0.025 C 
HETATM    5  C   UNL     1      42.755 -16.867   2.679  1.00  0.00     0.030 C 
HETATM    6  C   UNL     1      43.333 -17.722   3.603  1.00  0.00     0.041 C 
HETATM    7  C   UNL     1      43.347 -17.298   4.929  1.00  0.00     0.077 C 
HETATM    8  C   UNL     1      42.891 -16.015   5.273  1.00  0.00     0.061 C 
HETATM    9  C   UNL     1      42.304 -15.184   4.295  1.00  0.00     0.116 C 
HETATM   10  C   UNL     1      42.723 -17.049   1.220  1.00  0.00     0.194 C 
HETATM   11  O   UNL     1      43.181 -17.981   0.597  1.00  0.00    -0.287 OA
HETATM   12  C   UNL     1      40.624 -14.106   1.420  1.00  0.00     0.116 A 
HETATM   13  C   UNL     1      40.275 -13.854   0.074  1.00  0.00     0.062 A 
HETATM   14  C   UNL     1      40.817 -14.644  -0.954  1.00  0.00     0.082 A 
ENDROOT
BRANCH   7  15
HETATM   15  S   UNL     1      44.056 -18.352   6.174  1.00  0.00     0.241 S 
HETATM   16  O   UNL     1      45.457 -18.009   6.270  1.00  0.00    -0.206 OA
HETATM   17  O   UNL     1      43.183 -18.347   7.323  1.00  0.00    -0.206 OA
BRANCH  15  18
HETATM   18  N   UNL     1      43.996 -19.857   5.412  1.00  0.00    -0.211 NA
HETATM   19  H   UNL     1      43.241 -19.837   4.722  1.00  0.00     0.140 HD
BRANCH  18  20
HETATM   20  C   UNL     1      45.256 -20.477   4.925  1.00  0.00     0.071 C 
HETATM   21  C   UNL     1      45.290 -21.986   5.175  1.00  0.00     0.020 C 
HETATM   22  C   UNL     1      44.256 -22.749   4.349  1.00  0.00     0.002 C 
HETATM   23  C   UNL     1      44.412 -22.457   2.861  1.00  0.00     0.000 C 
HETATM   24  C   UNL     1      44.374 -20.960   2.574  1.00  0.00     0.002 C 
HETATM   25  C   UNL     1      45.390 -20.191   3.419  1.00  0.00     0.020 C 
ENDBRANCH  18  20
ENDBRANCH  15  18
ENDBRANCH   7  15
BRANCH   9  26
HETATM   26  N   UNL     1      42.050 -13.802   4.677  1.00  0.00    -0.115 N 
HETATM   27  O   UNL     1      42.758 -12.938   4.144  1.00  0.00    -0.532 OA
HETATM   28  O   UNL     1      41.183 -13.596   5.535  1.00  0.00    -0.532 OA
ENDBRANCH   9  26
BRANCH  12  29
HETATM   29  N   UNL     1      39.801 -13.464   2.435  1.00  0.00    -0.115 N 
HETATM   30  O   UNL     1      39.031 -14.197   3.070  1.00  0.00    -0.532 OA
HETATM   31  O   UNL     1      39.876 -12.235   2.544  1.00  0.00    -0.532 OA
ENDBRANCH  12  29
BRANCH  14  32
HETATM   32  S   UNL     1      40.310 -14.347  -2.629  1.00  0.00     0.259 S 
HETATM   33  O   UNL     1      41.120 -15.207  -3.461  1.00  0.00    -0.201 OA
HETATM   34  O   UNL     1      38.867 -14.354  -2.685  1.00  0.00    -0.201 OA
BRANCH  32  35
HETATM   35  N   UNL     1      40.865 -12.777  -2.893  1.00  0.00    -0.311 N 
HETATM   36  H   UNL     1      40.523 -12.168  -2.147  1.00  0.00     0.172 HD
BRANCH  35  37
HETATM   37  C   UNL     1      42.269 -12.553  -3.317  1.00  0.00     0.093 C 
HETATM   38  C   UNL     1      42.391 -11.372  -4.283  1.00  0.00     0.026 C 
HETATM   39  C   UNL     1      42.060 -10.033  -3.625  1.00  0.00     0.002 C 
HETATM   40  C   UNL     1      42.921  -9.797  -2.388  1.00  0.00     0.000 C 
HETATM   41  C   UNL     1      42.823 -10.955  -1.400  1.00  0.00     0.002 C 
HETATM   42  C   UNL     1      43.126 -12.298  -2.065  1.00  0.00     0.026 C 
ENDBRANCH  35  37
ENDBRANCH  32  35
ENDBRANCH  14  32
TORSDOF 8
ENDMDL
MODEL 5
REMARK VINA RESULT:      -8.7      5.537      9.439
REMARK  8 active torsions:
REMARK  status: ('A' for Active; 'I' for Inactive)
REMARK    1  A    between atoms: C_7  and  S_8 
REMARK    2  A    between atoms: S_8  and  N_9 
REMARK    3  A    between atoms: N_9  and  C_10 
REMARK    4  A    between atoms: C_19  and  N_20 
REMARK    5  A    between atoms: C_25  and  N_26 
REMARK    6  A    between atoms: C_30  and  S_31 
REMARK    7  A    between atoms: S_31  and  N_32 
REMARK    8  A    between atoms: N_32  and  C_33 
ROOT
HETATM    1  C   UNL     1      42.427 -14.277   3.915  1.00  0.00     0.041 A 
HETATM    2  C   UNL     1      42.614 -13.545   5.075  1.00  0.00     0.030 A 
HETATM    3  C   UNL     1      41.685 -12.638   5.629  1.00  0.00     0.025 A 
HETATM    4  C   UNL     1      42.290 -12.044   6.834  1.00  0.00     0.025 C 
HETATM    5  C   UNL     1      43.476 -12.752   7.123  1.00  0.00     0.030 C 
HETATM    6  C   UNL     1      44.277 -12.552   8.236  1.00  0.00     0.041 C 
HETATM    7  C   UNL     1      43.894 -11.539   9.111  1.00  0.00     0.077 C 
HETATM    8  C   UNL     1      42.809 -10.702   8.804  1.00  0.00     0.061 C 
HETATM    9  C   UNL     1      42.020 -10.952   7.660  1.00  0.00     0.116 C 
HETATM   10  C   UNL     1      43.739 -13.680   6.013  1.00  0.00     0.194 C 
HETATM   11  O   UNL     1      44.686 -14.428   5.903  1.00  0.00    -0.287 OA
HETATM   12  C   UNL     1      40.433 -12.597   5.010  1.00  0.00     0.116 A 
HETATM   13  C   UNL     1      40.191 -13.324   3.823  1.00  0.00     0.062 A 
HETATM   14  C   UNL     1      41.192 -14.152   3.287  1.00  0.00     0.082 A 
ENDROOT
BRANCH   7  15
HETATM   15  S   UNL     1      44.863 -11.236  10.571  1.00  0.00     0.241 S 
HETATM   16  O   UNL     1      44.883 -12.467  11.329  1.00  0.00    -0.206 OA
HETATM   17  O   UNL     1      46.074 -10.555  10.179  1.00  0.00    -0.206 OA
BRANCH  15  18
HETATM   18  N   UNL     1      43.861 -10.180  11.425  1.00  0.00    -0.211 NA
HETATM   19  H   UNL     1      43.195  -9.768  10.767  1.00  0.00     0.140 HD
BRANCH  18  20
HETATM   20  C   UNL     1      43.259 -10.626  12.708  1.00  0.00     0.071 C 
HETATM   21  C   UNL     1      43.270  -9.519  13.766  1.00  0.00     0.020 C 
HETATM   22  C   UNL     1      42.354  -8.350  13.410  1.00  0.00     0.002 C 
HETATM   23  C   UNL     1      40.927  -8.821  13.154  1.00  0.00     0.000 C 
HETATM   24  C   UNL     1      40.879  -9.920  12.098  1.00  0.00     0.002 C 
HETATM   25  C   UNL     1      41.814 -11.080  12.438  1.00  0.00     0.020 C 
ENDBRANCH  18  20
ENDBRANCH  15  18
ENDBRANCH   7  15
BRANCH   9  26
HETATM   26  N   UNL     1      41.051  -9.928   7.296  1.00  0.00    -0.115 N 
HETATM   27  O   UNL     1      41.293  -9.272   6.275  1.00  0.00    -0.532 OA
HETATM   28  O   UNL     1      40.088  -9.757   8.053  1.00  0.00    -0.532 OA
ENDBRANCH   9  26
BRANCH  12  29
HETATM   29  N   UNL     1      39.269 -12.016   5.664  1.00  0.00    -0.115 N 
HETATM   30  O   UNL     1      38.896 -12.556   6.714  1.00  0.00    -0.532 OA
HETATM   31  O   UNL     1      38.699 -11.078   5.096  1.00  0.00    -0.532 OA
ENDBRANCH  12  29
BRANCH  14  32
HETATM   32  S   UNL     1      40.837 -15.104   1.831  1.00  0.00     0.259 S 
HETATM   33  O   UNL     1      39.570 -15.757   2.068  1.00  0.00    -0.201 OA
HETATM   34  O   UNL     1      41.077 -14.282   0.669  1.00  0.00    -0.201 OA
BRANCH  32  35
HETATM   35  N   UNL     1      42.010 -16.313   1.905  1.00  0.00    -0.311 N 
HETATM   36  H   UNL     1      42.860 -15.934   2.329  1.00  0.00     0.172 HD
BRANCH  35  37
HETATM   37  C   UNL     1      41.632 -17.683   2.330  1.00  0.00     0.093 C 
HETATM   38  C   UNL     1      42.507 -18.749   1.664  1.00  0.00     0.026 C 
HETATM   39  C   UNL     1      43.964 -18.686   2.119  1.00  0.00     0.002 C 
HETATM   40  C   UNL     1      44.074 -18.783   3.638  1.00  0.00     0.000 C 
HETATM   41  C   UNL     1      43.215 -17.734   4.337  1.00  0.00     0.002 C 
HETATM   42  C   UNL     1      41.763 -17.778   3.860  1.00  0.00     0.026 C 
ENDBRANCH  35  37
ENDBRANCH  32  35
ENDBRANCH  14  32
TORSDOF 8
ENDMDL
MODEL 6
REMARK VINA RESULT:      -8.2      3.321      5.808
REMARK  8 active torsions:
REMARK  status: ('A' for Active; 'I' for Inactive)
REMARK    1  A    between atoms: C_7  and  S_8 
REMARK    2  A    between atoms: S_8  and  N_9 
REMARK    3  A    between atoms: N_9  and  C_10 
REMARK    4  A    between atoms: C_19  and  N_20 
REMARK    5  A    between atoms: C_25  and  N_26 
REMARK    6  A    between atoms: C_30  and  S_31 
REMARK    7  A    between atoms: S_31  and  N_32 
REMARK    8  A    between atoms: N_32  and  C_33 
ROOT
HETATM    1  C   UNL     1      43.354 -13.299   5.142  1.00  0.00     0.041 A 
HETATM    2  C   UNL     1      42.799 -13.754   3.957  1.00  0.00     0.030 A 
HETATM    3  C   UNL     1      42.757 -15.102   3.539  1.00  0.00     0.025 A 
HETATM    4  C   UNL     1      42.123 -15.147   2.210  1.00  0.00     0.025 C 
HETATM    5  C   UNL     1      41.592 -13.868   1.934  1.00  0.00     0.030 C 
HETATM    6  C   UNL     1      40.837 -13.538   0.820  1.00  0.00     0.041 C 
HETATM    7  C   UNL     1      40.627 -14.546  -0.117  1.00  0.00     0.077 C 
HETATM    8  C   UNL     1      41.252 -15.795   0.025  1.00  0.00     0.061 C 
HETATM    9  C   UNL     1      42.007 -16.084   1.183  1.00  0.00     0.116 C 
HETATM   10  C   UNL     1      42.034 -12.949   2.993  1.00  0.00     0.194 C 
HETATM   11  O   UNL     1      41.794 -11.764   3.070  1.00  0.00    -0.287 OA
HETATM   12  C   UNL     1      43.194 -16.042   4.474  1.00  0.00     0.116 A 
HETATM   13  C   UNL     1      43.769 -15.630   5.698  1.00  0.00     0.062 A 
HETATM   14  C   UNL     1      43.846 -14.263   6.015  1.00  0.00     0.082 A 
ENDROOT
BRANCH   7  15
HETATM   15  S   UNL     1      39.652 -14.201  -1.564  1.00  0.00     0.241 S 
HETATM   16  O   UNL     1      40.021 -15.176  -2.566  1.00  0.00    -0.206 OA
HETATM   17  O   UNL     1      38.282 -14.004  -1.152  1.00  0.00    -0.206 OA
BRANCH  15  18
HETATM   18  N   UNL     1      40.315 -12.735  -2.073  1.00  0.00    -0.211 NA
HETATM   19  H   UNL     1      40.488 -12.157  -1.247  1.00  0.00     0.140 HD
BRANCH  18  20
HETATM   20  C   UNL     1      41.428 -12.743  -3.059  1.00  0.00     0.071 C 
HETATM   21  C   UNL     1      41.377 -11.534  -3.996  1.00  0.00     0.020 C 
HETATM   22  C   UNL     1      41.642 -10.214  -3.274  1.00  0.00     0.002 C 
HETATM   23  C   UNL     1      42.970 -10.248  -2.527  1.00  0.00     0.000 C 
HETATM   24  C   UNL     1      43.051 -11.438  -1.577  1.00  0.00     0.002 C 
HETATM   25  C   UNL     1      42.761 -12.758  -2.291  1.00  0.00     0.020 C 
ENDBRANCH  18  20
ENDBRANCH  15  18
ENDBRANCH   7  15
BRANCH   9  26
HETATM   26  N   UNL     1      42.790 -17.311   1.164  1.00  0.00    -0.115 N 
HETATM   27  O   UNL     1      42.164 -18.373   1.276  1.00  0.00    -0.532 OA
HETATM   28  O   UNL     1      44.020 -17.204   1.086  1.00  0.00    -0.532 OA
ENDBRANCH   9  26
BRANCH  12  29
HETATM   29  N   UNL     1      42.871 -17.457   4.353  1.00  0.00    -0.115 N 
HETATM   30  O   UNL     1      41.676 -17.764   4.458  1.00  0.00    -0.532 OA
HETATM   31  O   UNL     1      43.809 -18.252   4.225  1.00  0.00    -0.532 OA
ENDBRANCH  12  29
BRANCH  14  32
HETATM   32  S   UNL     1      44.514 -13.779   7.587  1.00  0.00     0.259 S 
HETATM   33  O   UNL     1      44.263 -14.875   8.494  1.00  0.00    -0.201 OA
HETATM   34  O   UNL     1      45.835 -13.233   7.382  1.00  0.00    -0.201 OA
BRANCH  32  35
HETATM   35  N   UNL     1      43.469 -12.538   8.047  1.00  0.00    -0.311 N 
HETATM   36  H   UNL     1      42.633 -12.942   8.476  1.00  0.00     0.172 HD
BRANCH  35  37
HETATM   37  C   UNL     1      44.009 -11.324   8.706  1.00  0.00     0.093 C 
HETATM   38  C   UNL     1      42.894 -10.420   9.238  1.00  0.00     0.026 C 
HETATM   39  C   UNL     1      42.113 -11.059  10.385  1.00  0.00     0.002 C 
HETATM   40  C   UNL     1      43.042 -11.481  11.520  1.00  0.00     0.000 C 
HETATM   41  C   UNL     1      44.167 -12.385  11.026  1.00  0.00     0.002 C 
HETATM   42  C   UNL     1      44.930 -11.757   9.859  1.00  0.00     0.026 C 
ENDBRANCH  35  37
ENDBRANCH  32  35
ENDBRANCH  14  32
TORSDOF 8
ENDMDL
MODEL 7
REMARK VINA RESULT:      -8.2      4.173      7.499
REMARK  8 active torsions:
REMARK  status: ('A' for Active; 'I' for Inactive)
REMARK    1  A    between atoms: C_7  and  S_8 
REMARK    2  A    between atoms: S_8  and  N_9 
REMARK    3  A    between atoms: N_9  and  C_10 
REMARK    4  A    between atoms: C_19  and  N_20 
REMARK    5  A    between atoms: C_25  and  N_26 
REMARK    6  A    between atoms: C_30  and  S_31 
REMARK    7  A    between atoms: S_31  and  N_32 
REMARK    8  A    between atoms: N_32  and  C_33 
ROOT
HETATM    1  C   UNL     1      43.375 -16.700   4.152  1.00  0.00     0.041 A 
HETATM    2  C   UNL     1      42.833 -15.463   4.459  1.00  0.00     0.030 A 
HETATM    3  C   UNL     1      41.915 -14.751   3.657  1.00  0.00     0.025 A 
HETATM    4  C   UNL     1      41.626 -13.470   4.325  1.00  0.00     0.025 C 
HETATM    5  C   UNL     1      42.189 -13.512   5.618  1.00  0.00     0.030 C 
HETATM    6  C   UNL     1      42.048 -12.530   6.585  1.00  0.00     0.041 C 
HETATM    7  C   UNL     1      41.325 -11.395   6.227  1.00  0.00     0.077 C 
HETATM    8  C   UNL     1      40.865 -11.227   4.911  1.00  0.00     0.061 C 
HETATM    9  C   UNL     1      41.030 -12.260   3.963  1.00  0.00     0.116 C 
HETATM   10  C   UNL     1      42.996 -14.736   5.727  1.00  0.00     0.194 C 
HETATM   11  O   UNL     1      43.649 -15.090   6.684  1.00  0.00    -0.287 OA
HETATM   12  C   UNL     1      41.432 -15.430   2.537  1.00  0.00     0.116 A 
HETATM   13  C   UNL     1      41.953 -16.694   2.179  1.00  0.00     0.062 A 
HETATM   14  C   UNL     1      42.922 -17.312   2.988  1.00  0.00     0.082 A 
ENDROOT
BRANCH   7  15
HETATM   15  S   UNL     1      41.085 -10.101   7.423  1.00  0.00     0.241 S 
HETATM   16  O   UNL     1      41.963  -9.014   7.053  1.00  0.00    -0.206 OA
HETATM   17  O   UNL     1      39.666  -9.913   7.611  1.00  0.00    -0.206 OA
BRANCH  15  18
HETATM   18  N   UNL     1      41.760 -10.795   8.806  1.00  0.00    -0.211 NA
HETATM   19  H   UNL     1      42.224 -11.666   8.535  1.00  0.00     0.140 HD
BRANCH  18  20
HETATM   20  C   UNL     1      42.548  -9.945   9.737  1.00  0.00     0.071 C 
HETATM   21  C   UNL     1      41.826  -9.726  11.069  1.00  0.00     0.020 C 
HETATM   22  C   UNL     1      41.696 -11.007  11.890  1.00  0.00     0.002 C 
HETATM   23  C   UNL     1      43.056 -11.654  12.126  1.00  0.00     0.000 C 
HETATM   24  C   UNL     1      43.800 -11.895  10.817  1.00  0.00     0.002 C 
HETATM   25  C   UNL     1      43.909 -10.620   9.981  1.00  0.00     0.020 C 
ENDBRANCH  18  20
ENDBRANCH  15  18
ENDBRANCH   7  15
BRANCH   9  26
HETATM   26  N   UNL     1      40.720 -11.935   2.579  1.00  0.00    -0.115 N 
HETATM   27  O   UNL     1      41.678 -11.852   1.799  1.00  0.00    -0.532 OA
HETATM   28  O   UNL     1      39.536 -11.719   2.293  1.00  0.00    -0.532 OA
ENDBRANCH   9  26
BRANCH  12  29
HETATM   29  N   UNL     1      40.231 -15.001   1.834  1.00  0.00    -0.115 N 
HETATM   30  O   UNL     1      40.379 -14.624   0.664  1.00  0.00    -0.532 OA
HETATM   31  O   UNL     1      39.171 -14.976   2.469  1.00  0.00    -0.532 OA
ENDBRANCH  12  29
BRANCH  14  32
HETATM   32  S   UNL     1      43.510 -18.928   2.549  1.00  0.00     0.259 S 
HETATM   33  O   UNL     1      42.482 -19.530   1.731  1.00  0.00    -0.201 OA
HETATM   34  O   UNL     1      44.881 -18.820   2.110  1.00  0.00    -0.201 OA
BRANCH  32  35
HETATM   35  N   UNL     1      43.466 -19.735   4.029  1.00  0.00    -0.311 N 
HETATM   36  H   UNL     1      42.843 -20.543   3.955  1.00  0.00     0.172 HD
BRANCH  35  37
HETATM   37  C   UNL     1      44.721 -19.954   4.788  1.00  0.00     0.093 C 
HETATM   38  C   UNL     1      44.948 -18.866   5.841  1.00  0.00     0.026 C 
HETATM   39  C   UNL     1      43.911 -18.903   6.962  1.00  0.00     0.002 C 
HETATM   40  C   UNL     1      43.859 -20.277   7.623  1.00  0.00     0.000 C 
HETATM   41  C   UNL     1      43.632 -21.389   6.602  1.00  0.00     0.002 C 
HETATM   42  C   UNL     1      44.653 -21.333   5.465  1.00  0.00     0.026 C 
ENDBRANCH  35  37
ENDBRANCH  32  35
ENDBRANCH  14  32
TORSDOF 8
ENDMDL
MODEL 8
REMARK VINA RESULT:      -8.1      2.182      9.365
REMARK  8 active torsions:
REMARK  status: ('A' for Active; 'I' for Inactive)
REMARK    1  A    between atoms: C_7  and  S_8 
REMARK    2  A    between atoms: S_8  and  N_9 
REMARK    3  A    between atoms: N_9  and  C_10 
REMARK    4  A    between atoms: C_19  and  N_20 
REMARK    5  A    between atoms: C_25  and  N_26 
REMARK    6  A    between atoms: C_30  and  S_31 
REMARK    7  A    between atoms: S_31  and  N_32 
REMARK    8  A    between atoms: N_32  and  C_33 
ROOT
HETATM    1  C   UNL     1      41.054 -11.545   3.331  1.00  0.00     0.041 A 
HETATM    2  C   UNL     1      41.400 -12.865   3.569  1.00  0.00     0.030 A 
HETATM    3  C   UNL     1      41.246 -13.929   2.654  1.00  0.00     0.025 A 
HETATM    4  C   UNL     1      41.695 -15.167   3.314  1.00  0.00     0.025 C 
HETATM    5  C   UNL     1      42.319 -14.813   4.530  1.00  0.00     0.030 C 
HETATM    6  C   UNL     1      42.956 -15.694   5.389  1.00  0.00     0.041 C 
HETATM    7  C   UNL     1      42.935 -17.041   5.035  1.00  0.00     0.077 C 
HETATM    8  C   UNL     1      42.205 -17.475   3.917  1.00  0.00     0.061 C 
HETATM    9  C   UNL     1      41.578 -16.536   3.070  1.00  0.00     0.116 C 
HETATM   10  C   UNL     1      42.117 -13.373   4.748  1.00  0.00     0.194 C 
HETATM   11  O   UNL     1      42.489 -12.726   5.702  1.00  0.00    -0.287 OA
HETATM   12  C   UNL     1      40.834 -13.570   1.368  1.00  0.00     0.116 A 
HETATM   13  C   UNL     1      40.468 -12.237   1.074  1.00  0.00     0.062 A 
HETATM   14  C   UNL     1      40.578 -11.242   2.060  1.00  0.00     0.082 A 
ENDROOT
BRANCH   7  15
HETATM   15  S   UNL     1      43.748 -18.229   6.080  1.00  0.00     0.241 S 
HETATM   16  O   UNL     1      45.126 -17.812   6.203  1.00  0.00    -0.206 OA
HETATM   17  O   UNL     1      42.912 -18.467   7.233  1.00  0.00    -0.206 OA
BRANCH  15  18
HETATM   18  N   UNL     1      43.760 -19.594   5.088  1.00  0.00    -0.211 NA
HETATM   19  H   UNL     1      42.966 -19.532   4.446  1.00  0.00     0.140 HD
BRANCH  18  20
HETATM   20  C   UNL     1      45.034 -20.017   4.448  1.00  0.00     0.071 C 
HETATM   21  C   UNL     1      45.388 -21.470   4.774  1.00  0.00     0.020 C 
HETATM   22  C   UNL     1      44.411 -22.471   4.159  1.00  0.00     0.002 C 
HETATM   23  C   UNL     1      44.298 -22.280   2.651  1.00  0.00     0.000 C 
HETATM   24  C   UNL     1      43.938 -20.843   2.291  1.00  0.00     0.002 C 
HETATM   25  C   UNL     1      44.899 -19.838   2.926  1.00  0.00     0.020 C 
ENDBRANCH  18  20
ENDBRANCH  15  18
ENDBRANCH   7  15
BRANCH   9  26
HETATM   26  N   UNL     1      40.673 -17.066   2.061  1.00  0.00    -0.115 N 
HETATM   27  O   UNL     1      41.183 -17.741   1.156  1.00  0.00    -0.532 OA
HETATM   28  O   UNL     1      39.476 -16.768   2.151  1.00  0.00    -0.532 OA
ENDBRANCH   9  26
BRANCH  12  29
HETATM   29  N   UNL     1      40.987 -14.467   0.232  1.00  0.00    -0.115 N 
HETATM   30  O   UNL     1      42.142 -14.811  -0.052  1.00  0.00    -0.532 OA
HETATM   31  O   UNL     1      39.971 -14.765  -0.406  1.00  0.00    -0.532 OA
ENDBRANCH  12  29
BRANCH  14  32
HETATM   32  S   UNL     1      40.173  -9.564   1.641  1.00  0.00     0.259 S 
HETATM   33  O   UNL     1      38.732  -9.469   1.683  1.00  0.00    -0.201 OA
HETATM   34  O   UNL     1      41.028  -8.678   2.396  1.00  0.00    -0.201 OA
BRANCH  32  35
HETATM   35  N   UNL     1      40.603  -9.493   0.012  1.00  0.00    -0.311 N 
HETATM   36  H   UNL     1      39.777  -9.264  -0.545  1.00  0.00     0.172 HD
BRANCH  35  37
HETATM   37  C   UNL     1      41.860  -8.818  -0.390  1.00  0.00     0.093 C 
HETATM   38  C   UNL     1      43.062  -9.765  -0.322  1.00  0.00     0.026 C 
HETATM   39  C   UNL     1      42.985 -10.891  -1.351  1.00  0.00     0.002 C 
HETATM   40  C   UNL     1      42.824 -10.340  -2.765  1.00  0.00     0.000 C 
HETATM   41  C   UNL     1      41.633  -9.392  -2.870  1.00  0.00     0.002 C 
HETATM   42  C   UNL     1      41.696  -8.281  -1.821  1.00  0.00     0.026 C 
ENDBRANCH  35  37
ENDBRANCH  32  35
ENDBRANCH  14  32
TORSDOF 8
ENDMDL
MODEL 9
REMARK VINA RESULT:      -8.1      3.897      6.389
REMARK  8 active torsions:
REMARK  status: ('A' for Active; 'I' for Inactive)
REMARK    1  A    between atoms: C_7  and  S_8 
REMARK    2  A    between atoms: S_8  and  N_9 
REMARK    3  A    between atoms: N_9  and  C_10 
REMARK    4  A    between atoms: C_19  and  N_20 
REMARK    5  A    between atoms: C_25  and  N_26 
REMARK    6  A    between atoms: C_30  and  S_31 
REMARK    7  A    between atoms: S_31  and  N_32 
REMARK    8  A    between atoms: N_32  and  C_33 
ROOT
HETATM    1  C   UNL     1      42.919 -12.888   5.567  1.00  0.00     0.041 A 
HETATM    2  C   UNL     1      42.120 -13.151   4.467  1.00  0.00     0.030 A 
HETATM    3  C   UNL     1      41.982 -14.408   3.839  1.00  0.00     0.025 A 
HETATM    4  C   UNL     1      41.077 -14.245   2.688  1.00  0.00     0.025 C 
HETATM    5  C   UNL     1      40.506 -12.956   2.759  1.00  0.00     0.030 C 
HETATM    6  C   UNL     1      39.531 -12.465   1.906  1.00  0.00     0.041 C 
HETATM    7  C   UNL     1      39.119 -13.303   0.873  1.00  0.00     0.077 C 
HETATM    8  C   UNL     1      39.753 -14.538   0.659  1.00  0.00     0.061 C 
HETATM    9  C   UNL     1      40.738 -14.996   1.561  1.00  0.00     0.116 C 
HETATM   10  C   UNL     1      41.170 -12.218   3.843  1.00  0.00     0.194 C 
HETATM   11  O   UNL     1      40.959 -11.073   4.175  1.00  0.00    -0.287 OA
HETATM   12  C   UNL     1      42.605 -15.480   4.481  1.00  0.00     0.116 A 
HETATM   13  C   UNL     1      43.432 -15.265   5.607  1.00  0.00     0.062 A 
HETATM   14  C   UNL     1      43.583 -13.971   6.134  1.00  0.00     0.082 A 
ENDROOT
BRANCH   7  15
HETATM   15  S   UNL     1      37.857 -12.748  -0.251  1.00  0.00     0.241 S 
HETATM   16  O   UNL     1      36.587 -12.931   0.415  1.00  0.00    -0.206 OA
HETATM   17  O   UNL     1      38.263 -11.473  -0.795  1.00  0.00    -0.206 OA
BRANCH  15  18
HETATM   18  N   UNL     1      37.931 -13.934  -1.449  1.00  0.00    -0.211 NA
HETATM   19  H   UNL     1      37.066 -14.479  -1.415  1.00  0.00     0.140 HD
BRANCH  18  20
HETATM   20  C   UNL     1      38.364 -13.557  -2.820  1.00  0.00     0.071 C 
HETATM   21  C   UNL     1      39.855 -13.821  -3.047  1.00  0.00     0.020 C 
HETATM   22  C   UNL     1      40.202 -15.308  -3.034  1.00  0.00     0.002 C 
HETATM   23  C   UNL     1      39.368 -16.081  -4.050  1.00  0.00     0.000 C 
HETATM   24  C   UNL     1      37.876 -15.847  -3.847  1.00  0.00     0.002 C 
HETATM   25  C   UNL     1      37.528 -14.358  -3.834  1.00  0.00     0.020 C 
ENDBRANCH  18  20
ENDBRANCH  15  18
ENDBRANCH   7  15
BRANCH   9  26
HETATM   26  N   UNL     1      41.493 -16.175   1.163  1.00  0.00    -0.115 N 
HETATM   27  O   UNL     1      42.680 -15.999   0.858  1.00  0.00    -0.532 OA
HETATM   28  O   UNL     1      40.887 -17.252   1.113  1.00  0.00    -0.532 OA
ENDBRANCH   9  26
BRANCH  12  29
HETATM   29  N   UNL     1      42.257 -16.863   4.186  1.00  0.00    -0.115 N 
HETATM   30  O   UNL     1      43.146 -17.563   3.683  1.00  0.00    -0.532 OA
HETATM   31  O   UNL     1      41.091 -17.219   4.392  1.00  0.00    -0.532 OA
ENDBRANCH  12  29
BRANCH  14  32
HETATM   32  S   UNL     1      44.575 -13.742   7.588  1.00  0.00     0.259 S 
HETATM   33  O   UNL     1      44.418 -14.937   8.384  1.00  0.00    -0.201 OA
HETATM   34  O   UNL     1      45.871 -13.243   7.191  1.00  0.00    -0.201 OA
BRANCH  32  35
HETATM   35  N   UNL     1      43.738 -12.523   8.398  1.00  0.00    -0.311 N 
HETATM   36  H   UNL     1      42.935 -12.929   8.882  1.00  0.00     0.172 HD
BRANCH  35  37
HETATM   37  C   UNL     1      44.488 -11.486   9.148  1.00  0.00     0.093 C 
HETATM   38  C   UNL     1      43.562 -10.395   9.694  1.00  0.00     0.026 C 
HETATM   39  C   UNL     1      42.610 -10.914  10.771  1.00  0.00     0.002 C 
HETATM   40  C   UNL     1      43.374 -11.580  11.911  1.00  0.00     0.000 C 
HETATM   41  C   UNL     1      44.308 -12.675  11.404  1.00  0.00     0.002 C 
HETATM   42  C   UNL     1      45.241 -12.163  10.306  1.00  0.00     0.026 C 
ENDBRANCH  35  37
ENDBRANCH  32  35
ENDBRANCH  14  32
TORSDOF 8
ENDMDL
MODEL 10
REMARK VINA RESULT:      -8.1      4.870      6.569
REMARK  8 active torsions:
REMARK  status: ('A' for Active; 'I' for Inactive)
REMARK    1  A    between atoms: C_7  and  S_8 
REMARK    2  A    between atoms: S_8  and  N_9 
REMARK    3  A    between atoms: N_9  and  C_10 
REMARK    4  A    between atoms: C_19  and  N_20 
REMARK    5  A    between atoms: C_25  and  N_26 
REMARK    6  A    between atoms: C_30  and  S_31 
REMARK    7  A    between atoms: S_31  and  N_32 
REMARK    8  A    between atoms: N_32  and  C_33 
ROOT
HETATM    1  C   UNL     1      41.607 -14.849   5.745  1.00  0.00     0.041 A 
HETATM    2  C   UNL     1      40.828 -13.878   5.138  1.00  0.00     0.030 A 
HETATM    3  C   UNL     1      40.369 -13.914   3.804  1.00  0.00     0.025 A 
HETATM    4  C   UNL     1      39.614 -12.675   3.548  1.00  0.00     0.025 C 
HETATM    5  C   UNL     1      39.435 -12.009   4.780  1.00  0.00     0.030 C 
HETATM    6  C   UNL     1      38.691 -10.854   4.965  1.00  0.00     0.041 C 
HETATM    7  C   UNL     1      38.113 -10.291   3.830  1.00  0.00     0.077 C 
HETATM    8  C   UNL     1      38.376 -10.821   2.557  1.00  0.00     0.061 C 
HETATM    9  C   UNL     1      39.136 -12.003   2.422  1.00  0.00     0.116 C 
HETATM   10  C   UNL     1      40.222 -12.714   5.802  1.00  0.00     0.194 C 
HETATM   11  O   UNL     1      40.332 -12.409   6.969  1.00  0.00    -0.287 OA
HETATM   12  C   UNL     1      40.621 -15.097   3.106  1.00  0.00     0.116 A 
HETATM   13  C   UNL     1      41.411 -16.119   3.679  1.00  0.00     0.062 A 
HETATM   14  C   UNL     1      41.898 -15.981   4.990  1.00  0.00     0.082 A 
ENDROOT
BRANCH   7  15
HETATM   15  S   UNL     1      37.129  -8.819   3.994  1.00  0.00     0.241 S 
HETATM   16  O   UNL     1      37.243  -8.383   5.367  1.00  0.00    -0.206 OA
HETATM   17  O   UNL     1      37.429  -7.946   2.883  1.00  0.00    -0.206 OA
BRANCH  15  18
HETATM   18  N   UNL     1      35.568  -9.440   3.830  1.00  0.00    -0.211 NA
HETATM   19  H   UNL     1      35.451 -10.196   4.509  1.00  0.00     0.140 HD
BRANCH  18  20
HETATM   20  C   UNL     1      34.417  -8.504   3.748  1.00  0.00     0.071 C 
HETATM   21  C   UNL     1      33.443  -8.883   2.629  1.00  0.00     0.020 C 
HETATM   22  C   UNL     1      32.722 -10.204   2.892  1.00  0.00     0.002 C 
HETATM   23  C   UNL     1      32.001 -10.183   4.235  1.00  0.00     0.000 C 
HETATM   24  C   UNL     1      32.945  -9.817   5.375  1.00  0.00     0.002 C 
HETATM   25  C   UNL     1      33.687  -8.508   5.103  1.00  0.00     0.020 C 
ENDBRANCH  18  20
ENDBRANCH  15  18
ENDBRANCH   7  15
BRANCH   9  26
HETATM   26  N   UNL     1      39.540 -12.371   1.073  1.00  0.00    -0.115 N 
HETATM   27  O   UNL     1      40.747 -12.286   0.811  1.00  0.00    -0.532 OA
HETATM   28  O   UNL     1      38.650 -12.695   0.278  1.00  0.00    -0.532 OA
ENDBRANCH   9  26
BRANCH  12  29
HETATM   29  N   UNL     1      39.906 -15.438   1.884  1.00  0.00    -0.115 N 
HETATM   30  O   UNL     1      40.585 -15.531   0.853  1.00  0.00    -0.532 OA
HETATM   31  O   UNL     1      38.676 -15.541   1.947  1.00  0.00    -0.532 OA
ENDBRANCH  12  29
BRANCH  14  32
HETATM   32  S   UNL     1      42.833 -17.309   5.708  1.00  0.00     0.259 S 
HETATM   33  O   UNL     1      44.165 -16.797   5.934  1.00  0.00    -0.201 OA
HETATM   34  O   UNL     1      42.049 -17.913   6.759  1.00  0.00    -0.201 OA
BRANCH  32  35
HETATM   35  N   UNL     1      42.957 -18.390   4.419  1.00  0.00    -0.311 N 
HETATM   36  H   UNL     1      42.112 -18.329   3.846  1.00  0.00     0.172 HD
BRANCH  35  37
HETATM   37  C   UNL     1      44.235 -18.509   3.676  1.00  0.00     0.093 C 
HETATM   38  C   UNL     1      45.045 -19.727   4.128  1.00  0.00     0.026 C 
HETATM   39  C   UNL     1      44.369 -21.051   3.773  1.00  0.00     0.002 C 
HETATM   40  C   UNL     1      44.069 -21.137   2.279  1.00  0.00     0.000 C 
HETATM   41  C   UNL     1      43.261 -19.937   1.794  1.00  0.00     0.002 C 
HETATM   42  C   UNL     1      43.923 -18.613   2.174  1.00  0.00     0.026 C 
ENDBRANCH  35  37
ENDBRANCH  32  35
ENDBRANCH  14  32
TORSDOF 8
ENDMDL
