MODEL 1
REMARK VINA RESULT:      -7.1      0.000      0.000
REMARK  6 active torsions:
REMARK  status: ('A' for Active; 'I' for Inactive)
REMARK    1  A    between atoms: C_2  and  C_3 
REMARK    2  A    between atoms: C_3  and  O_4 
REMARK    3  A    between atoms: C_3  and  C_12 
REMARK    4  A    between atoms: O_4  and  C_5 
REMARK    5  A    between atoms: C_12  and  N_13 
REMARK       I    between atoms: N_13  and  C_14 
REMARK       I    between atoms: C_14  and  N_15 
REMARK    6  A    between atoms: N_15  and  C_16 
ROOT
HETATM    1  N   UNL     1      43.570 -16.957   1.565  1.00  0.00    -0.340 N 
HETATM    2  C   UNL     1      43.274 -18.208   2.070  1.00  0.00     0.320 C 
HETATM    3  N   UNL     1      44.424 -18.888   2.408  1.00  0.00    -0.307 N 
HETATM    4  O   UNL     1      42.129 -18.622   2.176  1.00  0.00    -0.247 OA
HETATM    5  H   UNL     1      44.525 -16.639   1.589  1.00  0.00     0.164 HD
HETATM    6  H   UNL     1      45.286 -18.394   2.257  1.00  0.00     0.170 HD
ENDROOT
BRANCH   1   7
HETATM    7  C   UNL     1      42.532 -15.950   1.371  1.00  0.00     0.156 C 
BRANCH   7   8
HETATM    8  C   UNL     1      42.612 -14.846   2.451  1.00  0.00     0.146 C 
BRANCH   8   9
HETATM    9  C   UNL     1      41.897 -13.558   2.015  1.00  0.00     0.029 C 
HETATM   10  C   UNL     1      41.762 -13.409   0.509  1.00  0.00     0.007 C 
ENDBRANCH   8   9
BRANCH   8  11
HETATM   11  O   UNL     1      41.959 -15.350   3.624  1.00  0.00    -0.343 OA
BRANCH  11  12
HETATM   12  C   UNL     1      42.611 -15.406   4.825  1.00  0.00     0.091 A 
HETATM   13  C   UNL     1      42.260 -16.467   5.678  1.00  0.00     0.067 A 
HETATM   14 CL   UNL     1      41.029 -17.603   5.245  1.00  0.00    -0.081 Cl
HETATM   15  C   UNL     1      42.885 -16.627   6.918  1.00  0.00     0.026 A 
HETATM   16  C   UNL     1      43.877 -15.735   7.318  1.00  0.00     0.002 A 
HETATM   17  C   UNL     1      44.239 -14.685   6.479  1.00  0.00     0.003 A 
HETATM   18  C   UNL     1      43.610 -14.519   5.239  1.00  0.00     0.038 A 
ENDBRANCH  11  12
ENDBRANCH   8  11
ENDBRANCH   7   8
ENDBRANCH   1   7
BRANCH   3  19
HETATM   19  C   UNL     1      44.521 -20.175   2.988  1.00  0.00     0.059 A 
HETATM   20  C   UNL     1      44.763 -20.288   4.371  1.00  0.00    -0.032 A 
HETATM   21  C   UNL     1      44.913 -19.091   5.269  1.00  0.00     0.050 C 
HETATM   22  C   UNL     1      44.856 -21.566   4.940  1.00  0.00     0.028 A 
HETATM   23  C   UNL     1      44.711 -22.678   4.128  1.00  0.00     0.117 A 
HETATM   24  N   UNL     1      44.480 -22.607   2.806  1.00  0.00    -0.271 NA
HETATM   25  C   UNL     1      44.387 -21.363   2.267  1.00  0.00     0.146 A 
ENDBRANCH   3  19
TORSDOF 6
ENDMDL
MODEL 2
REMARK VINA RESULT:      -7.0      1.822      2.023
REMARK  6 active torsions:
REMARK  status: ('A' for Active; 'I' for Inactive)
REMARK    1  A    between atoms: C_2  and  C_3 
REMARK    2  A    between atoms: C_3  and  O_4 
REMARK    3  A    between atoms: C_3  and  C_12 
REMARK    4  A    between atoms: O_4  and  C_5 
REMARK    5  A    between atoms: C_12  and  N_13 
REMARK       I    between atoms: N_13  and  C_14 
REMARK       I    between atoms: C_14  and  N_15 
REMARK    6  A    between atoms: N_15  and  C_16 
ROOT
HETATM    1  N   UNL     1      43.530 -17.411   1.193  1.00  0.00    -0.340 N 
HETATM    2  C   UNL     1      43.295 -18.666   1.720  1.00  0.00     0.320 C 
HETATM    3  N   UNL     1      44.389 -19.117   2.427  1.00  0.00    -0.307 N 
HETATM    4  O   UNL     1      42.245 -19.267   1.549  1.00  0.00    -0.247 OA
HETATM    5  H   UNL     1      44.377 -16.931   1.446  1.00  0.00     0.164 HD
HETATM    6  H   UNL     1      45.172 -18.489   2.469  1.00  0.00     0.170 HD
ENDROOT
BRANCH   1   7
HETATM    7  C   UNL     1      42.451 -16.612   0.623  1.00  0.00     0.156 C 
BRANCH   7   8
HETATM    8  C   UNL     1      42.089 -15.421   1.539  1.00  0.00     0.146 C 
BRANCH   8   9
HETATM    9  C   UNL     1      41.802 -14.142   0.738  1.00  0.00     0.029 C 
HETATM   10  C   UNL     1      41.082 -14.388  -0.576  1.00  0.00     0.007 C 
ENDBRANCH   8   9
BRANCH   8  11
HETATM   11  O   UNL     1      40.900 -15.781   2.256  1.00  0.00    -0.343 OA
BRANCH  11  12
HETATM   12  C   UNL     1      40.932 -16.006   3.605  1.00  0.00     0.091 A 
HETATM   13  C   UNL     1      40.458 -14.967   4.423  1.00  0.00     0.067 A 
HETATM   14 CL   UNL     1      39.914 -13.467   3.753  1.00  0.00    -0.081 Cl
HETATM   15  C   UNL     1      40.426 -15.106   5.814  1.00  0.00     0.026 A 
HETATM   16  C   UNL     1      40.859 -16.290   6.405  1.00  0.00     0.002 A 
HETATM   17  C   UNL     1      41.325 -17.330   5.604  1.00  0.00     0.003 A 
HETATM   18  C   UNL     1      41.362 -17.191   4.212  1.00  0.00     0.038 A 
ENDBRANCH  11  12
ENDBRANCH   8  11
ENDBRANCH   7   8
ENDBRANCH   1   7
BRANCH   3  19
HETATM   19  C   UNL     1      44.510 -20.334   3.137  1.00  0.00     0.059 A 
HETATM   20  C   UNL     1      44.665 -20.300   4.537  1.00  0.00    -0.032 A 
HETATM   21  C   UNL     1      44.697 -19.015   5.318  1.00  0.00     0.050 C 
HETATM   22  C   UNL     1      44.783 -21.511   5.234  1.00  0.00     0.028 A 
HETATM   23  C   UNL     1      44.746 -22.702   4.530  1.00  0.00     0.117 A 
HETATM   24  N   UNL     1      44.601 -22.771   3.196  1.00  0.00    -0.271 NA
HETATM   25  C   UNL     1      44.482 -21.592   2.531  1.00  0.00     0.146 A 
ENDBRANCH   3  19
TORSDOF 6
ENDMDL
MODEL 3
REMARK VINA RESULT:      -7.0      2.544      6.243
REMARK  6 active torsions:
REMARK  status: ('A' for Active; 'I' for Inactive)
REMARK    1  A    between atoms: C_2  and  C_3 
REMARK    2  A    between atoms: C_3  and  O_4 
REMARK    3  A    between atoms: C_3  and  C_12 
REMARK    4  A    between atoms: O_4  and  C_5 
REMARK    5  A    between atoms: C_12  and  N_13 
REMARK       I    between atoms: N_13  and  C_14 
REMARK       I    between atoms: C_14  and  N_15 
REMARK    6  A    between atoms: N_15  and  C_16 
ROOT
HETATM    1  N   UNL     1      43.232 -16.948   1.309  1.00  0.00    -0.340 N 
HETATM    2  C   UNL     1      41.916 -16.750   0.940  1.00  0.00     0.320 C 
HETATM    3  N   UNL     1      41.653 -15.410   0.753  1.00  0.00    -0.307 N 
HETATM    4  O   UNL     1      41.120 -17.669   0.816  1.00  0.00    -0.247 OA
HETATM    5  H   UNL     1      43.860 -16.162   1.303  1.00  0.00     0.164 HD
HETATM    6  H   UNL     1      42.428 -14.787   0.895  1.00  0.00     0.170 HD
ENDROOT
BRANCH   1   7
HETATM    7  C   UNL     1      43.825 -18.281   1.320  1.00  0.00     0.156 C 
BRANCH   7   8
HETATM    8  C   UNL     1      43.554 -19.005   2.659  1.00  0.00     0.146 C 
BRANCH   8   9
HETATM    9  C   UNL     1      44.325 -20.330   2.766  1.00  0.00     0.029 C 
HETATM   10  C   UNL     1      43.831 -21.407   1.815  1.00  0.00     0.007 C 
ENDBRANCH   8   9
BRANCH   8  11
HETATM   11  O   UNL     1      44.002 -18.137   3.710  1.00  0.00    -0.343 OA
BRANCH  11  12
HETATM   12  C   UNL     1      43.165 -17.779   4.731  1.00  0.00     0.091 A 
HETATM   13  C   UNL     1      43.744 -17.687   6.009  1.00  0.00     0.067 A 
HETATM   14 CL   UNL     1      45.413 -18.059   6.273  1.00  0.00    -0.081 Cl
HETATM   15  C   UNL     1      42.980 -17.306   7.117  1.00  0.00     0.026 A 
HETATM   16  C   UNL     1      41.630 -17.003   6.960  1.00  0.00     0.002 A 
HETATM   17  C   UNL     1      41.047 -17.084   5.698  1.00  0.00     0.003 A 
HETATM   18  C   UNL     1      41.809 -17.470   4.589  1.00  0.00     0.038 A 
ENDBRANCH  11  12
ENDBRANCH   8  11
ENDBRANCH   7   8
ENDBRANCH   1   7
BRANCH   3  19
HETATM   19  C   UNL     1      40.434 -14.824   0.337  1.00  0.00     0.059 A 
HETATM   20  C   UNL     1      39.436 -14.563   1.297  1.00  0.00    -0.032 A 
HETATM   21  C   UNL     1      39.615 -14.874   2.758  1.00  0.00     0.050 C 
HETATM   22  C   UNL     1      38.231 -13.980   0.879  1.00  0.00     0.028 A 
HETATM   23  C   UNL     1      38.055 -13.681  -0.461  1.00  0.00     0.117 A 
HETATM   24  N   UNL     1      38.986 -13.916  -1.402  1.00  0.00    -0.271 NA
HETATM   25  C   UNL     1      40.151 -14.476  -0.984  1.00  0.00     0.146 A 
ENDBRANCH   3  19
TORSDOF 6
ENDMDL
MODEL 4
REMARK VINA RESULT:      -6.8      2.759      6.289
REMARK  6 active torsions:
REMARK  status: ('A' for Active; 'I' for Inactive)
REMARK    1  A    between atoms: C_2  and  C_3 
REMARK    2  A    between atoms: C_3  and  O_4 
REMARK    3  A    between atoms: C_3  and  C_12 
REMARK    4  A    between atoms: O_4  and  C_5 
REMARK    5  A    between atoms: C_12  and  N_13 
REMARK       I    between atoms: N_13  and  C_14 
REMARK       I    between atoms: C_14  and  N_15 
REMARK    6  A    between atoms: N_15  and  C_16 
ROOT
HETATM    1  N   UNL     1      41.799 -17.565   2.408  1.00  0.00    -0.340 N 
HETATM    2  C   UNL     1      41.728 -16.232   2.758  1.00  0.00     0.320 C 
HETATM    3  N   UNL     1      40.485 -15.920   3.266  1.00  0.00    -0.307 N 
HETATM    4  O   UNL     1      42.664 -15.460   2.610  1.00  0.00    -0.247 OA
HETATM    5  H   UNL     1      41.027 -18.168   2.639  1.00  0.00     0.164 HD
HETATM    6  H   UNL     1      39.831 -16.681   3.320  1.00  0.00     0.170 HD
ENDROOT
BRANCH   1   7
HETATM    7  C   UNL     1      43.072 -18.200   2.085  1.00  0.00     0.156 C 
BRANCH   7   8
HETATM    8  C   UNL     1      43.231 -19.549   2.824  1.00  0.00     0.146 C 
BRANCH   8   9
HETATM    9  C   UNL     1      43.586 -20.695   1.866  1.00  0.00     0.029 C 
HETATM   10  C   UNL     1      44.518 -21.733   2.468  1.00  0.00     0.007 C 
ENDBRANCH   8   9
BRANCH   8  11
HETATM   11  O   UNL     1      44.305 -19.396   3.763  1.00  0.00    -0.343 OA
BRANCH  11  12
HETATM   12  C   UNL     1      44.083 -18.875   5.008  1.00  0.00     0.091 A 
HETATM   13  C   UNL     1      44.075 -19.790   6.076  1.00  0.00     0.067 A 
HETATM   14 CL   UNL     1      44.282 -21.487   5.811  1.00  0.00    -0.081 Cl
HETATM   15  C   UNL     1      43.880 -19.356   7.390  1.00  0.00     0.026 A 
HETATM   16  C   UNL     1      43.700 -18.001   7.657  1.00  0.00     0.002 A 
HETATM   17  C   UNL     1      43.714 -17.085   6.609  1.00  0.00     0.003 A 
HETATM   18  C   UNL     1      43.903 -17.517   5.291  1.00  0.00     0.038 A 
ENDBRANCH  11  12
ENDBRANCH   8  11
ENDBRANCH   7   8
ENDBRANCH   1   7
BRANCH   3  19
HETATM   19  C   UNL     1      40.049 -14.670   3.763  1.00  0.00     0.059 A 
HETATM   20  C   UNL     1      40.021 -14.457   5.156  1.00  0.00    -0.032 A 
HETATM   21  C   UNL     1      40.447 -15.507   6.145  1.00  0.00     0.050 C 
HETATM   22  C   UNL     1      39.590 -13.214   5.642  1.00  0.00     0.028 A 
HETATM   23  C   UNL     1      39.203 -12.235   4.743  1.00  0.00     0.117 A 
HETATM   24  N   UNL     1      39.217 -12.405   3.410  1.00  0.00    -0.271 NA
HETATM   25  C   UNL     1      39.642 -13.611   2.950  1.00  0.00     0.146 A 
ENDBRANCH   3  19
TORSDOF 6
ENDMDL
MODEL 5
REMARK VINA RESULT:      -6.8      3.193      7.752
REMARK  6 active torsions:
REMARK  status: ('A' for Active; 'I' for Inactive)
REMARK    1  A    between atoms: C_2  and  C_3 
REMARK    2  A    between atoms: C_3  and  O_4 
REMARK    3  A    between atoms: C_3  and  C_12 
REMARK    4  A    between atoms: O_4  and  C_5 
REMARK    5  A    between atoms: C_12  and  N_13 
REMARK       I    between atoms: N_13  and  C_14 
REMARK       I    between atoms: C_14  and  N_15 
REMARK    6  A    between atoms: N_15  and  C_16 
ROOT
HETATM    1  N   UNL     1      41.804 -16.301  -0.141  1.00  0.00    -0.340 N 
HETATM    2  C   UNL     1      41.675 -14.976  -0.506  1.00  0.00     0.320 C 
HETATM    3  N   UNL     1      41.670 -14.840  -1.878  1.00  0.00    -0.307 N 
HETATM    4  O   UNL     1      41.590 -14.072   0.312  1.00  0.00    -0.247 OA
HETATM    5  H   UNL     1      41.776 -17.006  -0.858  1.00  0.00     0.164 HD
HETATM    6  H   UNL     1      41.747 -15.694  -2.402  1.00  0.00     0.170 HD
ENDROOT
BRANCH   1   7
HETATM    7  C   UNL     1      41.583 -16.735   1.235  1.00  0.00     0.156 C 
BRANCH   7   8
HETATM    8  C   UNL     1      42.918 -17.081   1.935  1.00  0.00     0.146 C 
BRANCH   8   9
HETATM    9  C   UNL     1      43.505 -15.877   2.687  1.00  0.00     0.029 C 
HETATM   10  C   UNL     1      42.513 -15.181   3.603  1.00  0.00     0.007 C 
ENDBRANCH   8   9
BRANCH   8  11
HETATM   11  O   UNL     1      42.642 -18.117   2.888  1.00  0.00    -0.343 OA
BRANCH  11  12
HETATM   12  C   UNL     1      43.286 -19.322   2.825  1.00  0.00     0.091 A 
HETATM   13  C   UNL     1      44.168 -19.615   3.879  1.00  0.00     0.067 A 
HETATM   14 CL   UNL     1      44.456 -18.484   5.156  1.00  0.00    -0.081 Cl
HETATM   15  C   UNL     1      44.859 -20.830   3.920  1.00  0.00     0.026 A 
HETATM   16  C   UNL     1      44.669 -21.773   2.913  1.00  0.00     0.002 A 
HETATM   17  C   UNL     1      43.792 -21.497   1.867  1.00  0.00     0.003 A 
HETATM   18  C   UNL     1      43.104 -20.279   1.821  1.00  0.00     0.038 A 
ENDBRANCH  11  12
ENDBRANCH   8  11
ENDBRANCH   7   8
ENDBRANCH   1   7
BRANCH   3  19
HETATM   19  C   UNL     1      41.519 -13.647  -2.622  1.00  0.00     0.059 A 
HETATM   20  C   UNL     1      40.262 -13.340  -3.180  1.00  0.00    -0.032 A 
HETATM   21  C   UNL     1      39.060 -14.229  -3.008  1.00  0.00     0.050 C 
HETATM   22  C   UNL     1      40.119 -12.155  -3.915  1.00  0.00     0.028 A 
HETATM   23  C   UNL     1      41.214 -11.323  -4.074  1.00  0.00     0.117 A 
HETATM   24  N   UNL     1      42.426 -11.585  -3.556  1.00  0.00    -0.271 NA
HETATM   25  C   UNL     1      42.551 -12.734  -2.842  1.00  0.00     0.146 A 
ENDBRANCH   3  19
TORSDOF 6
ENDMDL
MODEL 6
REMARK VINA RESULT:      -6.7      2.945      6.939
REMARK  6 active torsions:
REMARK  status: ('A' for Active; 'I' for Inactive)
REMARK    1  A    between atoms: C_2  and  C_3 
REMARK    2  A    between atoms: C_3  and  O_4 
REMARK    3  A    between atoms: C_3  and  C_12 
REMARK    4  A    between atoms: O_4  and  C_5 
REMARK    5  A    between atoms: C_12  and  N_13 
REMARK       I    between atoms: N_13  and  C_14 
REMARK       I    between atoms: C_14  and  N_15 
REMARK    6  A    between atoms: N_15  and  C_16 
ROOT
HETATM    1  N   UNL     1      40.520 -14.934   3.651  1.00  0.00    -0.340 N 
HETATM    2  C   UNL     1      40.163 -15.332   2.378  1.00  0.00     0.320 C 
HETATM    3  N   UNL     1      40.033 -14.246   1.539  1.00  0.00    -0.307 N 
HETATM    4  O   UNL     1      39.986 -16.504   2.079  1.00  0.00    -0.247 OA
HETATM    5  H   UNL     1      40.741 -13.965   3.811  1.00  0.00     0.164 HD
HETATM    6  H   UNL     1      40.220 -13.349   1.952  1.00  0.00     0.170 HD
ENDROOT
BRANCH   1   7
HETATM    7  C   UNL     1      40.964 -15.897   4.652  1.00  0.00     0.156 C 
BRANCH   7   8
HETATM    8  C   UNL     1      42.465 -16.229   4.486  1.00  0.00     0.146 C 
BRANCH   8   9
HETATM    9  C   UNL     1      43.356 -15.328   5.355  1.00  0.00     0.029 C 
HETATM   10  C   UNL     1      43.537 -15.831   6.777  1.00  0.00     0.007 C 
ENDBRANCH   8   9
BRANCH   8  11
HETATM   11  O   UNL     1      42.650 -17.588   4.908  1.00  0.00    -0.343 OA
BRANCH  11  12
HETATM   12  C   UNL     1      43.204 -18.515   4.070  1.00  0.00     0.091 A 
HETATM   13  C   UNL     1      44.146 -19.389   4.641  1.00  0.00     0.067 A 
HETATM   14 CL   UNL     1      44.611 -19.254   6.302  1.00  0.00    -0.081 Cl
HETATM   15  C   UNL     1      44.754 -20.388   3.876  1.00  0.00     0.026 A 
HETATM   16  C   UNL     1      44.421 -20.535   2.532  1.00  0.00     0.002 A 
HETATM   17  C   UNL     1      43.484 -19.681   1.956  1.00  0.00     0.003 A 
HETATM   18  C   UNL     1      42.878 -18.675   2.720  1.00  0.00     0.038 A 
ENDBRANCH  11  12
ENDBRANCH   8  11
ENDBRANCH   7   8
ENDBRANCH   1   7
BRANCH   3  19
HETATM   19  C   UNL     1      39.718 -14.259   0.160  1.00  0.00     0.059 A 
HETATM   20  C   UNL     1      38.419 -13.896  -0.250  1.00  0.00    -0.032 A 
HETATM   21  C   UNL     1      37.348 -13.482   0.721  1.00  0.00     0.050 C 
HETATM   22  C   UNL     1      38.114 -13.909  -1.618  1.00  0.00     0.028 A 
HETATM   23  C   UNL     1      39.092 -14.279  -2.525  1.00  0.00     0.117 A 
HETATM   24  N   UNL     1      40.340 -14.631  -2.168  1.00  0.00    -0.271 NA
HETATM   25  C   UNL     1      40.625 -14.609  -0.840  1.00  0.00     0.146 A 
ENDBRANCH   3  19
TORSDOF 6
ENDMDL
MODEL 7
REMARK VINA RESULT:      -6.6      3.302      7.649
REMARK  6 active torsions:
REMARK  status: ('A' for Active; 'I' for Inactive)
REMARK    1  A    between atoms: C_2  and  C_3 
REMARK    2  A    between atoms: C_3  and  O_4 
REMARK    3  A    between atoms: C_3  and  C_12 
REMARK    4  A    between atoms: O_4  and  C_5 
REMARK    5  A    between atoms: C_12  and  N_13 
REMARK       I    between atoms: N_13  and  C_14 
REMARK       I    between atoms: C_14  and  N_15 
REMARK    6  A    between atoms: N_15  and  C_16 
ROOT
HETATM    1  N   UNL     1      40.972 -16.317   0.668  1.00  0.00    -0.340 N 
HETATM    2  C   UNL     1      40.520 -15.098   0.205  1.00  0.00     0.320 C 
HETATM    3  N   UNL     1      40.120 -15.187  -1.111  1.00  0.00    -0.307 N 
HETATM    4  O   UNL     1      40.503 -14.093   0.901  1.00  0.00    -0.247 OA
HETATM    5  H   UNL     1      40.875 -17.126   0.077  1.00  0.00     0.164 HD
HETATM    6  H   UNL     1      40.200 -16.095  -1.532  1.00  0.00     0.170 HD
ENDROOT
BRANCH   1   7
HETATM    7  C   UNL     1      41.212 -16.550   2.088  1.00  0.00     0.156 C 
BRANCH   7   8
HETATM    8  C   UNL     1      42.716 -16.766   2.376  1.00  0.00     0.146 C 
BRANCH   8   9
HETATM    9  C   UNL     1      43.392 -15.493   2.905  1.00  0.00     0.029 C 
HETATM   10  C   UNL     1      42.538 -14.703   3.883  1.00  0.00     0.007 C 
ENDBRANCH   8   9
BRANCH   8  11
HETATM   11  O   UNL     1      42.814 -17.782   3.384  1.00  0.00    -0.343 OA
BRANCH  11  12
HETATM   12  C   UNL     1      43.351 -19.007   3.099  1.00  0.00     0.091 A 
HETATM   13  C   UNL     1      44.285 -19.510   4.021  1.00  0.00     0.067 A 
HETATM   14 CL   UNL     1      44.762 -18.597   5.411  1.00  0.00    -0.081 Cl
HETATM   15  C   UNL     1      44.875 -20.764   3.834  1.00  0.00     0.026 A 
HETATM   16  C   UNL     1      44.531 -21.536   2.728  1.00  0.00     0.002 A 
HETATM   17  C   UNL     1      43.601 -21.053   1.811  1.00  0.00     0.003 A 
HETATM   18  C   UNL     1      43.014 -19.795   1.994  1.00  0.00     0.038 A 
ENDBRANCH  11  12
ENDBRANCH   8  11
ENDBRANCH   7   8
ENDBRANCH   1   7
BRANCH   3  19
HETATM   19  C   UNL     1      39.568 -14.160  -1.912  1.00  0.00     0.059 A 
HETATM   20  C   UNL     1      40.409 -13.444  -2.787  1.00  0.00    -0.032 A 
HETATM   21  C   UNL     1      41.880 -13.734  -2.915  1.00  0.00     0.050 C 
HETATM   22  C   UNL     1      39.855 -12.430  -3.580  1.00  0.00     0.028 A 
HETATM   23  C   UNL     1      38.501 -12.158  -3.479  1.00  0.00     0.117 A 
HETATM   24  N   UNL     1      37.671 -12.820  -2.655  1.00  0.00    -0.271 NA
HETATM   25  C   UNL     1      38.218 -13.805  -1.896  1.00  0.00     0.146 A 
ENDBRANCH   3  19
TORSDOF 6
ENDMDL
MODEL 8
REMARK VINA RESULT:      -6.5      2.820      7.163
REMARK  6 active torsions:
REMARK  status: ('A' for Active; 'I' for Inactive)
REMARK    1  A    between atoms: C_2  and  C_3 
REMARK    2  A    between atoms: C_3  and  O_4 
REMARK    3  A    between atoms: C_3  and  C_12 
REMARK    4  A    between atoms: O_4  and  C_5 
REMARK    5  A    between atoms: C_12  and  N_13 
REMARK       I    between atoms: N_13  and  C_14 
REMARK       I    between atoms: C_14  and  N_15 
REMARK    6  A    between atoms: N_15  and  C_16 
ROOT
HETATM    1  N   UNL     1      42.788 -16.732   4.358  1.00  0.00    -0.340 N 
HETATM    2  C   UNL     1      41.561 -16.117   4.207  1.00  0.00     0.320 C 
HETATM    3  N   UNL     1      41.528 -15.359   3.056  1.00  0.00    -0.307 N 
HETATM    4  O   UNL     1      40.654 -16.246   5.016  1.00  0.00    -0.247 OA
HETATM    5  H   UNL     1      43.460 -16.661   3.613  1.00  0.00     0.164 HD
HETATM    6  H   UNL     1      42.366 -15.367   2.502  1.00  0.00     0.170 HD
ENDROOT
BRANCH   1   7
HETATM    7  C   UNL     1      42.995 -17.781   5.351  1.00  0.00     0.156 C 
BRANCH   7   8
HETATM    8  C   UNL     1      44.466 -18.256   5.367  1.00  0.00     0.146 C 
BRANCH   8   9
HETATM    9  C   UNL     1      45.181 -17.882   6.674  1.00  0.00     0.029 C 
HETATM   10  C   UNL     1      44.265 -17.847   7.886  1.00  0.00     0.007 C 
ENDBRANCH   8   9
BRANCH   8  11
HETATM   11  O   UNL     1      44.453 -19.687   5.254  1.00  0.00    -0.343 OA
BRANCH  11  12
HETATM   12  C   UNL     1      44.321 -20.295   4.036  1.00  0.00     0.091 A 
HETATM   13  C   UNL     1      44.641 -21.663   3.984  1.00  0.00     0.067 A 
HETATM   14 CL   UNL     1      45.220 -22.509   5.378  1.00  0.00    -0.081 Cl
HETATM   15  C   UNL     1      44.519 -22.384   2.792  1.00  0.00     0.026 A 
HETATM   16  C   UNL     1      44.065 -21.749   1.639  1.00  0.00     0.002 A 
HETATM   17  C   UNL     1      43.738 -20.396   1.679  1.00  0.00     0.003 A 
HETATM   18  C   UNL     1      43.865 -19.671   2.871  1.00  0.00     0.038 A 
ENDBRANCH  11  12
ENDBRANCH   8  11
ENDBRANCH   7   8
ENDBRANCH   1   7
BRANCH   3  19
HETATM   19  C   UNL     1      40.436 -14.617   2.548  1.00  0.00     0.059 A 
HETATM   20  C   UNL     1      40.420 -13.218   2.715  1.00  0.00    -0.032 A 
HETATM   21  C   UNL     1      41.527 -12.471   3.407  1.00  0.00     0.050 C 
HETATM   22  C   UNL     1      39.336 -12.488   2.207  1.00  0.00     0.028 A 
HETATM   23  C   UNL     1      38.313 -13.161   1.560  1.00  0.00     0.117 A 
HETATM   24  N   UNL     1      38.296 -14.493   1.384  1.00  0.00    -0.271 NA
HETATM   25  C   UNL     1      39.355 -15.189   1.876  1.00  0.00     0.146 A 
ENDBRANCH   3  19
TORSDOF 6
ENDMDL
MODEL 9
REMARK VINA RESULT:      -6.5      2.745      7.050
REMARK  6 active torsions:
REMARK  status: ('A' for Active; 'I' for Inactive)
REMARK    1  A    between atoms: C_2  and  C_3 
REMARK    2  A    between atoms: C_3  and  O_4 
REMARK    3  A    between atoms: C_3  and  C_12 
REMARK    4  A    between atoms: O_4  and  C_5 
REMARK    5  A    between atoms: C_12  and  N_13 
REMARK       I    between atoms: N_13  and  C_14 
REMARK       I    between atoms: C_14  and  N_15 
REMARK    6  A    between atoms: N_15  and  C_16 
ROOT
HETATM    1  N   UNL     1      40.946 -17.265   4.586  1.00  0.00    -0.340 N 
HETATM    2  C   UNL     1      40.802 -16.553   3.412  1.00  0.00     0.320 C 
HETATM    3  N   UNL     1      39.973 -15.467   3.592  1.00  0.00    -0.307 N 
HETATM    4  O   UNL     1      41.347 -16.884   2.369  1.00  0.00    -0.247 OA
HETATM    5  H   UNL     1      40.547 -16.891   5.431  1.00  0.00     0.164 HD
HETATM    6  H   UNL     1      39.610 -15.342   4.520  1.00  0.00     0.170 HD
ENDROOT
BRANCH   1   7
HETATM    7  C   UNL     1      41.962 -18.302   4.726  1.00  0.00     0.156 C 
BRANCH   7   8
HETATM    8  C   UNL     1      43.206 -17.772   5.476  1.00  0.00     0.146 C 
BRANCH   8   9
HETATM    9  C   UNL     1      43.225 -18.212   6.948  1.00  0.00     0.029 C 
HETATM   10  C   UNL     1      43.212 -17.057   7.935  1.00  0.00     0.007 C 
ENDBRANCH   8   9
BRANCH   8  11
HETATM   11  O   UNL     1      44.361 -18.322   4.826  1.00  0.00    -0.343 OA
BRANCH  11  12
HETATM   12  C   UNL     1      44.418 -19.647   4.495  1.00  0.00     0.091 A 
HETATM   13  C   UNL     1      44.298 -19.956   3.129  1.00  0.00     0.067 A 
HETATM   14 CL   UNL     1      44.038 -18.721   1.945  1.00  0.00    -0.081 Cl
HETATM   15  C   UNL     1      44.366 -21.279   2.683  1.00  0.00     0.026 A 
HETATM   16  C   UNL     1      44.567 -22.311   3.596  1.00  0.00     0.002 A 
HETATM   17  C   UNL     1      44.695 -22.018   4.951  1.00  0.00     0.003 A 
HETATM   18  C   UNL     1      44.621 -20.694   5.400  1.00  0.00     0.038 A 
ENDBRANCH  11  12
ENDBRANCH   8  11
ENDBRANCH   7   8
ENDBRANCH   1   7
BRANCH   3  19
HETATM   19  C   UNL     1      39.619 -14.489   2.633  1.00  0.00     0.059 A 
HETATM   20  C   UNL     1      40.239 -13.224   2.682  1.00  0.00    -0.032 A 
HETATM   21  C   UNL     1      41.277 -12.869   3.712  1.00  0.00     0.050 C 
HETATM   22  C   UNL     1      39.886 -12.260   1.728  1.00  0.00     0.028 A 
HETATM   23  C   UNL     1      38.939 -12.574   0.769  1.00  0.00     0.117 A 
HETATM   24  N   UNL     1      38.328 -13.769   0.693  1.00  0.00    -0.271 NA
HETATM   25  C   UNL     1      38.682 -14.698   1.620  1.00  0.00     0.146 A 
ENDBRANCH   3  19
TORSDOF 6
ENDMDL
MODEL 10
REMARK VINA RESULT:      -6.4      2.349      3.537
REMARK  6 active torsions:
REMARK  status: ('A' for Active; 'I' for Inactive)
REMARK    1  A    between atoms: C_2  and  C_3 
REMARK    2  A    between atoms: C_3  and  O_4 
REMARK    3  A    between atoms: C_3  and  C_12 
REMARK    4  A    between atoms: O_4  and  C_5 
REMARK    5  A    between atoms: C_12  and  N_13 
REMARK       I    between atoms: N_13  and  C_14 
REMARK       I    between atoms: C_14  and  N_15 
REMARK    6  A    between atoms: N_15  and  C_16 
ROOT
HETATM    1  N   UNL     1      42.550 -16.714   0.383  1.00  0.00    -0.340 N 
HETATM    2  C   UNL     1      42.394 -17.292   1.627  1.00  0.00     0.320 C 
HETATM    3  N   UNL     1      43.617 -17.567   2.200  1.00  0.00    -0.307 N 
HETATM    4  O   UNL     1      41.297 -17.521   2.115  1.00  0.00    -0.247 OA
HETATM    5  H   UNL     1      43.477 -16.467   0.076  1.00  0.00     0.164 HD
HETATM    6  H   UNL     1      44.423 -17.309   1.658  1.00  0.00     0.170 HD
ENDROOT
BRANCH   1   7
HETATM    7  C   UNL     1      41.426 -16.101  -0.317  1.00  0.00     0.156 C 
BRANCH   7   8
HETATM    8  C   UNL     1      41.685 -14.601  -0.589  1.00  0.00     0.146 C 
BRANCH   8   9
HETATM    9  C   UNL     1      41.386 -14.217  -2.046  1.00  0.00     0.029 C 
HETATM   10  C   UNL     1      40.955 -15.387  -2.913  1.00  0.00     0.007 C 
ENDBRANCH   8   9
BRANCH   8  11
HETATM   11  O   UNL     1      40.804 -13.856   0.264  1.00  0.00    -0.343 OA
BRANCH  11  12
HETATM   12  C   UNL     1      41.044 -13.752   1.606  1.00  0.00     0.091 A 
HETATM   13  C   UNL     1      40.075 -14.308   2.459  1.00  0.00     0.067 A 
HETATM   14 CL   UNL     1      38.634 -15.035   1.835  1.00  0.00    -0.081 Cl
HETATM   15  C   UNL     1      40.236 -14.276   3.847  1.00  0.00     0.026 A 
HETATM   16  C   UNL     1      41.375 -13.696   4.402  1.00  0.00     0.002 A 
HETATM   17  C   UNL     1      42.345 -13.148   3.568  1.00  0.00     0.003 A 
HETATM   18  C   UNL     1      42.183 -13.175   2.177  1.00  0.00     0.038 A 
ENDBRANCH  11  12
ENDBRANCH   8  11
ENDBRANCH   7   8
ENDBRANCH   1   7
BRANCH   3  19
HETATM   19  C   UNL     1      43.861 -18.122   3.478  1.00  0.00     0.059 A 
HETATM   20  C   UNL     1      44.187 -19.490   3.582  1.00  0.00    -0.032 A 
HETATM   21  C   UNL     1      44.298 -20.390   2.382  1.00  0.00     0.050 C 
HETATM   22  C   UNL     1      44.430 -20.033   4.851  1.00  0.00     0.028 A 
HETATM   23  C   UNL     1      44.340 -19.215   5.964  1.00  0.00     0.117 A 
HETATM   24  N   UNL     1      44.031 -17.908   5.901  1.00  0.00    -0.271 NA
HETATM   25  C   UNL     1      43.804 -17.391   4.665  1.00  0.00     0.146 A 
ENDBRANCH   3  19
TORSDOF 6
ENDMDL
