MODEL 1
REMARK VINA RESULT:      -9.4      0.000      0.000
REMARK  9 active torsions:
REMARK  status: ('A' for Active; 'I' for Inactive)
REMARK    1  A    between atoms: C_6  and  O_7 
REMARK    2  A    between atoms: O_7  and  C_8 
REMARK    3  A    between atoms: C_8  and  C_9 
REMARK       I    between atoms: C_9  and  N_10 
REMARK    4  A    between atoms: N_10  and  C_11 
REMARK    5  A    between atoms: C_11  and  N_12 
REMARK    6  A    between atoms: N_12  and  C_13 
REMARK    7  A    between atoms: C_15  and  O_16 
REMARK    8  A    between atoms: C_17  and  C_18 
REMARK    9  A    between atoms: C_25  and  C_26 
ROOT
HETATM    1  C   UNL     1      40.478 -12.054   6.101  1.00  0.00     0.036 A 
HETATM    2  C   UNL     1      39.878 -13.300   6.270  1.00  0.00     0.067 A 
HETATM    3  C   UNL     1      40.468 -14.457   5.748  1.00  0.00     0.082 A 
HETATM    4  C   UNL     1      41.685 -14.408   5.060  1.00  0.00     0.050 A 
HETATM    5  C   UNL     1      42.321 -13.163   4.948  1.00  0.00     0.021 A 
HETATM    6  C   UNL     1      41.725 -12.002   5.466  1.00  0.00     0.030 A 
ENDROOT
BRANCH   1   7
HETATM    7  N   UNL     1      39.930 -10.829   6.546  1.00  0.00    -0.333 N 
HETATM    8  H   UNL     1      38.914 -10.832   6.659  1.00  0.00     0.168 HD
BRANCH   7   9
HETATM    9  C   UNL     1      40.516  -9.654   6.955  1.00  0.00     0.178 C 
HETATM   10  S   UNL     1      40.642  -8.179   6.175  1.00  0.00    -0.040 SA
BRANCH   9  11
HETATM   11  N   UNL     1      41.124  -9.703   8.196  1.00  0.00    -0.302 N 
HETATM   12  C   UNL     1      40.755 -10.357   9.364  1.00  0.00     0.248 C 
HETATM   13  O   UNL     1      39.688 -10.955   9.493  1.00  0.00    -0.271 OA
HETATM   14  H   UNL     1      42.025  -9.245   8.198  1.00  0.00     0.171 HD
BRANCH  12  15
HETATM   15  C   UNL     1      41.766 -10.192  10.505  1.00  0.00     0.278 C 
BRANCH  15  16
HETATM   16  O   UNL     1      42.489 -11.397  10.769  1.00  0.00    -0.342 OA
BRANCH  16  17
HETATM   17  C   UNL     1      43.700 -11.509  10.144  1.00  0.00     0.069 A 
HETATM   18  C   UNL     1      43.809 -12.519   9.188  1.00  0.00     0.044 A 
HETATM   19  C   UNL     1      44.980 -12.671   8.430  1.00  0.00    -0.053 A 
HETATM   20  C   UNL     1      46.070 -11.814   8.674  1.00  0.00    -0.056 A 
HETATM   21  C   UNL     1      45.021 -13.712   7.343  1.00  0.00     0.049 C 
HETATM   22  C   UNL     1      47.345 -11.924   7.884  1.00  0.00     0.049 C 
HETATM   23  C   UNL     1      45.971 -10.850   9.692  1.00  0.00     0.010 A 
HETATM   24  C   UNL     1      44.793 -10.698  10.426  1.00  0.00     0.037 A 
ENDBRANCH  16  17
ENDBRANCH  15  16
ENDBRANCH  12  15
ENDBRANCH   9  11
ENDBRANCH   7   9
ENDBRANCH   1   7
BRANCH   3  25
HETATM   25  O   UNL     1      39.841 -15.658   5.952  1.00  0.00    -0.360 OA
HETATM   26  H   UNL     1      38.974 -15.507   6.362  1.00  0.00     0.217 HD
ENDBRANCH   3  25
BRANCH   4  27
HETATM   27  C   UNL     1      42.258 -15.602   4.446  1.00  0.00     0.183 A 
HETATM   28  O   UNL     1      42.586 -15.512   3.113  1.00  0.00    -0.289 OA
HETATM   29  C   UNL     1      43.117 -16.738   2.825  1.00  0.00     0.106 A 
HETATM   30  C   UNL     1      43.059 -17.504   3.973  1.00  0.00     0.094 A 
HETATM   31  C   UNL     1      43.637 -17.174   1.615  1.00  0.00     0.040 A 
HETATM   32  N   UNL     1      42.500 -16.783   4.990  1.00  0.00    -0.221 NA
HETATM   33  C   UNL     1      43.547 -18.817   3.945  1.00  0.00     0.042 A 
HETATM   34  C   UNL     1      44.091 -19.316   2.744  1.00  0.00    -0.052 A 
HETATM   35  C   UNL     1      44.129 -18.489   1.602  1.00  0.00     0.010 A 
BRANCH  34  36
HETATM   36  C   UNL     1      44.634 -20.736   2.722  1.00  0.00     0.010 C 
HETATM   37  C   UNL     1      44.751 -21.320   4.131  1.00  0.00     0.015 C 
HETATM   38  C   UNL     1      43.793 -21.643   1.819  1.00  0.00     0.015 C 
ENDBRANCH  34  36
ENDBRANCH   4  27
TORSDOF 9
ENDMDL
MODEL 2
REMARK VINA RESULT:      -9.1      2.119      3.676
REMARK  9 active torsions:
REMARK  status: ('A' for Active; 'I' for Inactive)
REMARK    1  A    between atoms: C_6  and  O_7 
REMARK    2  A    between atoms: O_7  and  C_8 
REMARK    3  A    between atoms: C_8  and  C_9 
REMARK       I    between atoms: C_9  and  N_10 
REMARK    4  A    between atoms: N_10  and  C_11 
REMARK    5  A    between atoms: C_11  and  N_12 
REMARK    6  A    between atoms: N_12  and  C_13 
REMARK    7  A    between atoms: C_15  and  O_16 
REMARK    8  A    between atoms: C_17  and  C_18 
REMARK    9  A    between atoms: C_25  and  C_26 
ROOT
HETATM    1  C   UNL     1      40.641 -12.139   6.435  1.00  0.00     0.036 A 
HETATM    2  C   UNL     1      39.939 -13.343   6.422  1.00  0.00     0.067 A 
HETATM    3  C   UNL     1      40.493 -14.489   5.841  1.00  0.00     0.082 A 
HETATM    4  C   UNL     1      41.772 -14.475   5.274  1.00  0.00     0.050 A 
HETATM    5  C   UNL     1      42.503 -13.280   5.347  1.00  0.00     0.021 A 
HETATM    6  C   UNL     1      41.944 -12.129   5.924  1.00  0.00     0.030 A 
ENDROOT
BRANCH   1   7
HETATM    7  N   UNL     1      40.141 -10.921   6.951  1.00  0.00    -0.333 N 
HETATM    8  H   UNL     1      39.828 -10.254   6.243  1.00  0.00     0.168 HD
BRANCH   7   9
HETATM    9  C   UNL     1      39.900 -10.497   8.237  1.00  0.00     0.178 C 
HETATM   10  S   UNL     1      38.676  -9.532   8.846  1.00  0.00    -0.040 SA
BRANCH   9  11
HETATM   11  N   UNL     1      40.830 -10.907   9.174  1.00  0.00    -0.302 N 
HETATM   12  C   UNL     1      42.177 -10.597   9.314  1.00  0.00     0.248 C 
HETATM   13  O   UNL     1      42.804  -9.932   8.491  1.00  0.00    -0.271 OA
HETATM   14  H   UNL     1      40.413 -11.458   9.911  1.00  0.00     0.171 HD
BRANCH  12  15
HETATM   15  C   UNL     1      42.828 -11.232  10.549  1.00  0.00     0.278 C 
BRANCH  15  16
HETATM   16  O   UNL     1      41.893 -11.440  11.609  1.00  0.00    -0.342 OA
BRANCH  16  17
HETATM   17  C   UNL     1      41.891 -10.488  12.591  1.00  0.00     0.069 A 
HETATM   18  C   UNL     1      40.759  -9.674  12.656  1.00  0.00     0.044 A 
HETATM   19  C   UNL     1      40.616  -8.719  13.674  1.00  0.00    -0.053 A 
HETATM   20  C   UNL     1      41.654  -8.557  14.612  1.00  0.00    -0.056 A 
HETATM   21  C   UNL     1      39.338  -7.928  13.765  1.00  0.00     0.049 C 
HETATM   22  C   UNL     1      41.549  -7.557  15.731  1.00  0.00     0.049 C 
HETATM   23  C   UNL     1      42.819  -9.333  14.488  1.00  0.00     0.010 A 
HETATM   24  C   UNL     1      42.939 -10.293  13.481  1.00  0.00     0.037 A 
ENDBRANCH  16  17
ENDBRANCH  15  16
ENDBRANCH  12  15
ENDBRANCH   9  11
ENDBRANCH   7   9
ENDBRANCH   1   7
BRANCH   3  25
HETATM   25  O   UNL     1      39.765 -15.650   5.866  1.00  0.00    -0.360 OA
HETATM   26  H   UNL     1      39.553 -15.920   4.957  1.00  0.00     0.217 HD
ENDBRANCH   3  25
BRANCH   4  27
HETATM   27  C   UNL     1      42.314 -15.648   4.597  1.00  0.00     0.183 A 
HETATM   28  O   UNL     1      42.662 -15.490   3.275  1.00  0.00    -0.289 OA
HETATM   29  C   UNL     1      43.158 -16.713   2.920  1.00  0.00     0.106 A 
HETATM   30  C   UNL     1      43.061 -17.544   4.020  1.00  0.00     0.094 A 
HETATM   31  C   UNL     1      43.679 -17.093   1.692  1.00  0.00     0.040 A 
HETATM   32  N   UNL     1      42.512 -16.866   5.072  1.00  0.00    -0.221 NA
HETATM   33  C   UNL     1      43.508 -18.868   3.919  1.00  0.00     0.042 A 
HETATM   34  C   UNL     1      44.051 -19.312   2.696  1.00  0.00    -0.052 A 
HETATM   35  C   UNL     1      44.130 -18.420   1.606  1.00  0.00     0.010 A 
BRANCH  34  36
HETATM   36  C   UNL     1      44.549 -20.745   2.595  1.00  0.00     0.010 C 
HETATM   37  C   UNL     1      44.790 -21.359   3.976  1.00  0.00     0.015 C 
HETATM   38  C   UNL     1      43.598 -21.611   1.766  1.00  0.00     0.015 C 
ENDBRANCH  34  36
ENDBRANCH   4  27
TORSDOF 9
ENDMDL
MODEL 3
REMARK VINA RESULT:      -9.1      3.246      9.372
REMARK  9 active torsions:
REMARK  status: ('A' for Active; 'I' for Inactive)
REMARK    1  A    between atoms: C_6  and  O_7 
REMARK    2  A    between atoms: O_7  and  C_8 
REMARK    3  A    between atoms: C_8  and  C_9 
REMARK       I    between atoms: C_9  and  N_10 
REMARK    4  A    between atoms: N_10  and  C_11 
REMARK    5  A    between atoms: C_11  and  N_12 
REMARK    6  A    between atoms: N_12  and  C_13 
REMARK    7  A    between atoms: C_15  and  O_16 
REMARK    8  A    between atoms: C_17  and  C_18 
REMARK    9  A    between atoms: C_25  and  C_26 
ROOT
HETATM    1  C   UNL     1      39.848 -14.234   1.888  1.00  0.00     0.036 A 
HETATM    2  C   UNL     1      39.788 -14.980   3.063  1.00  0.00     0.067 A 
HETATM    3  C   UNL     1      39.813 -14.353   4.314  1.00  0.00     0.082 A 
HETATM    4  C   UNL     1      39.878 -12.960   4.430  1.00  0.00     0.050 A 
HETATM    5  C   UNL     1      39.871 -12.207   3.247  1.00  0.00     0.021 A 
HETATM    6  C   UNL     1      39.853 -12.838   1.993  1.00  0.00     0.030 A 
ENDROOT
BRANCH   1   7
HETATM    7  N   UNL     1      39.882 -14.783   0.586  1.00  0.00    -0.333 N 
HETATM    8  H   UNL     1      38.968 -15.039   0.207  1.00  0.00     0.168 HD
BRANCH   7   9
HETATM    9  C   UNL     1      40.907 -14.947  -0.317  1.00  0.00     0.178 C 
HETATM   10  S   UNL     1      41.041 -14.438  -1.905  1.00  0.00    -0.040 SA
BRANCH   9  11
HETATM   11  N   UNL     1      41.987 -15.673   0.148  1.00  0.00    -0.302 N 
HETATM   12  C   UNL     1      42.054 -16.938   0.718  1.00  0.00     0.248 C 
HETATM   13  O   UNL     1      41.060 -17.604   1.001  1.00  0.00    -0.271 OA
HETATM   14  H   UNL     1      42.867 -15.216  -0.045  1.00  0.00     0.171 HD
BRANCH  12  15
HETATM   15  C   UNL     1      43.484 -17.392   1.038  1.00  0.00     0.278 C 
BRANCH  15  16
HETATM   16  O   UNL     1      43.804 -17.244   2.423  1.00  0.00    -0.342 OA
BRANCH  16  17
HETATM   17  C   UNL     1      44.039 -18.407   3.102  1.00  0.00     0.069 A 
HETATM   18  C   UNL     1      44.070 -19.573   2.336  1.00  0.00     0.044 A 
HETATM   19  C   UNL     1      44.383 -20.810   2.919  1.00  0.00    -0.053 A 
HETATM   20  C   UNL     1      44.627 -20.873   4.305  1.00  0.00    -0.056 A 
HETATM   21  C   UNL     1      44.499 -22.027   2.040  1.00  0.00     0.049 C 
HETATM   22  C   UNL     1      44.979 -22.170   4.980  1.00  0.00     0.049 C 
HETATM   23  C   UNL     1      44.519 -19.702   5.074  1.00  0.00     0.010 A 
HETATM   24  C   UNL     1      44.224 -18.474   4.478  1.00  0.00     0.037 A 
ENDBRANCH  16  17
ENDBRANCH  15  16
ENDBRANCH  12  15
ENDBRANCH   9  11
ENDBRANCH   7   9
ENDBRANCH   1   7
BRANCH   3  25
HETATM   25  O   UNL     1      39.740 -15.134   5.437  1.00  0.00    -0.360 OA
HETATM   26  H   UNL     1      40.564 -15.052   5.944  1.00  0.00     0.217 HD
ENDBRANCH   3  25
BRANCH   4  27
HETATM   27  C   UNL     1      39.985 -12.312   5.733  1.00  0.00     0.183 A 
HETATM   28  O   UNL     1      41.188 -11.710   6.023  1.00  0.00    -0.289 OA
HETATM   29  C   UNL     1      40.992 -11.172   7.264  1.00  0.00     0.106 A 
HETATM   30  C   UNL     1      39.709 -11.494   7.667  1.00  0.00     0.094 A 
HETATM   31  C   UNL     1      41.887 -10.426   8.016  1.00  0.00     0.040 A 
HETATM   32  N   UNL     1      39.086 -12.229   6.699  1.00  0.00    -0.221 NA
HETATM   33  C   UNL     1      39.254 -11.056   8.917  1.00  0.00     0.042 A 
HETATM   34  C   UNL     1      40.118 -10.289   9.726  1.00  0.00    -0.052 A 
HETATM   35  C   UNL     1      41.416  -9.986   9.264  1.00  0.00     0.010 A 
BRANCH  34  36
HETATM   36  C   UNL     1      39.615  -9.802  11.076  1.00  0.00     0.010 C 
HETATM   37  C   UNL     1      40.169 -10.646  12.226  1.00  0.00     0.015 C 
HETATM   38  C   UNL     1      39.923  -8.317  11.284  1.00  0.00     0.015 C 
ENDBRANCH  34  36
ENDBRANCH   4  27
TORSDOF 9
ENDMDL
MODEL 4
REMARK VINA RESULT:      -9.0      4.480      7.978
REMARK  9 active torsions:
REMARK  status: ('A' for Active; 'I' for Inactive)
REMARK    1  A    between atoms: C_6  and  O_7 
REMARK    2  A    between atoms: O_7  and  C_8 
REMARK    3  A    between atoms: C_8  and  C_9 
REMARK       I    between atoms: C_9  and  N_10 
REMARK    4  A    between atoms: N_10  and  C_11 
REMARK    5  A    between atoms: C_11  and  N_12 
REMARK    6  A    between atoms: N_12  and  C_13 
REMARK    7  A    between atoms: C_15  and  O_16 
REMARK    8  A    between atoms: C_17  and  C_18 
REMARK    9  A    between atoms: C_25  and  C_26 
ROOT
HETATM    1  C   UNL     1      42.379 -14.317   5.045  1.00  0.00     0.036 A 
HETATM    2  C   UNL     1      41.880 -15.478   4.460  1.00  0.00     0.067 A 
HETATM    3  C   UNL     1      41.389 -15.468   3.149  1.00  0.00     0.082 A 
HETATM    4  C   UNL     1      41.400 -14.302   2.376  1.00  0.00     0.050 A 
HETATM    5  C   UNL     1      41.963 -13.149   2.943  1.00  0.00     0.021 A 
HETATM    6  C   UNL     1      42.449 -13.159   4.260  1.00  0.00     0.030 A 
ENDROOT
BRANCH   1   7
HETATM    7  N   UNL     1      42.845 -14.222   6.377  1.00  0.00    -0.333 N 
HETATM    8  H   UNL     1      42.115 -14.062   7.074  1.00  0.00     0.168 HD
BRANCH   7   9
HETATM    9  C   UNL     1      44.091 -14.405   6.930  1.00  0.00     0.178 C 
HETATM   10  S   UNL     1      45.072 -13.336   7.763  1.00  0.00    -0.040 SA
BRANCH   9  11
HETATM   11  N   UNL     1      44.635 -15.663   6.745  1.00  0.00    -0.302 N 
HETATM   12  C   UNL     1      44.136 -16.923   7.048  1.00  0.00     0.248 C 
HETATM   13  O   UNL     1      43.089 -17.102   7.669  1.00  0.00    -0.271 OA
HETATM   14  H   UNL     1      45.503 -15.631   6.230  1.00  0.00     0.171 HD
BRANCH  12  15
HETATM   15  C   UNL     1      45.056 -18.069   6.610  1.00  0.00     0.278 C 
BRANCH  15  16
HETATM   16  O   UNL     1      44.394 -19.335   6.634  1.00  0.00    -0.342 OA
BRANCH  16  17
HETATM   17  C   UNL     1      44.361 -20.007   5.443  1.00  0.00     0.069 A 
HETATM   18  C   UNL     1      43.929 -19.275   4.336  1.00  0.00     0.044 A 
HETATM   19  C   UNL     1      43.932 -19.842   3.052  1.00  0.00    -0.053 A 
HETATM   20  C   UNL     1      44.338 -21.181   2.895  1.00  0.00    -0.056 A 
HETATM   21  C   UNL     1      43.550 -18.988   1.872  1.00  0.00     0.049 C 
HETATM   22  C   UNL     1      44.373 -21.835   1.541  1.00  0.00     0.049 C 
HETATM   23  C   UNL     1      44.699 -21.926   4.030  1.00  0.00     0.010 A 
HETATM   24  C   UNL     1      44.709 -21.344   5.300  1.00  0.00     0.037 A 
ENDBRANCH  16  17
ENDBRANCH  15  16
ENDBRANCH  12  15
ENDBRANCH   9  11
ENDBRANCH   7   9
ENDBRANCH   1   7
BRANCH   3  25
HETATM   25  O   UNL     1      40.920 -16.640   2.618  1.00  0.00    -0.360 OA
HETATM   26  H   UNL     1      41.554 -16.977   1.964  1.00  0.00     0.217 HD
ENDBRANCH   3  25
BRANCH   4  27
HETATM   27  C   UNL     1      40.814 -14.272   1.039  1.00  0.00     0.183 A 
HETATM   28  O   UNL     1      41.472 -14.985   0.064  1.00  0.00    -0.289 OA
HETATM   29  C   UNL     1      40.699 -14.806  -1.048  1.00  0.00     0.106 A 
HETATM   30  C   UNL     1      39.643 -13.985  -0.701  1.00  0.00     0.094 A 
HETATM   31  C   UNL     1      40.896 -15.338  -2.314  1.00  0.00     0.040 A 
HETATM   32  N   UNL     1      39.733 -13.640   0.618  1.00  0.00    -0.221 NA
HETATM   33  C   UNL     1      38.692 -13.645  -1.672  1.00  0.00     0.042 A 
HETATM   34  C   UNL     1      38.837 -14.158  -2.977  1.00  0.00    -0.052 A 
HETATM   35  C   UNL     1      39.933 -14.996  -3.276  1.00  0.00     0.010 A 
BRANCH  34  36
HETATM   36  C   UNL     1      37.794 -13.800  -4.024  1.00  0.00     0.010 C 
HETATM   37  C   UNL     1      36.643 -14.808  -4.045  1.00  0.00     0.015 C 
HETATM   38  C   UNL     1      37.274 -12.374  -3.829  1.00  0.00     0.015 C 
ENDBRANCH  34  36
ENDBRANCH   4  27
TORSDOF 9
ENDMDL
MODEL 5
REMARK VINA RESULT:      -9.0      2.039      3.112
REMARK  9 active torsions:
REMARK  status: ('A' for Active; 'I' for Inactive)
REMARK    1  A    between atoms: C_6  and  O_7 
REMARK    2  A    between atoms: O_7  and  C_8 
REMARK    3  A    between atoms: C_8  and  C_9 
REMARK       I    between atoms: C_9  and  N_10 
REMARK    4  A    between atoms: N_10  and  C_11 
REMARK    5  A    between atoms: C_11  and  N_12 
REMARK    6  A    between atoms: N_12  and  C_13 
REMARK    7  A    between atoms: C_15  and  O_16 
REMARK    8  A    between atoms: C_17  and  C_18 
REMARK    9  A    between atoms: C_25  and  C_26 
ROOT
HETATM    1  C   UNL     1      39.613 -12.740   4.626  1.00  0.00     0.036 A 
HETATM    2  C   UNL     1      39.706 -13.680   5.650  1.00  0.00     0.067 A 
HETATM    3  C   UNL     1      40.509 -14.818   5.509  1.00  0.00     0.082 A 
HETATM    4  C   UNL     1      41.259 -15.042   4.349  1.00  0.00     0.050 A 
HETATM    5  C   UNL     1      41.216 -14.062   3.347  1.00  0.00     0.021 A 
HETATM    6  C   UNL     1      40.405 -12.925   3.487  1.00  0.00     0.030 A 
ENDROOT
BRANCH   1   7
HETATM    7  N   UNL     1      38.789 -11.592   4.660  1.00  0.00    -0.333 N 
HETATM    8  H   UNL     1      37.793 -11.785   4.779  1.00  0.00     0.168 HD
BRANCH   7   9
HETATM    9  C   UNL     1      39.084 -10.248   4.664  1.00  0.00     0.178 C 
HETATM   10  S   UNL     1      38.539  -9.018   3.669  1.00  0.00    -0.040 SA
BRANCH   9  11
HETATM   11  N   UNL     1      39.998  -9.852   5.622  1.00  0.00    -0.302 N 
HETATM   12  C   UNL     1      40.017 -10.047   6.996  1.00  0.00     0.248 C 
HETATM   13  O   UNL     1      39.088 -10.562   7.617  1.00  0.00    -0.271 OA
HETATM   14  H   UNL     1      40.817  -9.421   5.214  1.00  0.00     0.171 HD
BRANCH  12  15
HETATM   15  C   UNL     1      41.270  -9.485   7.679  1.00  0.00     0.278 C 
BRANCH  15  16
HETATM   16  O   UNL     1      42.047 -10.504   8.312  1.00  0.00    -0.342 OA
BRANCH  16  17
HETATM   17  C   UNL     1      42.473 -10.220   9.581  1.00  0.00     0.069 A 
HETATM   18  C   UNL     1      41.657  -9.370  10.328  1.00  0.00     0.044 A 
HETATM   19  C   UNL     1      41.957  -9.077  11.667  1.00  0.00    -0.053 A 
HETATM   20  C   UNL     1      43.121  -9.620  12.244  1.00  0.00    -0.056 A 
HETATM   21  C   UNL     1      41.000  -8.232  12.465  1.00  0.00     0.049 C 
HETATM   22  C   UNL     1      43.485  -9.349  13.678  1.00  0.00     0.049 C 
HETATM   23  C   UNL     1      43.971 -10.414  11.455  1.00  0.00     0.010 A 
HETATM   24  C   UNL     1      43.651 -10.712  10.129  1.00  0.00     0.037 A 
ENDBRANCH  16  17
ENDBRANCH  15  16
ENDBRANCH  12  15
ENDBRANCH   9  11
ENDBRANCH   7   9
ENDBRANCH   1   7
BRANCH   3  25
HETATM   25  O   UNL     1      40.574 -15.705   6.552  1.00  0.00    -0.360 OA
HETATM   26  H   UNL     1      39.860 -16.358   6.468  1.00  0.00     0.217 HD
ENDBRANCH   3  25
BRANCH   4  27
HETATM   27  C   UNL     1      42.031 -16.267   4.170  1.00  0.00     0.183 A 
HETATM   28  O   UNL     1      42.929 -16.579   5.165  1.00  0.00    -0.289 OA
HETATM   29  C   UNL     1      43.472 -17.764   4.754  1.00  0.00     0.106 A 
HETATM   30  C   UNL     1      42.902 -18.091   3.538  1.00  0.00     0.094 A 
HETATM   31  C   UNL     1      44.419 -18.537   5.411  1.00  0.00     0.040 A 
HETATM   32  N   UNL     1      42.004 -17.130   3.169  1.00  0.00    -0.221 NA
HETATM   33  C   UNL     1      43.290 -19.274   2.896  1.00  0.00     0.042 A 
HETATM   34  C   UNL     1      44.248 -20.103   3.516  1.00  0.00    -0.052 A 
HETATM   35  C   UNL     1      44.794 -19.724   4.761  1.00  0.00     0.010 A 
BRANCH  34  36
HETATM   36  C   UNL     1      44.654 -21.394   2.824  1.00  0.00     0.010 C 
HETATM   37  C   UNL     1      44.650 -22.581   3.791  1.00  0.00     0.015 C 
HETATM   38  C   UNL     1      43.775 -21.675   1.603  1.00  0.00     0.015 C 
ENDBRANCH  34  36
ENDBRANCH   4  27
TORSDOF 9
ENDMDL
MODEL 6
REMARK VINA RESULT:      -8.8      1.926      3.056
REMARK  9 active torsions:
REMARK  status: ('A' for Active; 'I' for Inactive)
REMARK    1  A    between atoms: C_6  and  O_7 
REMARK    2  A    between atoms: O_7  and  C_8 
REMARK    3  A    between atoms: C_8  and  C_9 
REMARK       I    between atoms: C_9  and  N_10 
REMARK    4  A    between atoms: N_10  and  C_11 
REMARK    5  A    between atoms: C_11  and  N_12 
REMARK    6  A    between atoms: N_12  and  C_13 
REMARK    7  A    between atoms: C_15  and  O_16 
REMARK    8  A    between atoms: C_17  and  C_18 
REMARK    9  A    between atoms: C_25  and  C_26 
ROOT
HETATM    1  C   UNL     1      40.849 -12.296   4.904  1.00  0.00     0.036 A 
HETATM    2  C   UNL     1      40.117 -13.344   4.350  1.00  0.00     0.067 A 
HETATM    3  C   UNL     1      40.688 -14.611   4.190  1.00  0.00     0.082 A 
HETATM    4  C   UNL     1      42.000 -14.878   4.598  1.00  0.00     0.050 A 
HETATM    5  C   UNL     1      42.712 -13.840   5.217  1.00  0.00     0.021 A 
HETATM    6  C   UNL     1      42.141 -12.567   5.370  1.00  0.00     0.030 A 
ENDROOT
BRANCH   1   7
HETATM    7  N   UNL     1      40.374 -10.973   5.055  1.00  0.00    -0.333 N 
HETATM    8  H   UNL     1      39.629 -10.711   4.407  1.00  0.00     0.168 HD
BRANCH   7   9
HETATM    9  C   UNL     1      40.655  -9.994   5.980  1.00  0.00     0.178 C 
HETATM   10  S   UNL     1      41.534  -8.579   5.825  1.00  0.00    -0.040 SA
BRANCH   9  11
HETATM   11  N   UNL     1      40.159 -10.228   7.249  1.00  0.00    -0.302 N 
HETATM   12  C   UNL     1      39.053  -9.702   7.904  1.00  0.00     0.248 C 
HETATM   13  O   UNL     1      38.359  -8.801   7.437  1.00  0.00    -0.271 OA
HETATM   14  H   UNL     1      40.657 -10.968   7.724  1.00  0.00     0.171 HD
BRANCH  12  15
HETATM   15  C   UNL     1      38.830 -10.292   9.302  1.00  0.00     0.278 C 
BRANCH  15  16
HETATM   16  O   UNL     1      39.875 -11.187   9.688  1.00  0.00    -0.342 OA
BRANCH  16  17
HETATM   17  C   UNL     1      40.639 -10.782  10.747  1.00  0.00     0.069 A 
HETATM   18  C   UNL     1      42.019 -10.928  10.602  1.00  0.00     0.044 A 
HETATM   19  C   UNL     1      42.901 -10.471  11.594  1.00  0.00    -0.053 A 
HETATM   20  C   UNL     1      42.374  -9.897  12.767  1.00  0.00    -0.056 A 
HETATM   21  C   UNL     1      44.384 -10.560  11.356  1.00  0.00     0.049 C 
HETATM   22  C   UNL     1      43.271  -9.379  13.857  1.00  0.00     0.049 C 
HETATM   23  C   UNL     1      40.979  -9.826  12.930  1.00  0.00     0.010 A 
HETATM   24  C   UNL     1      40.115 -10.268  11.926  1.00  0.00     0.037 A 
ENDBRANCH  16  17
ENDBRANCH  15  16
ENDBRANCH  12  15
ENDBRANCH   9  11
ENDBRANCH   7   9
ENDBRANCH   1   7
BRANCH   3  25
HETATM   25  O   UNL     1      39.920 -15.610   3.649  1.00  0.00    -0.360 OA
HETATM   26  H   UNL     1      40.111 -15.689   2.700  1.00  0.00     0.217 HD
ENDBRANCH   3  25
BRANCH   4  27
HETATM   27  C   UNL     1      42.620 -16.177   4.358  1.00  0.00     0.183 A 
HETATM   28  O   UNL     1      43.473 -16.641   5.332  1.00  0.00    -0.289 OA
HETATM   29  C   UNL     1      43.870 -17.861   4.863  1.00  0.00     0.106 A 
HETATM   30  C   UNL     1      43.268 -18.059   3.635  1.00  0.00     0.094 A 
HETATM   31  C   UNL     1      44.717 -18.772   5.478  1.00  0.00     0.040 A 
HETATM   32  N   UNL     1      42.491 -16.981   3.316  1.00  0.00    -0.221 NA
HETATM   33  C   UNL     1      43.513 -19.248   2.936  1.00  0.00     0.042 A 
HETATM   34  C   UNL     1      44.363 -20.214   3.512  1.00  0.00    -0.052 A 
HETATM   35  C   UNL     1      44.948 -19.963   4.770  1.00  0.00     0.010 A 
BRANCH  34  36
HETATM   36  C   UNL     1      44.614 -21.510   2.757  1.00  0.00     0.010 C 
HETATM   37  C   UNL     1      44.637 -22.717   3.696  1.00  0.00     0.015 C 
HETATM   38  C   UNL     1      43.594 -21.708   1.632  1.00  0.00     0.015 C 
ENDBRANCH  34  36
ENDBRANCH   4  27
TORSDOF 9
ENDMDL
MODEL 7
REMARK VINA RESULT:      -8.7      2.520      9.298
REMARK  9 active torsions:
REMARK  status: ('A' for Active; 'I' for Inactive)
REMARK    1  A    between atoms: C_6  and  O_7 
REMARK    2  A    between atoms: O_7  and  C_8 
REMARK    3  A    between atoms: C_8  and  C_9 
REMARK       I    between atoms: C_9  and  N_10 
REMARK    4  A    between atoms: N_10  and  C_11 
REMARK    5  A    between atoms: C_11  and  N_12 
REMARK    6  A    between atoms: N_12  and  C_13 
REMARK    7  A    between atoms: C_15  and  O_16 
REMARK    8  A    between atoms: C_17  and  C_18 
REMARK    9  A    between atoms: C_25  and  C_26 
ROOT
HETATM    1  C   UNL     1      39.906 -11.638   4.147  1.00  0.00     0.036 A 
HETATM    2  C   UNL     1      39.438 -12.303   5.278  1.00  0.00     0.067 A 
HETATM    3  C   UNL     1      39.944 -12.002   6.548  1.00  0.00     0.082 A 
HETATM    4  C   UNL     1      40.918 -11.014   6.729  1.00  0.00     0.050 A 
HETATM    5  C   UNL     1      41.340 -10.300   5.599  1.00  0.00     0.021 A 
HETATM    6  C   UNL     1      40.836 -10.607   4.325  1.00  0.00     0.030 A 
ENDROOT
BRANCH   1   7
HETATM    7  N   UNL     1      39.491 -11.911   2.823  1.00  0.00    -0.333 N 
HETATM    8  H   UNL     1      38.495 -11.768   2.650  1.00  0.00     0.168 HD
BRANCH   7   9
HETATM    9  C   UNL     1      40.196 -12.239   1.688  1.00  0.00     0.178 C 
HETATM   10  S   UNL     1      40.177 -11.548   0.165  1.00  0.00    -0.040 SA
BRANCH   9  11
HETATM   11  N   UNL     1      41.033 -13.333   1.813  1.00  0.00    -0.302 N 
HETATM   12  C   UNL     1      40.747 -14.680   1.995  1.00  0.00     0.248 C 
HETATM   13  O   UNL     1      39.610 -15.108   2.184  1.00  0.00    -0.271 OA
HETATM   14  H   UNL     1      42.003 -13.092   1.663  1.00  0.00     0.171 HD
BRANCH  12  15
HETATM   15  C   UNL     1      41.993 -15.573   2.021  1.00  0.00     0.278 C 
BRANCH  15  16
HETATM   16  O   UNL     1      41.670 -16.960   1.899  1.00  0.00    -0.342 OA
BRANCH  16  17
HETATM   17  C   UNL     1      42.490 -17.820   2.576  1.00  0.00     0.069 A 
HETATM   18  C   UNL     1      42.731 -19.051   1.965  1.00  0.00     0.044 A 
HETATM   19  C   UNL     1      43.621 -19.976   2.532  1.00  0.00    -0.053 A 
HETATM   20  C   UNL     1      44.242 -19.666   3.757  1.00  0.00    -0.056 A 
HETATM   21  C   UNL     1      43.925 -21.251   1.792  1.00  0.00     0.049 C 
HETATM   22  C   UNL     1      45.214 -20.615   4.404  1.00  0.00     0.049 C 
HETATM   23  C   UNL     1      43.932 -18.454   4.397  1.00  0.00     0.010 A 
HETATM   24  C   UNL     1      43.058 -17.535   3.811  1.00  0.00     0.037 A 
ENDBRANCH  16  17
ENDBRANCH  15  16
ENDBRANCH  12  15
ENDBRANCH   9  11
ENDBRANCH   7   9
ENDBRANCH   1   7
BRANCH   3  25
HETATM   25  O   UNL     1      39.441 -12.679   7.628  1.00  0.00    -0.360 OA
HETATM   26  H   UNL     1      38.651 -12.221   7.959  1.00  0.00     0.217 HD
ENDBRANCH   3  25
BRANCH   4  27
HETATM   27  C   UNL     1      41.504 -10.759   8.042  1.00  0.00     0.183 A 
HETATM   28  O   UNL     1      42.829 -11.091   8.199  1.00  0.00    -0.289 OA
HETATM   29  C   UNL     1      43.108 -10.721   9.485  1.00  0.00     0.106 A 
HETATM   30  C   UNL     1      41.947 -10.216  10.040  1.00  0.00     0.094 A 
HETATM   31  C   UNL     1      44.322 -10.811  10.150  1.00  0.00     0.040 A 
HETATM   32  N   UNL     1      40.934 -10.258   9.124  1.00  0.00    -0.221 NA
HETATM   33  C   UNL     1      41.964  -9.760  11.364  1.00  0.00     0.042 A 
HETATM   34  C   UNL     1      43.171  -9.823  12.091  1.00  0.00    -0.052 A 
HETATM   35  C   UNL     1      44.327 -10.345  11.474  1.00  0.00     0.010 A 
BRANCH  34  36
HETATM   36  C   UNL     1      43.189  -9.312  13.523  1.00  0.00     0.010 C 
HETATM   37  C   UNL     1      42.648  -7.884  13.622  1.00  0.00     0.015 C 
HETATM   38  C   UNL     1      42.431 -10.254  14.462  1.00  0.00     0.015 C 
ENDBRANCH  34  36
ENDBRANCH   4  27
TORSDOF 9
ENDMDL
MODEL 8
REMARK VINA RESULT:      -8.3      2.946      9.485
REMARK  9 active torsions:
REMARK  status: ('A' for Active; 'I' for Inactive)
REMARK    1  A    between atoms: C_6  and  O_7 
REMARK    2  A    between atoms: O_7  and  C_8 
REMARK    3  A    between atoms: C_8  and  C_9 
REMARK       I    between atoms: C_9  and  N_10 
REMARK    4  A    between atoms: N_10  and  C_11 
REMARK    5  A    between atoms: C_11  and  N_12 
REMARK    6  A    between atoms: N_12  and  C_13 
REMARK    7  A    between atoms: C_15  and  O_16 
REMARK    8  A    between atoms: C_17  and  C_18 
REMARK    9  A    between atoms: C_25  and  C_26 
ROOT
HETATM    1  C   UNL     1      39.334 -13.603   3.145  1.00  0.00     0.036 A 
HETATM    2  C   UNL     1      39.731 -14.291   4.290  1.00  0.00     0.067 A 
HETATM    3  C   UNL     1      39.993 -13.607   5.483  1.00  0.00     0.082 A 
HETATM    4  C   UNL     1      39.846 -12.219   5.576  1.00  0.00     0.050 A 
HETATM    5  C   UNL     1      39.383 -11.536   4.442  1.00  0.00     0.021 A 
HETATM    6  C   UNL     1      39.127 -12.222   3.243  1.00  0.00     0.030 A 
ENDROOT
BRANCH   1   7
HETATM    7  N   UNL     1      39.100 -14.202   1.886  1.00  0.00    -0.333 N 
HETATM    8  H   UNL     1      38.190 -14.657   1.793  1.00  0.00     0.168 HD
BRANCH   7   9
HETATM    9  C   UNL     1      39.828 -14.204   0.719  1.00  0.00     0.178 C 
HETATM   10  S   UNL     1      39.713 -13.220  -0.629  1.00  0.00    -0.040 SA
BRANCH   9  11
HETATM   11  N   UNL     1      40.789 -15.194   0.629  1.00  0.00    -0.302 N 
HETATM   12  C   UNL     1      42.008 -15.340   1.276  1.00  0.00     0.248 C 
HETATM   13  O   UNL     1      42.487 -14.478   2.012  1.00  0.00    -0.271 OA
HETATM   14  H   UNL     1      40.489 -15.966   0.049  1.00  0.00     0.171 HD
BRANCH  12  15
HETATM   15  C   UNL     1      42.741 -16.640   0.922  1.00  0.00     0.278 C 
BRANCH  15  16
HETATM   16  O   UNL     1      42.064 -17.797   1.417  1.00  0.00    -0.342 OA
BRANCH  16  17
HETATM   17  C   UNL     1      42.783 -18.579   2.277  1.00  0.00     0.069 A 
HETATM   18  C   UNL     1      43.183 -19.824   1.790  1.00  0.00     0.044 A 
HETATM   19  C   UNL     1      43.993 -20.674   2.559  1.00  0.00    -0.053 A 
HETATM   20  C   UNL     1      44.367 -20.273   3.856  1.00  0.00    -0.056 A 
HETATM   21  C   UNL     1      44.480 -21.965   1.959  1.00  0.00     0.049 C 
HETATM   22  C   UNL     1      45.244 -21.138   4.721  1.00  0.00     0.049 C 
HETATM   23  C   UNL     1      43.894 -19.049   4.360  1.00  0.00     0.010 A 
HETATM   24  C   UNL     1      43.104 -18.206   3.576  1.00  0.00     0.037 A 
ENDBRANCH  16  17
ENDBRANCH  15  16
ENDBRANCH  12  15
ENDBRANCH   9  11
ENDBRANCH   7   9
ENDBRANCH   1   7
BRANCH   3  25
HETATM   25  O   UNL     1      40.369 -14.334   6.583  1.00  0.00    -0.360 OA
HETATM   26  H   UNL     1      40.321 -15.282   6.378  1.00  0.00     0.217 HD
ENDBRANCH   3  25
BRANCH   4  27
HETATM   27  C   UNL     1      40.197 -11.499   6.795  1.00  0.00     0.183 A 
HETATM   28  O   UNL     1      39.152 -10.993   7.533  1.00  0.00    -0.289 OA
HETATM   29  C   UNL     1      39.763 -10.412   8.609  1.00  0.00     0.106 A 
HETATM   30  C   UNL     1      41.128 -10.570   8.455  1.00  0.00     0.094 A 
HETATM   31  C   UNL     1      39.162  -9.775   9.684  1.00  0.00     0.040 A 
HETATM   32  N   UNL     1      41.394 -11.245   7.298  1.00  0.00    -0.221 NA
HETATM   33  C   UNL     1      41.990 -10.059   9.434  1.00  0.00     0.042 A 
HETATM   34  C   UNL     1      41.437  -9.403  10.554  1.00  0.00    -0.052 A 
HETATM   35  C   UNL     1      40.037  -9.273  10.662  1.00  0.00     0.010 A 
BRANCH  34  36
HETATM   36  C   UNL     1      42.376  -8.864  11.622  1.00  0.00     0.010 C 
HETATM   37  C   UNL     1      41.617  -8.440  12.881  1.00  0.00     0.015 C 
HETATM   38  C   UNL     1      43.479  -9.870  11.956  1.00  0.00     0.015 C 
ENDBRANCH  34  36
ENDBRANCH   4  27
TORSDOF 9
ENDMDL
MODEL 9
REMARK VINA RESULT:      -8.3      4.430      5.748
REMARK  9 active torsions:
REMARK  status: ('A' for Active; 'I' for Inactive)
REMARK    1  A    between atoms: C_6  and  O_7 
REMARK    2  A    between atoms: O_7  and  C_8 
REMARK    3  A    between atoms: C_8  and  C_9 
REMARK       I    between atoms: C_9  and  N_10 
REMARK    4  A    between atoms: N_10  and  C_11 
REMARK    5  A    between atoms: C_11  and  N_12 
REMARK    6  A    between atoms: N_12  and  C_13 
REMARK    7  A    between atoms: C_15  and  O_16 
REMARK    8  A    between atoms: C_17  and  C_18 
REMARK    9  A    between atoms: C_25  and  C_26 
ROOT
HETATM    1  C   UNL     1      39.816 -13.806  -0.246  1.00  0.00     0.036 A 
HETATM    2  C   UNL     1      39.224 -14.473   0.825  1.00  0.00     0.067 A 
HETATM    3  C   UNL     1      39.928 -15.449   1.539  1.00  0.00     0.082 A 
HETATM    4  C   UNL     1      41.250 -15.775   1.220  1.00  0.00     0.050 A 
HETATM    5  C   UNL     1      41.866 -15.056   0.185  1.00  0.00     0.021 A 
HETATM    6  C   UNL     1      41.158 -14.082  -0.536  1.00  0.00     0.030 A 
ENDROOT
BRANCH   1   7
HETATM    7  N   UNL     1      39.166 -12.846  -1.056  1.00  0.00    -0.333 N 
HETATM    8  H   UNL     1      38.806 -13.208  -1.941  1.00  0.00     0.168 HD
BRANCH   7   9
HETATM    9  C   UNL     1      38.833 -11.530  -0.834  1.00  0.00     0.178 C 
HETATM   10  S   UNL     1      38.440 -10.317  -1.917  1.00  0.00    -0.040 SA
BRANCH   9  11
HETATM   11  N   UNL     1      38.855 -11.135   0.490  1.00  0.00    -0.302 N 
HETATM   12  C   UNL     1      37.848 -11.104   1.446  1.00  0.00     0.248 C 
HETATM   13  O   UNL     1      36.670 -11.353   1.194  1.00  0.00    -0.271 OA
HETATM   14  H   UNL     1      39.788 -10.914   0.808  1.00  0.00     0.171 HD
BRANCH  12  15
HETATM   15  C   UNL     1      38.329 -10.646   2.829  1.00  0.00     0.278 C 
BRANCH  15  16
HETATM   16  O   UNL     1      38.433 -11.731   3.754  1.00  0.00    -0.342 OA
BRANCH  16  17
HETATM   17  C   UNL     1      39.681 -12.273   3.890  1.00  0.00     0.069 A 
HETATM   18  C   UNL     1      39.802 -13.317   4.808  1.00  0.00     0.044 A 
HETATM   19  C   UNL     1      41.018 -13.998   4.969  1.00  0.00    -0.053 A 
HETATM   20  C   UNL     1      42.138 -13.588   4.220  1.00  0.00    -0.056 A 
HETATM   21  C   UNL     1      41.080 -15.180   5.900  1.00  0.00     0.049 C 
HETATM   22  C   UNL     1      43.462 -14.290   4.343  1.00  0.00     0.049 C 
HETATM   23  C   UNL     1      42.018 -12.487   3.354  1.00  0.00     0.010 A 
HETATM   24  C   UNL     1      40.797 -11.830   3.191  1.00  0.00     0.037 A 
ENDBRANCH  16  17
ENDBRANCH  15  16
ENDBRANCH  12  15
ENDBRANCH   9  11
ENDBRANCH   7   9
ENDBRANCH   1   7
BRANCH   3  25
HETATM   25  O   UNL     1      39.302 -16.066   2.591  1.00  0.00    -0.360 OA
HETATM   26  H   UNL     1      38.813 -15.407   3.110  1.00  0.00     0.217 HD
ENDBRANCH   3  25
BRANCH   4  27
HETATM   27  C   UNL     1      41.955 -16.849   1.912  1.00  0.00     0.183 A 
HETATM   28  O   UNL     1      42.584 -17.782   1.121  1.00  0.00    -0.289 OA
HETATM   29  C   UNL     1      43.173 -18.627   2.019  1.00  0.00     0.106 A 
HETATM   30  C   UNL     1      42.852 -18.185   3.289  1.00  0.00     0.094 A 
HETATM   31  C   UNL     1      43.962 -19.736   1.750  1.00  0.00     0.040 A 
HETATM   32  N   UNL     1      42.069 -17.068   3.211  1.00  0.00    -0.221 NA
HETATM   33  C   UNL     1      43.339 -18.885   4.401  1.00  0.00     0.042 A 
HETATM   34  C   UNL     1      44.150 -20.019   4.190  1.00  0.00    -0.052 A 
HETATM   35  C   UNL     1      44.449 -20.425   2.873  1.00  0.00     0.010 A 
BRANCH  34  36
HETATM   36  C   UNL     1      44.689 -20.766   5.400  1.00  0.00     0.010 C 
HETATM   37  C   UNL     1      43.842 -20.509   6.648  1.00  0.00     0.015 C 
HETATM   38  C   UNL     1      44.815 -22.266   5.120  1.00  0.00     0.015 C 
ENDBRANCH  34  36
ENDBRANCH   4  27
TORSDOF 9
ENDMDL
MODEL 10
REMARK VINA RESULT:      -8.3      5.342      8.375
REMARK  9 active torsions:
REMARK  status: ('A' for Active; 'I' for Inactive)
REMARK    1  A    between atoms: C_6  and  O_7 
REMARK    2  A    between atoms: O_7  and  C_8 
REMARK    3  A    between atoms: C_8  and  C_9 
REMARK       I    between atoms: C_9  and  N_10 
REMARK    4  A    between atoms: N_10  and  C_11 
REMARK    5  A    between atoms: C_11  and  N_12 
REMARK    6  A    between atoms: N_12  and  C_13 
REMARK    7  A    between atoms: C_15  and  O_16 
REMARK    8  A    between atoms: C_17  and  C_18 
REMARK    9  A    between atoms: C_25  and  C_26 
ROOT
HETATM    1  C   UNL     1      40.855 -12.055   1.115  1.00  0.00     0.036 A 
HETATM    2  C   UNL     1      41.911 -12.182   2.016  1.00  0.00     0.067 A 
HETATM    3  C   UNL     1      42.490 -13.430   2.273  1.00  0.00     0.082 A 
HETATM    4  C   UNL     1      42.046 -14.587   1.623  1.00  0.00     0.050 A 
HETATM    5  C   UNL     1      41.028 -14.448   0.669  1.00  0.00     0.021 A 
HETATM    6  C   UNL     1      40.444 -13.197   0.417  1.00  0.00     0.030 A 
ENDROOT
BRANCH   1   7
HETATM    7  N   UNL     1      40.177 -10.847   0.834  1.00  0.00    -0.333 N 
HETATM    8  H   UNL     1      39.198 -10.830   1.127  1.00  0.00     0.168 HD
BRANCH   7   9
HETATM    9  C   UNL     1      40.612  -9.644   0.329  1.00  0.00     0.178 C 
HETATM   10  S   UNL     1      40.497  -8.100   0.963  1.00  0.00    -0.040 SA
BRANCH   9  11
HETATM   11  N   UNL     1      41.214  -9.714  -0.914  1.00  0.00    -0.302 N 
HETATM   12  C   UNL     1      42.518 -10.025  -1.276  1.00  0.00     0.248 C 
HETATM   13  O   UNL     1      43.421 -10.201  -0.460  1.00  0.00    -0.271 OA
HETATM   14  H   UNL     1      40.551  -9.591  -1.667  1.00  0.00     0.171 HD
BRANCH  12  15
HETATM   15  C   UNL     1      42.745 -10.046  -2.793  1.00  0.00     0.278 C 
BRANCH  15  16
HETATM   16  O   UNL     1      41.601 -10.517  -3.507  1.00  0.00    -0.342 OA
BRANCH  16  17
HETATM   17  C   UNL     1      41.326 -11.850  -3.370  1.00  0.00     0.069 A 
HETATM   18  C   UNL     1      39.977 -12.204  -3.374  1.00  0.00     0.044 A 
HETATM   19  C   UNL     1      39.584 -13.550  -3.320  1.00  0.00    -0.053 A 
HETATM   20  C   UNL     1      40.573 -14.548  -3.219  1.00  0.00    -0.056 A 
HETATM   21  C   UNL     1      38.123 -13.894  -3.423  1.00  0.00     0.049 C 
HETATM   22  C   UNL     1      40.211 -16.008  -3.170  1.00  0.00     0.049 C 
HETATM   23  C   UNL     1      41.924 -14.170  -3.141  1.00  0.00     0.010 A 
HETATM   24  C   UNL     1      42.301 -12.828  -3.214  1.00  0.00     0.037 A 
ENDBRANCH  16  17
ENDBRANCH  15  16
ENDBRANCH  12  15
ENDBRANCH   9  11
ENDBRANCH   7   9
ENDBRANCH   1   7
BRANCH   3  25
HETATM   25  O   UNL     1      43.533 -13.496   3.159  1.00  0.00    -0.360 OA
HETATM   26  H   UNL     1      44.151 -14.192   2.881  1.00  0.00     0.217 HD
ENDBRANCH   3  25
BRANCH   4  27
HETATM   27  C   UNL     1      42.595 -15.899   1.952  1.00  0.00     0.183 A 
HETATM   28  O   UNL     1      42.849 -16.144   3.281  1.00  0.00    -0.289 OA
HETATM   29  C   UNL     1      43.315 -17.428   3.293  1.00  0.00     0.106 A 
HETATM   30  C   UNL     1      43.344 -17.879   1.986  1.00  0.00     0.094 A 
HETATM   31  C   UNL     1      43.696 -18.183   4.392  1.00  0.00     0.040 A 
HETATM   32  N   UNL     1      42.901 -16.899   1.143  1.00  0.00    -0.221 NA
HETATM   33  C   UNL     1      43.787 -19.181   1.721  1.00  0.00     0.042 A 
HETATM   34  C   UNL     1      44.184 -19.999   2.800  1.00  0.00    -0.052 A 
HETATM   35  C   UNL     1      44.131 -19.489   4.114  1.00  0.00     0.010 A 
BRANCH  34  36
HETATM   36  C   UNL     1      44.648 -21.417   2.509  1.00  0.00     0.010 C 
HETATM   37  C   UNL     1      44.564 -22.307   3.751  1.00  0.00     0.015 C 
HETATM   38  C   UNL     1      43.875 -22.030   1.339  1.00  0.00     0.015 C 
ENDBRANCH  34  36
ENDBRANCH   4  27
TORSDOF 9
ENDMDL
