MODEL 1
REMARK VINA RESULT:      -9.0      0.000      0.000
REMARK  3 active torsions:
REMARK  status: ('A' for Active; 'I' for Inactive)
REMARK    1  A    between atoms: C_2  and  O_3 
REMARK    2  A    between atoms: O_3  and  C_4 
REMARK    3  A    between atoms: C_5  and  N_6 
REMARK       I    between atoms: N_6  and  C_7 
REMARK       I    between atoms: C_7  and  N_8 
ROOT
HETATM    1  N   UNL     1      41.182 -14.826   1.317  1.00  0.00    -0.306 N 
HETATM    2  C   UNL     1      41.606 -16.082   0.911  1.00  0.00     0.323 C 
HETATM    3  N   UNL     1      42.765 -16.517   1.542  1.00  0.00    -0.328 N 
HETATM    4  C   UNL     1      43.448 -17.686   0.976  1.00  0.00     0.185 C 
HETATM    5  C   UNL     1      43.751 -18.636   2.078  1.00  0.00     0.035 A 
HETATM    6  C   UNL     1      43.676 -18.388   3.434  1.00  0.00    -0.020 A 
HETATM    7  C   UNL     1      43.218 -17.067   3.949  1.00  0.00     0.061 C 
HETATM    8  C   UNL     1      43.290 -16.003   2.827  1.00  0.00     0.132 C 
HETATM    9  N   UNL     1      44.151 -19.930   1.900  1.00  0.00    -0.357 N 
HETATM   10  H   UNL     1      44.270 -20.393   1.009  1.00  0.00     0.166 HD
HETATM   11  C   UNL     1      44.343 -20.532   3.126  1.00  0.00     0.043 A 
HETATM   12  C   UNL     1      44.051 -19.581   4.109  1.00  0.00    -0.001 A 
HETATM   13  C   UNL     1      44.739 -21.839   3.431  1.00  0.00     0.030 A 
HETATM   14  C   UNL     1      44.840 -22.187   4.781  1.00  0.00     0.002 A 
HETATM   15  C   UNL     1      44.555 -21.262   5.782  1.00  0.00     0.001 A 
HETATM   16  C   UNL     1      44.160 -19.958   5.462  1.00  0.00     0.014 A 
HETATM   17  O   UNL     1      41.086 -16.715  -0.002  1.00  0.00    -0.247 OA
HETATM   18  H   UNL     1      41.965 -14.195   1.381  1.00  0.00     0.171 HD
ENDROOT
BRANCH   1  19
HETATM   19  C   UNL     1      40.003 -14.265   0.760  1.00  0.00     0.069 C 
HETATM   20  C   UNL     1      40.039 -13.346  -0.304  1.00  0.00     0.096 C 
HETATM   21  C   UNL     1      38.862 -12.701  -0.688  1.00  0.00     0.039 C 
HETATM   22  C   UNL     1      37.644 -13.046  -0.100  1.00  0.00     0.003 C 
HETATM   23  C   UNL     1      37.596 -14.033   0.881  1.00  0.00     0.002 C 
HETATM   24  C   UNL     1      38.774 -14.647   1.310  1.00  0.00     0.032 C 
BRANCH  20  25
HETATM   25  O   UNL     1      41.239 -13.092  -0.903  1.00  0.00    -0.339 OA
BRANCH  25  26
HETATM   26  C   UNL     1      41.422 -13.331  -2.314  1.00  0.00     0.057 C 
HETATM   27  C   UNL     1      40.587 -12.307  -3.093  1.00  0.00     0.045 C 
HETATM   28  C   UNL     1      41.149 -14.760  -2.818  1.00  0.00     0.045 C 
HETATM   29  C   UNL     1      42.911 -13.034  -2.568  1.00  0.00     0.045 C 
ENDBRANCH  25  26
ENDBRANCH  20  25
ENDBRANCH   1  19
TORSDOF 3
ENDMDL
MODEL 2
REMARK VINA RESULT:      -8.9      2.060      2.936
REMARK  3 active torsions:
REMARK  status: ('A' for Active; 'I' for Inactive)
REMARK    1  A    between atoms: C_2  and  O_3 
REMARK    2  A    between atoms: O_3  and  C_4 
REMARK    3  A    between atoms: C_5  and  N_6 
REMARK       I    between atoms: N_6  and  C_7 
REMARK       I    between atoms: C_7  and  N_8 
ROOT
HETATM    1  N   UNL     1      41.176 -13.664   1.450  1.00  0.00    -0.306 N 
HETATM    2  C   UNL     1      42.160 -14.220   2.253  1.00  0.00     0.323 C 
HETATM    3  N   UNL     1      41.841 -15.478   2.749  1.00  0.00    -0.328 N 
HETATM    4  C   UNL     1      42.676 -16.014   3.830  1.00  0.00     0.185 C 
HETATM    5  C   UNL     1      43.060 -17.407   3.485  1.00  0.00     0.035 A 
HETATM    6  C   UNL     1      42.526 -18.192   2.482  1.00  0.00    -0.020 A 
HETATM    7  C   UNL     1      41.473 -17.663   1.570  1.00  0.00     0.061 C 
HETATM    8  C   UNL     1      40.829 -16.395   2.180  1.00  0.00     0.132 C 
HETATM    9  N   UNL     1      44.028 -18.127   4.124  1.00  0.00    -0.357 N 
HETATM   10  H   UNL     1      44.602 -17.796   4.887  1.00  0.00     0.166 HD
HETATM   11  C   UNL     1      44.132 -19.379   3.554  1.00  0.00     0.043 A 
HETATM   12  C   UNL     1      43.196 -19.445   2.517  1.00  0.00    -0.001 A 
HETATM   13  C   UNL     1      44.987 -20.441   3.871  1.00  0.00     0.030 A 
HETATM   14  C   UNL     1      44.883 -21.606   3.107  1.00  0.00     0.002 A 
HETATM   15  C   UNL     1      43.961 -21.702   2.068  1.00  0.00     0.001 A 
HETATM   16  C   UNL     1      43.112 -20.631   1.762  1.00  0.00     0.014 A 
HETATM   17  O   UNL     1      43.176 -13.622   2.599  1.00  0.00    -0.247 OA
HETATM   18  H   UNL     1      40.266 -13.806   1.862  1.00  0.00     0.171 HD
ENDROOT
BRANCH   1  19
HETATM   19  C   UNL     1      41.378 -12.385   0.869  1.00  0.00     0.069 C 
HETATM   20  C   UNL     1      41.912 -12.223  -0.423  1.00  0.00     0.096 C 
HETATM   21  C   UNL     1      42.248 -10.944  -0.866  1.00  0.00     0.039 C 
HETATM   22  C   UNL     1      41.955  -9.826  -0.083  1.00  0.00     0.003 C 
HETATM   23  C   UNL     1      41.330  -9.981   1.151  1.00  0.00     0.002 C 
HETATM   24  C   UNL     1      41.037 -11.260   1.627  1.00  0.00     0.032 C 
BRANCH  20  25
HETATM   25  O   UNL     1      42.114 -13.337  -1.186  1.00  0.00    -0.339 OA
BRANCH  25  26
HETATM   26  C   UNL     1      41.081 -13.819  -2.070  1.00  0.00     0.057 C 
HETATM   27  C   UNL     1      41.565 -13.662  -3.516  1.00  0.00     0.045 C 
HETATM   28  C   UNL     1      39.676 -13.216  -1.892  1.00  0.00     0.045 C 
HETATM   29  C   UNL     1      40.975 -15.324  -1.758  1.00  0.00     0.045 C 
ENDBRANCH  25  26
ENDBRANCH  20  25
ENDBRANCH   1  19
TORSDOF 3
ENDMDL
MODEL 3
REMARK VINA RESULT:      -8.5      1.759      3.017
REMARK  3 active torsions:
REMARK  status: ('A' for Active; 'I' for Inactive)
REMARK    1  A    between atoms: C_2  and  O_3 
REMARK    2  A    between atoms: O_3  and  C_4 
REMARK    3  A    between atoms: C_5  and  N_6 
REMARK       I    between atoms: N_6  and  C_7 
REMARK       I    between atoms: C_7  and  N_8 
ROOT
HETATM    1  N   UNL     1      41.507 -14.880   1.426  1.00  0.00    -0.306 N 
HETATM    2  C   UNL     1      41.816 -16.161   0.997  1.00  0.00     0.323 C 
HETATM    3  N   UNL     1      42.970 -16.684   1.567  1.00  0.00    -0.328 N 
HETATM    4  C   UNL     1      43.534 -17.898   0.965  1.00  0.00     0.185 C 
HETATM    5  C   UNL     1      43.823 -18.873   2.049  1.00  0.00     0.035 A 
HETATM    6  C   UNL     1      43.837 -18.626   3.407  1.00  0.00    -0.020 A 
HETATM    7  C   UNL     1      43.505 -17.277   3.946  1.00  0.00     0.061 C 
HETATM    8  C   UNL     1      43.597 -16.217   2.823  1.00  0.00     0.132 C 
HETATM    9  N   UNL     1      44.115 -20.192   1.849  1.00  0.00    -0.357 N 
HETATM   10  H   UNL     1      44.153 -20.659   0.953  1.00  0.00     0.166 HD
HETATM   11  C   UNL     1      44.325 -20.812   3.063  1.00  0.00     0.043 A 
HETATM   12  C   UNL     1      44.157 -19.847   4.061  1.00  0.00    -0.001 A 
HETATM   13  C   UNL     1      44.639 -22.147   3.346  1.00  0.00     0.030 A 
HETATM   14  C   UNL     1      44.784 -22.507   4.688  1.00  0.00     0.002 A 
HETATM   15  C   UNL     1      44.621 -21.568   5.704  1.00  0.00     0.001 A 
HETATM   16  C   UNL     1      44.308 -20.237   5.406  1.00  0.00     0.014 A 
HETATM   17  O   UNL     1      41.203 -16.750   0.112  1.00  0.00    -0.247 OA
HETATM   18  H   UNL     1      42.338 -14.308   1.449  1.00  0.00     0.171 HD
ENDROOT
BRANCH   1  19
HETATM   19  C   UNL     1      40.346 -14.230   0.931  1.00  0.00     0.069 C 
HETATM   20  C   UNL     1      39.330 -13.757   1.781  1.00  0.00     0.096 C 
HETATM   21  C   UNL     1      38.139 -13.288   1.226  1.00  0.00     0.039 C 
HETATM   22  C   UNL     1      37.999 -13.184  -0.159  1.00  0.00     0.003 C 
HETATM   23  C   UNL     1      39.047 -13.555  -0.997  1.00  0.00     0.002 C 
HETATM   24  C   UNL     1      40.223 -14.075  -0.454  1.00  0.00     0.032 C 
BRANCH  20  25
HETATM   25  O   UNL     1      39.536 -13.807   3.130  1.00  0.00    -0.339 OA
BRANCH  25  26
HETATM   26  C   UNL     1      40.103 -12.679   3.829  1.00  0.00     0.057 C 
HETATM   27  C   UNL     1      39.011 -12.050   4.703  1.00  0.00     0.045 C 
HETATM   28  C   UNL     1      40.803 -11.610   2.970  1.00  0.00     0.045 C 
HETATM   29  C   UNL     1      41.170 -13.292   4.755  1.00  0.00     0.045 C 
ENDBRANCH  25  26
ENDBRANCH  20  25
ENDBRANCH   1  19
TORSDOF 3
ENDMDL
MODEL 4
REMARK VINA RESULT:      -8.5      1.890      2.777
REMARK  3 active torsions:
REMARK  status: ('A' for Active; 'I' for Inactive)
REMARK    1  A    between atoms: C_2  and  O_3 
REMARK    2  A    between atoms: O_3  and  C_4 
REMARK    3  A    between atoms: C_5  and  N_6 
REMARK       I    between atoms: N_6  and  C_7 
REMARK       I    between atoms: C_7  and  N_8 
ROOT
HETATM    1  N   UNL     1      39.960 -13.853   1.268  1.00  0.00    -0.306 N 
HETATM    2  C   UNL     1      40.837 -14.196   2.284  1.00  0.00     0.323 C 
HETATM    3  N   UNL     1      40.742 -15.522   2.690  1.00  0.00    -0.328 N 
HETATM    4  C   UNL     1      41.409 -15.899   3.941  1.00  0.00     0.185 C 
HETATM    5  C   UNL     1      42.204 -17.132   3.700  1.00  0.00     0.035 A 
HETATM    6  C   UNL     1      42.137 -17.962   2.599  1.00  0.00    -0.020 A 
HETATM    7  C   UNL     1      41.227 -17.655   1.459  1.00  0.00     0.061 C 
HETATM    8  C   UNL     1      40.157 -16.624   1.894  1.00  0.00     0.132 C 
HETATM    9  N   UNL     1      43.147 -17.628   4.555  1.00  0.00    -0.357 N 
HETATM   10  H   UNL     1      43.423 -17.211   5.433  1.00  0.00     0.166 HD
HETATM   11  C   UNL     1      43.696 -18.778   4.027  1.00  0.00     0.043 A 
HETATM   12  C   UNL     1      43.076 -19.011   2.795  1.00  0.00    -0.001 A 
HETATM   13  C   UNL     1      44.693 -19.613   4.543  1.00  0.00     0.030 A 
HETATM   14  C   UNL     1      45.071 -20.720   3.777  1.00  0.00     0.002 A 
HETATM   15  C   UNL     1      44.473 -20.977   2.546  1.00  0.00     0.001 A 
HETATM   16  C   UNL     1      43.475 -20.132   2.043  1.00  0.00     0.014 A 
HETATM   17  O   UNL     1      41.558 -13.389   2.865  1.00  0.00    -0.247 OA
HETATM   18  H   UNL     1      39.046 -14.241   1.447  1.00  0.00     0.171 HD
ENDROOT
BRANCH   1  19
HETATM   19  C   UNL     1      39.961 -12.532   0.751  1.00  0.00     0.069 C 
HETATM   20  C   UNL     1      40.717 -12.166  -0.378  1.00  0.00     0.096 C 
HETATM   21  C   UNL     1      40.811 -10.820  -0.729  1.00  0.00     0.039 C 
HETATM   22  C   UNL     1      40.075  -9.856  -0.037  1.00  0.00     0.003 C 
HETATM   23  C   UNL     1      39.245 -10.234   1.015  1.00  0.00     0.002 C 
HETATM   24  C   UNL     1      39.183 -11.572   1.408  1.00  0.00     0.032 C 
BRANCH  20  25
HETATM   25  O   UNL     1      41.362 -13.149  -1.073  1.00  0.00    -0.339 OA
BRANCH  25  26
HETATM   26  C   UNL     1      40.743 -13.765  -2.221  1.00  0.00     0.057 C 
HETATM   27  C   UNL     1      41.540 -13.375  -3.472  1.00  0.00     0.045 C 
HETATM   28  C   UNL     1      39.239 -13.503  -2.424  1.00  0.00     0.045 C 
HETATM   29  C   UNL     1      40.916 -15.278  -1.990  1.00  0.00     0.045 C 
ENDBRANCH  25  26
ENDBRANCH  20  25
ENDBRANCH   1  19
TORSDOF 3
ENDMDL
MODEL 5
REMARK VINA RESULT:      -8.4      4.286      8.773
REMARK  3 active torsions:
REMARK  status: ('A' for Active; 'I' for Inactive)
REMARK    1  A    between atoms: C_2  and  O_3 
REMARK    2  A    between atoms: O_3  and  C_4 
REMARK    3  A    between atoms: C_5  and  N_6 
REMARK       I    between atoms: N_6  and  C_7 
REMARK       I    between atoms: C_7  and  N_8 
ROOT
HETATM    1  N   UNL     1      41.929 -17.291   3.590  1.00  0.00    -0.306 N 
HETATM    2  C   UNL     1      42.444 -16.009   3.473  1.00  0.00     0.323 C 
HETATM    3  N   UNL     1      41.486 -15.006   3.552  1.00  0.00    -0.328 N 
HETATM    4  C   UNL     1      41.886 -13.652   3.150  1.00  0.00     0.185 C 
HETATM    5  C   UNL     1      41.447 -12.698   4.201  1.00  0.00     0.035 A 
HETATM    6  C   UNL     1      40.578 -12.951   5.243  1.00  0.00    -0.020 A 
HETATM    7  C   UNL     1      39.991 -14.307   5.442  1.00  0.00     0.061 C 
HETATM    8  C   UNL     1      40.141 -15.147   4.151  1.00  0.00     0.132 C 
HETATM    9  N   UNL     1      41.861 -11.399   4.293  1.00  0.00    -0.357 N 
HETATM   10  H   UNL     1      42.518 -10.945   3.674  1.00  0.00     0.166 HD
HETATM   11  C   UNL     1      41.267 -10.797   5.382  1.00  0.00     0.043 A 
HETATM   12  C   UNL     1      40.453 -11.753   5.998  1.00  0.00    -0.001 A 
HETATM   13  C   UNL     1      41.400  -9.491   5.867  1.00  0.00     0.030 A 
HETATM   14  C   UNL     1      40.681  -9.150   7.016  1.00  0.00     0.002 A 
HETATM   15  C   UNL     1      39.863 -10.081   7.652  1.00  0.00     0.001 A 
HETATM   16  C   UNL     1      39.740 -11.384   7.154  1.00  0.00     0.014 A 
HETATM   17  O   UNL     1      43.619 -15.768   3.210  1.00  0.00    -0.247 OA
HETATM   18  H   UNL     1      41.087 -17.381   3.042  1.00  0.00     0.171 HD
ENDROOT
BRANCH   1  19
HETATM   19  C   UNL     1      42.801 -18.409   3.539  1.00  0.00     0.069 C 
HETATM   20  C   UNL     1      43.397 -18.951   4.692  1.00  0.00     0.096 C 
HETATM   21  C   UNL     1      44.377 -19.935   4.556  1.00  0.00     0.039 C 
HETATM   22  C   UNL     1      44.683 -20.457   3.298  1.00  0.00     0.003 C 
HETATM   23  C   UNL     1      44.015 -19.992   2.168  1.00  0.00     0.002 C 
HETATM   24  C   UNL     1      43.071 -18.971   2.287  1.00  0.00     0.032 C 
BRANCH  20  25
HETATM   25  O   UNL     1      43.015 -18.465   5.910  1.00  0.00    -0.339 OA
BRANCH  25  26
HETATM   26  C   UNL     1      43.957 -17.768   6.752  1.00  0.00     0.057 C 
HETATM   27  C   UNL     1      43.445 -16.340   6.976  1.00  0.00     0.045 C 
HETATM   28  C   UNL     1      45.426 -17.760   6.292  1.00  0.00     0.045 C 
HETATM   29  C   UNL     1      43.903 -18.517   8.097  1.00  0.00     0.045 C 
ENDBRANCH  25  26
ENDBRANCH  20  25
ENDBRANCH   1  19
TORSDOF 3
ENDMDL
MODEL 6
REMARK VINA RESULT:      -8.4      3.109      8.619
REMARK  3 active torsions:
REMARK  status: ('A' for Active; 'I' for Inactive)
REMARK    1  A    between atoms: C_2  and  O_3 
REMARK    2  A    between atoms: O_3  and  C_4 
REMARK    3  A    between atoms: C_5  and  N_6 
REMARK       I    between atoms: N_6  and  C_7 
REMARK       I    between atoms: C_7  and  N_8 
ROOT
HETATM    1  N   UNL     1      42.154 -17.602   2.848  1.00  0.00    -0.306 N 
HETATM    2  C   UNL     1      42.632 -16.324   2.604  1.00  0.00     0.323 C 
HETATM    3  N   UNL     1      41.665 -15.436   2.148  1.00  0.00    -0.328 N 
HETATM    4  C   UNL     1      42.125 -14.160   1.589  1.00  0.00     0.185 C 
HETATM    5  C   UNL     1      41.333 -13.062   2.203  1.00  0.00     0.035 A 
HETATM    6  C   UNL     1      40.182 -13.187   2.954  1.00  0.00    -0.020 A 
HETATM    7  C   UNL     1      39.611 -14.528   3.269  1.00  0.00     0.061 C 
HETATM    8  C   UNL     1      40.204 -15.595   2.319  1.00  0.00     0.132 C 
HETATM    9  N   UNL     1      41.647 -11.736   2.115  1.00  0.00    -0.357 N 
HETATM   10  H   UNL     1      42.453 -11.351   1.643  1.00  0.00     0.166 HD
HETATM   11  C   UNL     1      40.710 -10.989   2.798  1.00  0.00     0.043 A 
HETATM   12  C   UNL     1      39.775 -11.880   3.336  1.00  0.00    -0.001 A 
HETATM   13  C   UNL     1      40.631  -9.604   2.985  1.00  0.00     0.030 A 
HETATM   14  C   UNL     1      39.565  -9.113   3.744  1.00  0.00     0.002 A 
HETATM   15  C   UNL     1      38.619  -9.976   4.293  1.00  0.00     0.001 A 
HETATM   16  C   UNL     1      38.711 -11.359   4.097  1.00  0.00     0.014 A 
HETATM   17  O   UNL     1      43.819 -16.017   2.668  1.00  0.00    -0.247 OA
HETATM   18  H   UNL     1      41.539 -17.895   2.104  1.00  0.00     0.171 HD
ENDROOT
BRANCH   1  19
HETATM   19  C   UNL     1      43.035 -18.606   3.328  1.00  0.00     0.069 C 
HETATM   20  C   UNL     1      43.215 -18.853   4.702  1.00  0.00     0.096 C 
HETATM   21  C   UNL     1      44.221 -19.729   5.111  1.00  0.00     0.039 C 
HETATM   22  C   UNL     1      44.966 -20.438   4.167  1.00  0.00     0.003 C 
HETATM   23  C   UNL     1      44.714 -20.270   2.808  1.00  0.00     0.002 C 
HETATM   24  C   UNL     1      43.746 -19.357   2.387  1.00  0.00     0.032 C 
BRANCH  20  25
HETATM   25  O   UNL     1      42.415 -18.195   5.590  1.00  0.00    -0.339 OA
BRANCH  25  26
HETATM   26  C   UNL     1      42.912 -17.058   6.326  1.00  0.00     0.057 C 
HETATM   27  C   UNL     1      41.923 -15.898   6.156  1.00  0.00     0.045 C 
HETATM   28  C   UNL     1      44.350 -16.604   6.016  1.00  0.00     0.045 C 
HETATM   29  C   UNL     1      42.882 -17.505   7.800  1.00  0.00     0.045 C 
ENDBRANCH  25  26
ENDBRANCH  20  25
ENDBRANCH   1  19
TORSDOF 3
ENDMDL
MODEL 7
REMARK VINA RESULT:      -8.3      2.454      8.404
REMARK  3 active torsions:
REMARK  status: ('A' for Active; 'I' for Inactive)
REMARK    1  A    between atoms: C_2  and  O_3 
REMARK    2  A    between atoms: O_3  and  C_4 
REMARK    3  A    between atoms: C_5  and  N_6 
REMARK       I    between atoms: N_6  and  C_7 
REMARK       I    between atoms: C_7  and  N_8 
ROOT
HETATM    1  N   UNL     1      42.193 -18.602   2.196  1.00  0.00    -0.306 N 
HETATM    2  C   UNL     1      42.534 -17.561   1.347  1.00  0.00     0.323 C 
HETATM    3  N   UNL     1      41.525 -16.623   1.170  1.00  0.00    -0.328 N 
HETATM    4  C   UNL     1      41.680 -15.657   0.076  1.00  0.00     0.185 C 
HETATM    5  C   UNL     1      41.407 -14.295   0.605  1.00  0.00     0.035 A 
HETATM    6  C   UNL     1      40.838 -13.974   1.821  1.00  0.00    -0.020 A 
HETATM    7  C   UNL     1      40.455 -15.036   2.794  1.00  0.00     0.061 C 
HETATM    8  C   UNL     1      40.380 -16.409   2.083  1.00  0.00     0.132 C 
HETATM    9  N   UNL     1      41.697 -13.134  -0.053  1.00  0.00    -0.357 N 
HETATM   10  H   UNL     1      42.140 -13.065  -0.959  1.00  0.00     0.166 HD
HETATM   11  C   UNL     1      41.319 -12.054   0.717  1.00  0.00     0.043 A 
HETATM   12  C   UNL     1      40.775 -12.557   1.904  1.00  0.00    -0.001 A 
HETATM   13  C   UNL     1      41.430 -10.684   0.456  1.00  0.00     0.030 A 
HETATM   14  C   UNL     1      40.971  -9.799   1.436  1.00  0.00     0.002 A 
HETATM   15  C   UNL     1      40.425 -10.269   2.628  1.00  0.00     0.001 A 
HETATM   16  C   UNL     1      40.321 -11.644   2.875  1.00  0.00     0.014 A 
HETATM   17  O   UNL     1      43.582 -17.517   0.709  1.00  0.00    -0.247 OA
HETATM   18  H   UNL     1      41.259 -18.926   1.997  1.00  0.00     0.171 HD
ENDROOT
BRANCH   1  19
HETATM   19  C   UNL     1      43.137 -19.625   2.474  1.00  0.00     0.069 C 
HETATM   20  C   UNL     1      44.146 -19.474   3.442  1.00  0.00     0.096 C 
HETATM   21  C   UNL     1      45.144 -20.443   3.543  1.00  0.00     0.039 C 
HETATM   22  C   UNL     1      45.083 -21.604   2.770  1.00  0.00     0.003 C 
HETATM   23  C   UNL     1      44.025 -21.799   1.886  1.00  0.00     0.002 C 
HETATM   24  C   UNL     1      43.049 -20.813   1.739  1.00  0.00     0.032 C 
BRANCH  20  25
HETATM   25  O   UNL     1      44.128 -18.360   4.231  1.00  0.00    -0.339 OA
BRANCH  25  26
HETATM   26  C   UNL     1      43.759 -18.450   5.622  1.00  0.00     0.057 C 
HETATM   27  C   UNL     1      44.759 -17.628   6.445  1.00  0.00     0.045 C 
HETATM   28  C   UNL     1      43.597 -19.864   6.209  1.00  0.00     0.045 C 
HETATM   29  C   UNL     1      42.384 -17.761   5.706  1.00  0.00     0.045 C 
ENDBRANCH  25  26
ENDBRANCH  20  25
ENDBRANCH   1  19
TORSDOF 3
ENDMDL
MODEL 8
REMARK VINA RESULT:      -8.3      1.725      3.441
REMARK  3 active torsions:
REMARK  status: ('A' for Active; 'I' for Inactive)
REMARK    1  A    between atoms: C_2  and  O_3 
REMARK    2  A    between atoms: O_3  and  C_4 
REMARK    3  A    between atoms: C_5  and  N_6 
REMARK       I    between atoms: N_6  and  C_7 
REMARK       I    between atoms: C_7  and  N_8 
ROOT
HETATM    1  N   UNL     1      40.996 -14.110   0.125  1.00  0.00    -0.306 N 
HETATM    2  C   UNL     1      41.698 -14.309   1.303  1.00  0.00     0.323 C 
HETATM    3  N   UNL     1      41.441 -15.530   1.914  1.00  0.00    -0.328 N 
HETATM    4  C   UNL     1      41.902 -15.708   3.296  1.00  0.00     0.185 C 
HETATM    5  C   UNL     1      42.619 -17.007   3.392  1.00  0.00     0.035 A 
HETATM    6  C   UNL     1      42.633 -18.019   2.455  1.00  0.00    -0.020 A 
HETATM    7  C   UNL     1      41.913 -17.877   1.158  1.00  0.00     0.061 C 
HETATM    8  C   UNL     1      40.882 -16.726   1.245  1.00  0.00     0.132 C 
HETATM    9  N   UNL     1      43.395 -17.389   4.449  1.00  0.00    -0.357 N 
HETATM   10  H   UNL     1      43.583 -16.835   5.273  1.00  0.00     0.166 HD
HETATM   11  C   UNL     1      43.914 -18.645   4.216  1.00  0.00     0.043 A 
HETATM   12  C   UNL     1      43.449 -19.065   2.966  1.00  0.00    -0.001 A 
HETATM   13  C   UNL     1      44.762 -19.426   5.010  1.00  0.00     0.030 A 
HETATM   14  C   UNL     1      45.148 -20.674   4.512  1.00  0.00     0.002 A 
HETATM   15  C   UNL     1      44.702 -21.119   3.270  1.00  0.00     0.001 A 
HETATM   16  C   UNL     1      43.853 -20.326   2.487  1.00  0.00     0.014 A 
HETATM   17  O   UNL     1      42.397 -13.450   1.834  1.00  0.00    -0.247 OA
HETATM   18  H   UNL     1      40.038 -14.406   0.233  1.00  0.00     0.171 HD
ENDROOT
BRANCH   1  19
HETATM   19  C   UNL     1      41.174 -12.908  -0.608  1.00  0.00     0.069 C 
HETATM   20  C   UNL     1      40.204 -11.889  -0.627  1.00  0.00     0.096 C 
HETATM   21  C   UNL     1      40.361 -10.815  -1.503  1.00  0.00     0.039 C 
HETATM   22  C   UNL     1      41.521 -10.693  -2.271  1.00  0.00     0.003 C 
HETATM   23  C   UNL     1      42.527 -11.649  -2.172  1.00  0.00     0.002 C 
HETATM   24  C   UNL     1      42.358 -12.756  -1.338  1.00  0.00     0.032 C 
BRANCH  20  25
HETATM   25  O   UNL     1      39.120 -12.009   0.194  1.00  0.00    -0.339 OA
BRANCH  25  26
HETATM   26  C   UNL     1      37.899 -12.612  -0.282  1.00  0.00     0.057 C 
HETATM   27  C   UNL     1      37.472 -13.698   0.713  1.00  0.00     0.045 C 
HETATM   28  C   UNL     1      37.910 -13.158  -1.721  1.00  0.00     0.045 C 
HETATM   29  C   UNL     1      36.860 -11.476  -0.232  1.00  0.00     0.045 C 
ENDBRANCH  25  26
ENDBRANCH  20  25
ENDBRANCH   1  19
TORSDOF 3
ENDMDL
MODEL 9
REMARK VINA RESULT:      -8.3      2.183      3.879
REMARK  3 active torsions:
REMARK  status: ('A' for Active; 'I' for Inactive)
REMARK    1  A    between atoms: C_2  and  O_3 
REMARK    2  A    between atoms: O_3  and  C_4 
REMARK    3  A    between atoms: C_5  and  N_6 
REMARK       I    between atoms: N_6  and  C_7 
REMARK       I    between atoms: C_7  and  N_8 
ROOT
HETATM    1  N   UNL     1      41.181 -13.585   0.233  1.00  0.00    -0.306 N 
HETATM    2  C   UNL     1      41.882 -13.896   1.387  1.00  0.00     0.323 C 
HETATM    3  N   UNL     1      41.561 -15.136   1.926  1.00  0.00    -0.328 N 
HETATM    4  C   UNL     1      42.025 -15.426   3.287  1.00  0.00     0.185 C 
HETATM    5  C   UNL     1      42.666 -16.766   3.294  1.00  0.00     0.035 A 
HETATM    6  C   UNL     1      42.612 -17.718   2.297  1.00  0.00    -0.020 A 
HETATM    7  C   UNL     1      41.888 -17.454   1.020  1.00  0.00     0.061 C 
HETATM    8  C   UNL     1      40.927 -16.254   1.192  1.00  0.00     0.132 C 
HETATM    9  N   UNL     1      43.429 -17.257   4.316  1.00  0.00    -0.357 N 
HETATM   10  H   UNL     1      43.658 -16.766   5.169  1.00  0.00     0.166 HD
HETATM   11  C   UNL     1      43.872 -18.524   3.999  1.00  0.00     0.043 A 
HETATM   12  C   UNL     1      43.371 -18.839   2.732  1.00  0.00    -0.001 A 
HETATM   13  C   UNL     1      44.682 -19.400   4.732  1.00  0.00     0.030 A 
HETATM   14  C   UNL     1      44.989 -20.634   4.153  1.00  0.00     0.002 A 
HETATM   15  C   UNL     1      44.506 -20.975   2.893  1.00  0.00     0.001 A 
HETATM   16  C   UNL     1      43.697 -20.089   2.171  1.00  0.00     0.014 A 
HETATM   17  O   UNL     1      42.635 -13.114   1.960  1.00  0.00    -0.247 OA
HETATM   18  H   UNL     1      40.209 -13.832   0.335  1.00  0.00     0.171 HD
ENDROOT
BRANCH   1  19
HETATM   19  C   UNL     1      41.421 -12.352  -0.428  1.00  0.00     0.069 C 
HETATM   20  C   UNL     1      40.498 -11.290  -0.395  1.00  0.00     0.096 C 
HETATM   21  C   UNL     1      40.713 -10.175  -1.205  1.00  0.00     0.039 C 
HETATM   22  C   UNL     1      41.885 -10.063  -1.956  1.00  0.00     0.003 C 
HETATM   23  C   UNL     1      42.846 -11.069  -1.906  1.00  0.00     0.002 C 
HETATM   24  C   UNL     1      42.617 -12.213  -1.139  1.00  0.00     0.032 C 
BRANCH  20  25
HETATM   25  O   UNL     1      39.402 -11.407   0.411  1.00  0.00    -0.339 OA
BRANCH  25  26
HETATM   26  C   UNL     1      39.364 -10.758   1.698  1.00  0.00     0.057 C 
HETATM   27  C   UNL     1      38.279  -9.675   1.665  1.00  0.00     0.045 C 
HETATM   28  C   UNL     1      40.692 -10.189   2.230  1.00  0.00     0.045 C 
HETATM   29  C   UNL     1      38.915 -11.860   2.676  1.00  0.00     0.045 C 
ENDBRANCH  25  26
ENDBRANCH  20  25
ENDBRANCH   1  19
TORSDOF 3
ENDMDL
MODEL 10
REMARK VINA RESULT:      -8.2      2.086      8.712
REMARK  3 active torsions:
REMARK  status: ('A' for Active; 'I' for Inactive)
REMARK    1  A    between atoms: C_2  and  O_3 
REMARK    2  A    between atoms: O_3  and  C_4 
REMARK    3  A    between atoms: C_5  and  N_6 
REMARK       I    between atoms: N_6  and  C_7 
REMARK       I    between atoms: C_7  and  N_8 
ROOT
HETATM    1  N   UNL     1      42.654 -16.387   2.432  1.00  0.00    -0.306 N 
HETATM    2  C   UNL     1      41.348 -16.313   1.974  1.00  0.00     0.323 C 
HETATM    3  N   UNL     1      40.947 -15.033   1.613  1.00  0.00    -0.328 N 
HETATM    4  C   UNL     1      39.513 -14.805   1.399  1.00  0.00     0.185 C 
HETATM    5  C   UNL     1      39.335 -14.083   0.113  1.00  0.00     0.035 A 
HETATM    6  C   UNL     1      40.317 -13.471  -0.639  1.00  0.00    -0.020 A 
HETATM    7  C   UNL     1      41.747 -13.516  -0.219  1.00  0.00     0.061 C 
HETATM    8  C   UNL     1      41.851 -13.912   1.273  1.00  0.00     0.132 C 
HETATM    9  N   UNL     1      38.140 -13.925  -0.530  1.00  0.00    -0.357 N 
HETATM   10  H   UNL     1      37.251 -14.290  -0.219  1.00  0.00     0.166 HD
HETATM   11  C   UNL     1      38.329 -13.211  -1.695  1.00  0.00     0.043 A 
HETATM   12  C   UNL     1      39.692 -12.913  -1.788  1.00  0.00    -0.001 A 
HETATM   13  C   UNL     1      37.402 -12.822  -2.669  1.00  0.00     0.030 A 
HETATM   14  C   UNL     1      37.880 -12.108  -3.770  1.00  0.00     0.002 A 
HETATM   15  C   UNL     1      39.233 -11.797  -3.890  1.00  0.00     0.001 A 
HETATM   16  C   UNL     1      40.149 -12.192  -2.908  1.00  0.00     0.014 A 
HETATM   17  O   UNL     1      40.566 -17.260   1.988  1.00  0.00    -0.247 OA
HETATM   18  H   UNL     1      42.848 -15.622   3.061  1.00  0.00     0.171 HD
ENDROOT
BRANCH   1  19
HETATM   19  C   UNL     1      43.195 -17.638   2.823  1.00  0.00     0.069 C 
HETATM   20  C   UNL     1      43.640 -17.888   4.135  1.00  0.00     0.096 C 
HETATM   21  C   UNL     1      44.320 -19.075   4.410  1.00  0.00     0.039 C 
HETATM   22  C   UNL     1      44.461 -20.053   3.423  1.00  0.00     0.003 C 
HETATM   23  C   UNL     1      43.928 -19.847   2.154  1.00  0.00     0.002 C 
HETATM   24  C   UNL     1      43.291 -18.642   1.853  1.00  0.00     0.032 C 
BRANCH  20  25
HETATM   25  O   UNL     1      43.416 -16.938   5.088  1.00  0.00    -0.339 OA
BRANCH  25  26
HETATM   26  C   UNL     1      42.228 -16.982   5.906  1.00  0.00     0.057 C 
HETATM   27  C   UNL     1      42.633 -17.378   7.331  1.00  0.00     0.045 C 
HETATM   28  C   UNL     1      41.068 -17.859   5.399  1.00  0.00     0.045 C 
HETATM   29  C   UNL     1      41.722 -15.527   5.935  1.00  0.00     0.045 C 
ENDBRANCH  25  26
ENDBRANCH  20  25
ENDBRANCH   1  19
TORSDOF 3
ENDMDL
