MODEL 1
REMARK VINA RESULT:      -9.0      0.000      0.000
REMARK  7 active torsions:
REMARK  status: ('A' for Active; 'I' for Inactive)
REMARK    1  A    between atoms: C_4  and  C_5 
REMARK    2  A    between atoms: C_5  and  C_6 
REMARK    3  A    between atoms: C_6  and  C_7 
REMARK    4  A    between atoms: C_7  and  N_8 
REMARK    5  A    between atoms: C_12  and  O_13 
REMARK    6  A    between atoms: C_12  and  C_14 
REMARK    7  A    between atoms: C_19  and  C_20 
REMARK       I    between atoms: C_20  and  N_21 
ROOT
HETATM    1  C   UNL     1      42.861 -15.813   5.987  1.00  0.00    -0.023 A 
HETATM    2  C   UNL     1      43.480 -14.929   5.072  1.00  0.00     0.024 A 
HETATM    3  C   UNL     1      42.723 -14.289   4.067  1.00  0.00     0.001 A 
HETATM    4  C   UNL     1      41.361 -14.528   4.009  1.00  0.00     0.086 A 
HETATM    5  O   UNL     1      40.796 -13.825   2.989  1.00  0.00    -0.304 OA
HETATM    6  C   UNL     1      41.795 -13.125   2.368  1.00  0.00     0.144 A 
HETATM    7  C   UNL     1      42.992 -13.370   3.023  1.00  0.00     0.057 A 
HETATM    8  C   UNL     1      40.687 -15.355   4.897  1.00  0.00     0.039 A 
HETATM    9  C   UNL     1      41.462 -15.978   5.891  1.00  0.00     0.013 A 
ENDROOT
BRANCH   1  10
HETATM   10  C   UNL     1      43.665 -16.485   7.112  1.00  0.00     0.088 C 
HETATM   11  C   UNL     1      45.081 -16.951   6.721  1.00  0.00     0.071 C 
HETATM   12  C   UNL     1      45.057 -18.126   5.757  1.00  0.00     0.238 C 
HETATM   13  N   UNL     1      44.307 -19.288   6.368  1.00  0.00    -0.071 N 
HETATM   14  H   UNL     1      44.826 -19.599   7.203  1.00  0.00     0.279 HD
HETATM   15  C   UNL     1      42.916 -18.894   6.826  1.00  0.00     0.238 C 
HETATM   16  C   UNL     1      42.987 -17.706   7.768  1.00  0.00     0.071 C 
BRANCH  13  17
HETATM   17  C   UNL     1      44.212 -20.489   5.430  1.00  0.00     0.235 C 
BRANCH  17  18
HETATM   18  C   UNL     1      44.896 -20.212   4.090  1.00  0.00     0.038 C 
BRANCH  18  19
HETATM   19  C   UNL     1      43.930 -20.410   2.903  1.00  0.00     0.040 C 
HETATM   20  C   UNL     1      44.568 -21.301   1.835  1.00  0.00     0.017 C 
BRANCH  19  21
HETATM   21  C   UNL     1      43.510 -19.091   2.340  1.00  0.00     0.057 A 
HETATM   22  O   UNL     1      42.168 -18.842   2.371  1.00  0.00    -0.319 OA
HETATM   23  C   UNL     1      41.974 -17.612   1.820  1.00  0.00     0.049 A 
HETATM   24  C   UNL     1      40.574 -17.156   1.708  1.00  0.00     0.076 C 
HETATM   25  C   UNL     1      43.183 -17.054   1.472  1.00  0.00     0.035 A 
HETATM   26  C   UNL     1      44.175 -18.006   1.809  1.00  0.00     0.035 A 
ENDBRANCH  19  21
ENDBRANCH  18  19
ENDBRANCH  17  18
ENDBRANCH  13  17
BRANCH  10  27
HETATM   27  O   UNL     1      43.835 -15.519   8.153  1.00  0.00    -0.385 OA
HETATM   28  H   UNL     1      44.761 -15.515   8.458  1.00  0.00     0.211 HD
ENDBRANCH  10  27
ENDBRANCH   1  10
BRANCH   6  29
HETATM   29  C   UNL     1      41.533 -12.226   1.256  1.00  0.00     0.277 C 
HETATM   30  N   UNL     1      41.651 -12.657  -0.077  1.00  0.00    -0.345 N 
HETATM   31  C   UNL     1      41.392 -11.666  -1.129  1.00  0.00     0.154 C 
HETATM   32  C   UNL     1      41.857 -14.024  -0.532  1.00  0.00     0.128 C 
HETATM   33  C   UNL     1      39.927 -11.632  -1.578  1.00  0.00     0.254 C 
HETATM   34  N   UNL     1      39.462 -13.001  -2.090  1.00  0.00    -0.073 N 
HETATM   35  H   UNL     1      40.165 -13.351  -2.752  1.00  0.00     0.279 HD
HETATM   36  C   UNL     1      38.190 -12.850  -2.892  1.00  0.00     0.269 C 
HETATM   37  C   UNL     1      39.290 -14.013  -0.977  1.00  0.00     0.236 C 
HETATM   38  C   UNL     1      40.559 -14.811  -0.694  1.00  0.00     0.048 C 
HETATM   39  O   UNL     1      41.200 -11.057   1.467  1.00  0.00    -0.265 OA
ENDBRANCH   6  29
TORSDOF 7
ENDMDL
MODEL 2
REMARK VINA RESULT:      -8.4      1.396      2.046
REMARK  7 active torsions:
REMARK  status: ('A' for Active; 'I' for Inactive)
REMARK    1  A    between atoms: C_4  and  C_5 
REMARK    2  A    between atoms: C_5  and  C_6 
REMARK    3  A    between atoms: C_6  and  C_7 
REMARK    4  A    between atoms: C_7  and  N_8 
REMARK    5  A    between atoms: C_12  and  O_13 
REMARK    6  A    between atoms: C_12  and  C_14 
REMARK    7  A    between atoms: C_19  and  C_20 
REMARK       I    between atoms: C_20  and  N_21 
ROOT
HETATM    1  C   UNL     1      42.605 -15.921   5.904  1.00  0.00    -0.023 A 
HETATM    2  C   UNL     1      42.956 -15.375   4.647  1.00  0.00     0.024 A 
HETATM    3  C   UNL     1      41.958 -14.947   3.746  1.00  0.00     0.001 A 
HETATM    4  C   UNL     1      40.631 -15.053   4.126  1.00  0.00     0.086 A 
HETATM    5  O   UNL     1      39.814 -14.587   3.141  1.00  0.00    -0.304 OA
HETATM    6  C   UNL     1      40.608 -14.179   2.105  1.00  0.00     0.144 A 
HETATM    7  C   UNL     1      41.937 -14.365   2.454  1.00  0.00     0.057 A 
HETATM    8  C   UNL     1      40.221 -15.546   5.357  1.00  0.00     0.039 A 
HETATM    9  C   UNL     1      41.234 -15.962   6.239  1.00  0.00     0.013 A 
ENDROOT
BRANCH   1  10
HETATM   10  C   UNL     1      43.682 -16.354   6.913  1.00  0.00     0.088 C 
HETATM   11  C   UNL     1      45.040 -16.747   6.297  1.00  0.00     0.071 C 
HETATM   12  C   UNL     1      44.963 -18.044   5.510  1.00  0.00     0.238 C 
HETATM   13  N   UNL     1      44.482 -19.168   6.400  1.00  0.00    -0.071 N 
HETATM   14  H   UNL     1      45.185 -19.311   7.141  1.00  0.00     0.279 HD
HETATM   15  C   UNL     1      43.171 -18.835   7.084  1.00  0.00     0.238 C 
HETATM   16  C   UNL     1      43.287 -17.524   7.838  1.00  0.00     0.071 C 
BRANCH  13  17
HETATM   17  C   UNL     1      44.345 -20.494   5.655  1.00  0.00     0.235 C 
BRANCH  17  18
HETATM   18  C   UNL     1      45.000 -20.435   4.274  1.00  0.00     0.038 C 
BRANCH  18  19
HETATM   19  C   UNL     1      43.977 -20.682   3.146  1.00  0.00     0.040 C 
HETATM   20  C   UNL     1      44.472 -21.783   2.205  1.00  0.00     0.017 C 
BRANCH  19  21
HETATM   21  C   UNL     1      43.692 -19.414   2.407  1.00  0.00     0.057 A 
HETATM   22  O   UNL     1      42.377 -19.190   2.117  1.00  0.00    -0.319 OA
HETATM   23  C   UNL     1      42.308 -18.006   1.447  1.00  0.00     0.049 A 
HETATM   24  C   UNL     1      40.969 -17.586   0.989  1.00  0.00     0.076 C 
HETATM   25  C   UNL     1      43.564 -17.451   1.340  1.00  0.00     0.035 A 
HETATM   26  C   UNL     1      44.457 -18.357   1.961  1.00  0.00     0.035 A 
ENDBRANCH  19  21
ENDBRANCH  18  19
ENDBRANCH  17  18
ENDBRANCH  13  17
BRANCH  10  27
HETATM   27  O   UNL     1      43.939 -15.238   7.769  1.00  0.00    -0.385 OA
HETATM   28  H   UNL     1      44.727 -15.411   8.317  1.00  0.00     0.211 HD
ENDBRANCH  10  27
ENDBRANCH   1  10
BRANCH   6  29
HETATM   29  C   UNL     1      40.059 -13.580   0.898  1.00  0.00     0.277 C 
HETATM   30  N   UNL     1      39.560 -12.266   0.895  1.00  0.00    -0.345 N 
HETATM   31  C   UNL     1      39.002 -11.763  -0.366  1.00  0.00     0.154 C 
HETATM   32  C   UNL     1      39.672 -11.292   1.971  1.00  0.00     0.128 C 
HETATM   33  C   UNL     1      40.039 -11.059  -1.247  1.00  0.00     0.254 C 
HETATM   34  N   UNL     1      40.695  -9.882  -0.515  1.00  0.00    -0.073 N 
HETATM   35  H   UNL     1      39.951  -9.313  -0.091  1.00  0.00     0.279 HD
HETATM   36  C   UNL     1      41.385  -8.973  -1.506  1.00  0.00     0.269 C 
HETATM   37  C   UNL     1      41.650 -10.329   0.573  1.00  0.00     0.236 C 
HETATM   38  C   UNL     1      40.973 -10.493   1.930  1.00  0.00     0.048 C 
HETATM   39  O   UNL     1      40.021 -14.225  -0.153  1.00  0.00    -0.265 OA
ENDBRANCH   6  29
TORSDOF 7
ENDMDL
MODEL 3
REMARK VINA RESULT:      -8.3      1.579      7.399
REMARK  7 active torsions:
REMARK  status: ('A' for Active; 'I' for Inactive)
REMARK    1  A    between atoms: C_4  and  C_5 
REMARK    2  A    between atoms: C_5  and  C_6 
REMARK    3  A    between atoms: C_6  and  C_7 
REMARK    4  A    between atoms: C_7  and  N_8 
REMARK    5  A    between atoms: C_12  and  O_13 
REMARK    6  A    between atoms: C_12  and  C_14 
REMARK    7  A    between atoms: C_19  and  C_20 
REMARK       I    between atoms: C_20  and  N_21 
ROOT
HETATM    1  C   UNL     1      41.373 -11.593   2.601  1.00  0.00    -0.023 A 
HETATM    2  C   UNL     1      42.072 -12.817   2.720  1.00  0.00     0.024 A 
HETATM    3  C   UNL     1      42.393 -13.341   3.991  1.00  0.00     0.001 A 
HETATM    4  C   UNL     1      41.992 -12.642   5.117  1.00  0.00     0.086 A 
HETATM    5  O   UNL     1      42.379 -13.296   6.247  1.00  0.00    -0.304 OA
HETATM    6  C   UNL     1      43.044 -14.428   5.861  1.00  0.00     0.144 A 
HETATM    7  C   UNL     1      43.051 -14.498   4.476  1.00  0.00     0.057 A 
HETATM    8  C   UNL     1      41.274 -11.456   5.070  1.00  0.00     0.039 A 
HETATM    9  C   UNL     1      40.962 -10.957   3.793  1.00  0.00     0.013 A 
ENDROOT
BRANCH   1  10
HETATM   10  C   UNL     1      40.981 -11.031   1.225  1.00  0.00     0.088 C 
HETATM   11  C   UNL     1      39.537 -11.334   0.778  1.00  0.00     0.071 C 
HETATM   12  C   UNL     1      39.327 -12.806   0.465  1.00  0.00     0.238 C 
HETATM   13  N   UNL     1      40.283 -13.252  -0.619  1.00  0.00    -0.071 N 
HETATM   14  H   UNL     1      40.056 -12.730  -1.478  1.00  0.00     0.279 HD
HETATM   15  C   UNL     1      41.726 -12.941  -0.273  1.00  0.00     0.238 C 
HETATM   16  C   UNL     1      41.884 -11.467   0.052  1.00  0.00     0.071 C 
BRANCH  13  17
HETATM   17  C   UNL     1      40.149 -14.737  -0.951  1.00  0.00     0.235 C 
BRANCH  17  18
HETATM   18  C   UNL     1      41.384 -15.525  -0.514  1.00  0.00     0.038 C 
BRANCH  18  19
HETATM   19  C   UNL     1      41.042 -16.570   0.569  1.00  0.00     0.040 C 
HETATM   20  C   UNL     1      40.224 -15.930   1.692  1.00  0.00     0.017 C 
BRANCH  19  21
HETATM   21  C   UNL     1      42.286 -17.212   1.092  1.00  0.00     0.057 A 
HETATM   22  O   UNL     1      42.214 -18.563   1.277  1.00  0.00    -0.319 OA
HETATM   23  C   UNL     1      43.423 -18.969   1.756  1.00  0.00     0.049 A 
HETATM   24  C   UNL     1      43.554 -20.405   2.075  1.00  0.00     0.076 C 
HETATM   25  C   UNL     1      44.281 -17.896   1.844  1.00  0.00     0.035 A 
HETATM   26  C   UNL     1      43.550 -16.762   1.414  1.00  0.00     0.035 A 
ENDBRANCH  19  21
ENDBRANCH  18  19
ENDBRANCH  17  18
ENDBRANCH  13  17
BRANCH  10  27
HETATM   27  O   UNL     1      41.085  -9.606   1.299  1.00  0.00    -0.385 OA
HETATM   28  H   UNL     1      40.987  -9.311   2.223  1.00  0.00     0.211 HD
ENDBRANCH  10  27
ENDBRANCH   1  10
BRANCH   6  29
HETATM   29  C   UNL     1      43.558 -15.389   6.824  1.00  0.00     0.277 C 
HETATM   30  N   UNL     1      42.817 -16.526   7.190  1.00  0.00    -0.345 N 
HETATM   31  C   UNL     1      43.411 -17.421   8.191  1.00  0.00     0.154 C 
HETATM   32  C   UNL     1      41.584 -16.995   6.574  1.00  0.00     0.128 C 
HETATM   33  C   UNL     1      44.261 -18.537   7.573  1.00  0.00     0.254 C 
HETATM   34  N   UNL     1      43.447 -19.391   6.595  1.00  0.00    -0.073 N 
HETATM   35  H   UNL     1      42.564 -19.651   7.054  1.00  0.00     0.279 HD
HETATM   36  C   UNL     1      44.161 -20.695   6.325  1.00  0.00     0.269 C 
HETATM   37  C   UNL     1      43.132 -18.663   5.305  1.00  0.00     0.236 C 
HETATM   38  C   UNL     1      41.817 -17.891   5.360  1.00  0.00     0.048 C 
HETATM   39  O   UNL     1      44.665 -15.219   7.341  1.00  0.00    -0.265 OA
ENDBRANCH   6  29
TORSDOF 7
ENDMDL
MODEL 4
REMARK VINA RESULT:      -8.2      5.695      8.186
REMARK  7 active torsions:
REMARK  status: ('A' for Active; 'I' for Inactive)
REMARK    1  A    between atoms: C_4  and  C_5 
REMARK    2  A    between atoms: C_5  and  C_6 
REMARK    3  A    between atoms: C_6  and  C_7 
REMARK    4  A    between atoms: C_7  and  N_8 
REMARK    5  A    between atoms: C_12  and  O_13 
REMARK    6  A    between atoms: C_12  and  C_14 
REMARK    7  A    between atoms: C_19  and  C_20 
REMARK       I    between atoms: C_20  and  N_21 
ROOT
HETATM    1  C   UNL     1      40.969 -12.508   4.760  1.00  0.00    -0.023 A 
HETATM    2  C   UNL     1      41.334 -11.413   5.579  1.00  0.00     0.024 A 
HETATM    3  C   UNL     1      40.580 -11.093   6.728  1.00  0.00     0.001 A 
HETATM    4  C   UNL     1      39.489 -11.883   7.049  1.00  0.00     0.086 A 
HETATM    5  O   UNL     1      38.891 -11.433   8.186  1.00  0.00    -0.304 OA
HETATM    6  C   UNL     1      39.588 -10.335   8.612  1.00  0.00     0.144 A 
HETATM    7  C   UNL     1      40.650 -10.112   7.748  1.00  0.00     0.057 A 
HETATM    8  C   UNL     1      39.100 -12.991   6.309  1.00  0.00     0.039 A 
HETATM    9  C   UNL     1      39.869 -13.293   5.171  1.00  0.00     0.013 A 
ENDROOT
BRANCH   1  10
HETATM   10  C   UNL     1      41.804 -12.894   3.529  1.00  0.00     0.088 C 
HETATM   11  C   UNL     1      41.190 -13.990   2.635  1.00  0.00     0.071 C 
HETATM   12  C   UNL     1      41.183 -15.350   3.312  1.00  0.00     0.238 C 
HETATM   13  N   UNL     1      42.591 -15.753   3.690  1.00  0.00    -0.071 N 
HETATM   14  H   UNL     1      43.137 -15.856   2.822  1.00  0.00     0.279 HD
HETATM   15  C   UNL     1      43.282 -14.698   4.532  1.00  0.00     0.238 C 
HETATM   16  C   UNL     1      43.246 -13.355   3.828  1.00  0.00     0.071 C 
BRANCH  13  17
HETATM   17  C   UNL     1      42.647 -17.097   4.413  1.00  0.00     0.235 C 
BRANCH  17  18
HETATM   18  C   UNL     1      42.446 -18.266   3.447  1.00  0.00     0.038 C 
BRANCH  18  19
HETATM   19  C   UNL     1      43.740 -18.600   2.676  1.00  0.00     0.040 C 
HETATM   20  C   UNL     1      43.624 -18.158   1.215  1.00  0.00     0.017 C 
BRANCH  19  21
HETATM   21  C   UNL     1      44.057 -20.056   2.787  1.00  0.00     0.057 A 
HETATM   22  O   UNL     1      44.461 -20.474   4.022  1.00  0.00    -0.319 OA
HETATM   23  C   UNL     1      44.707 -21.811   3.934  1.00  0.00     0.049 A 
HETATM   24  C   UNL     1      45.206 -22.469   5.159  1.00  0.00     0.076 C 
HETATM   25  C   UNL     1      44.428 -22.260   2.663  1.00  0.00     0.035 A 
HETATM   26  C   UNL     1      44.006 -21.129   1.922  1.00  0.00     0.035 A 
ENDBRANCH  19  21
ENDBRANCH  18  19
ENDBRANCH  17  18
ENDBRANCH  13  17
BRANCH  10  27
HETATM   27  O   UNL     1      41.921 -11.728   2.708  1.00  0.00    -0.385 OA
HETATM   28  H   UNL     1      41.920 -11.980   1.766  1.00  0.00     0.211 HD
ENDBRANCH  10  27
ENDBRANCH   1  10
BRANCH   6  29
HETATM   29  C   UNL     1      39.244  -9.627   9.835  1.00  0.00     0.277 C 
HETATM   30  N   UNL     1      39.681 -10.081  11.091  1.00  0.00    -0.345 N 
HETATM   31  C   UNL     1      39.258  -9.312  12.268  1.00  0.00     0.154 C 
HETATM   32  C   UNL     1      40.636 -11.150  11.344  1.00  0.00     0.128 C 
HETATM   33  C   UNL     1      40.245  -8.204  12.652  1.00  0.00     0.254 C 
HETATM   34  N   UNL     1      41.644  -8.767  12.930  1.00  0.00    -0.073 N 
HETATM   35  H   UNL     1      41.546  -9.571  13.563  1.00  0.00     0.279 HD
HETATM   36  C   UNL     1      42.469  -7.753  13.689  1.00  0.00     0.269 C 
HETATM   37  C   UNL     1      42.354  -9.218  11.671  1.00  0.00     0.236 C 
HETATM   38  C   UNL     1      42.089 -10.681  11.328  1.00  0.00     0.048 C 
HETATM   39  O   UNL     1      38.554  -8.605   9.787  1.00  0.00    -0.265 OA
ENDBRANCH   6  29
TORSDOF 7
ENDMDL
MODEL 5
REMARK VINA RESULT:      -8.1      5.983      8.471
REMARK  7 active torsions:
REMARK  status: ('A' for Active; 'I' for Inactive)
REMARK    1  A    between atoms: C_4  and  C_5 
REMARK    2  A    between atoms: C_5  and  C_6 
REMARK    3  A    between atoms: C_6  and  C_7 
REMARK    4  A    between atoms: C_7  and  N_8 
REMARK    5  A    between atoms: C_12  and  O_13 
REMARK    6  A    between atoms: C_12  and  C_14 
REMARK    7  A    between atoms: C_19  and  C_20 
REMARK       I    between atoms: C_20  and  N_21 
ROOT
HETATM    1  C   UNL     1      41.393 -12.564   5.781  1.00  0.00    -0.023 A 
HETATM    2  C   UNL     1      42.018 -11.703   6.713  1.00  0.00     0.024 A 
HETATM    3  C   UNL     1      41.258 -11.041   7.702  1.00  0.00     0.001 A 
HETATM    4  C   UNL     1      39.893 -11.267   7.753  1.00  0.00     0.086 A 
HETATM    5  O   UNL     1      39.329 -10.556   8.767  1.00  0.00    -0.304 OA
HETATM    6  C   UNL     1      40.327  -9.852   9.383  1.00  0.00     0.144 A 
HETATM    7  C   UNL     1      41.534 -10.146   8.765  1.00  0.00     0.057 A 
HETATM    8  C   UNL     1      39.225 -12.126   6.891  1.00  0.00     0.039 A 
HETATM    9  C   UNL     1      40.004 -12.777   5.919  1.00  0.00     0.013 A 
ENDROOT
BRANCH   1  10
HETATM   10  C   UNL     1      42.212 -13.324   4.726  1.00  0.00     0.088 C 
HETATM   11  C   UNL     1      41.592 -14.648   4.239  1.00  0.00     0.071 C 
HETATM   12  C   UNL     1      41.601 -15.720   5.316  1.00  0.00     0.238 C 
HETATM   13  N   UNL     1      43.017 -15.981   5.782  1.00  0.00    -0.071 N 
HETATM   14  H   UNL     1      43.551 -16.356   4.984  1.00  0.00     0.279 HD
HETATM   15  C   UNL     1      43.714 -14.711   6.231  1.00  0.00     0.238 C 
HETATM   16  C   UNL     1      43.661 -13.664   5.135  1.00  0.00     0.071 C 
BRANCH  13  17
HETATM   17  C   UNL     1      43.090 -17.022   6.896  1.00  0.00     0.235 C 
BRANCH  17  18
HETATM   18  C   UNL     1      42.862 -18.437   6.361  1.00  0.00     0.038 C 
BRANCH  18  19
HETATM   19  C   UNL     1      44.166 -19.059   5.817  1.00  0.00     0.040 C 
HETATM   20  C   UNL     1      45.375 -18.218   6.232  1.00  0.00     0.017 C 
BRANCH  19  21
HETATM   21  C   UNL     1      44.092 -19.222   4.333  1.00  0.00     0.057 A 
HETATM   22  O   UNL     1      44.229 -20.502   3.878  1.00  0.00    -0.319 OA
HETATM   23  C   UNL     1      44.140 -20.459   2.520  1.00  0.00     0.049 A 
HETATM   24  C   UNL     1      44.311 -21.741   1.809  1.00  0.00     0.076 C 
HETATM   25  C   UNL     1      43.909 -19.166   2.103  1.00  0.00     0.035 A 
HETATM   26  C   UNL     1      43.875 -18.369   3.272  1.00  0.00     0.035 A 
ENDBRANCH  19  21
ENDBRANCH  18  19
ENDBRANCH  17  18
ENDBRANCH  13  17
BRANCH  10  27
HETATM   27  O   UNL     1      42.311 -12.482   3.573  1.00  0.00    -0.385 OA
HETATM   28  H   UNL     1      42.511 -13.018   2.783  1.00  0.00     0.211 HD
ENDBRANCH  10  27
ENDBRANCH   1  10
BRANCH   6  29
HETATM   29  C   UNL     1      40.080  -9.015  10.546  1.00  0.00     0.277 C 
HETATM   30  N   UNL     1      39.787  -9.575  11.802  1.00  0.00    -0.345 N 
HETATM   31  C   UNL     1      39.526  -8.645  12.907  1.00  0.00     0.154 C 
HETATM   32  C   UNL     1      39.861 -10.984  12.163  1.00  0.00     0.128 C 
HETATM   33  C   UNL     1      40.787  -8.275  13.695  1.00  0.00     0.254 C 
HETATM   34  N   UNL     1      41.478  -9.517  14.271  1.00  0.00    -0.073 N 
HETATM   35  H   UNL     1      40.765 -10.092  14.738  1.00  0.00     0.279 HD
HETATM   36  C   UNL     1      42.448  -9.114  15.358  1.00  0.00     0.269 C 
HETATM   37  C   UNL     1      42.162 -10.351  13.209  1.00  0.00     0.236 C 
HETATM   38  C   UNL     1      41.253 -11.421  12.613  1.00  0.00     0.048 C 
HETATM   39  O   UNL     1      40.123  -7.786  10.448  1.00  0.00    -0.265 OA
ENDBRANCH   6  29
TORSDOF 7
ENDMDL
MODEL 6
REMARK VINA RESULT:      -8.0      2.480      4.258
REMARK  7 active torsions:
REMARK  status: ('A' for Active; 'I' for Inactive)
REMARK    1  A    between atoms: C_4  and  C_5 
REMARK    2  A    between atoms: C_5  and  C_6 
REMARK    3  A    between atoms: C_6  and  C_7 
REMARK    4  A    between atoms: C_7  and  N_8 
REMARK    5  A    between atoms: C_12  and  O_13 
REMARK    6  A    between atoms: C_12  and  C_14 
REMARK    7  A    between atoms: C_19  and  C_20 
REMARK       I    between atoms: C_20  and  N_21 
ROOT
HETATM    1  C   UNL     1      40.697 -13.721   3.617  1.00  0.00    -0.023 A 
HETATM    2  C   UNL     1      41.469 -12.854   2.809  1.00  0.00     0.024 A 
HETATM    3  C   UNL     1      41.477 -12.998   1.404  1.00  0.00     0.001 A 
HETATM    4  C   UNL     1      40.699 -13.991   0.834  1.00  0.00     0.086 A 
HETATM    5  O   UNL     1      40.824 -13.977  -0.521  1.00  0.00    -0.304 OA
HETATM    6  C   UNL     1      41.696 -12.973  -0.844  1.00  0.00     0.144 A 
HETATM    7  C   UNL     1      42.100 -12.334   0.319  1.00  0.00     0.057 A 
HETATM    8  C   UNL     1      39.892 -14.850   1.568  1.00  0.00     0.039 A 
HETATM    9  C   UNL     1      39.897 -14.684   2.964  1.00  0.00     0.013 A 
ENDROOT
BRANCH   1  10
HETATM   10  C   UNL     1      40.645 -13.550   5.144  1.00  0.00     0.088 C 
HETATM   11  C   UNL     1      41.999 -13.251   5.818  1.00  0.00     0.071 C 
HETATM   12  C   UNL     1      42.941 -14.442   5.777  1.00  0.00     0.238 C 
HETATM   13  N   UNL     1      42.305 -15.635   6.456  1.00  0.00    -0.071 N 
HETATM   14  H   UNL     1      42.167 -15.399   7.450  1.00  0.00     0.279 HD
HETATM   15  C   UNL     1      40.941 -15.962   5.879  1.00  0.00     0.238 C 
HETATM   16  C   UNL     1      40.044 -14.739   5.921  1.00  0.00     0.071 C 
BRANCH  13  17
HETATM   17  C   UNL     1      43.187 -16.880   6.413  1.00  0.00     0.235 C 
BRANCH  17  18
HETATM   18  C   UNL     1      42.737 -17.852   5.320  1.00  0.00     0.038 C 
BRANCH  18  19
HETATM   19  C   UNL     1      43.650 -17.779   4.079  1.00  0.00     0.040 C 
HETATM   20  C   UNL     1      42.969 -16.991   2.957  1.00  0.00     0.017 C 
BRANCH  19  21
HETATM   21  C   UNL     1      44.039 -19.150   3.630  1.00  0.00     0.057 A 
HETATM   22  O   UNL     1      44.329 -20.032   4.631  1.00  0.00    -0.319 OA
HETATM   23  C   UNL     1      44.662 -21.215   4.042  1.00  0.00     0.049 A 
HETATM   24  C   UNL     1      45.063 -22.310   4.947  1.00  0.00     0.076 C 
HETATM   25  C   UNL     1      44.550 -21.109   2.673  1.00  0.00     0.035 A 
HETATM   26  C   UNL     1      44.145 -19.778   2.407  1.00  0.00     0.035 A 
ENDBRANCH  19  21
ENDBRANCH  18  19
ENDBRANCH  17  18
ENDBRANCH  13  17
BRANCH  10  27
HETATM   27  O   UNL     1      39.804 -12.427   5.421  1.00  0.00    -0.385 OA
HETATM   28  H   UNL     1      40.263 -11.802   6.012  1.00  0.00     0.211 HD
ENDBRANCH  10  27
ENDBRANCH   1  10
BRANCH   6  29
HETATM   29  C   UNL     1      42.025 -12.648  -2.223  1.00  0.00     0.277 C 
HETATM   30  N   UNL     1      41.188 -11.830  -3.002  1.00  0.00    -0.345 N 
HETATM   31  C   UNL     1      41.593 -11.584  -4.391  1.00  0.00     0.154 C 
HETATM   32  C   UNL     1      40.033 -11.076  -2.536  1.00  0.00     0.128 C 
HETATM   33  C   UNL     1      42.469 -10.336  -4.551  1.00  0.00     0.254 C 
HETATM   34  N   UNL     1      41.760  -9.080  -4.033  1.00  0.00    -0.073 N 
HETATM   35  H   UNL     1      40.811  -9.061  -4.427  1.00  0.00     0.279 HD
HETATM   36  C   UNL     1      42.444  -7.841  -4.565  1.00  0.00     0.269 C 
HETATM   37  C   UNL     1      41.664  -9.044  -2.522  1.00  0.00     0.236 C 
HETATM   38  C   UNL     1      40.391  -9.697  -1.990  1.00  0.00     0.048 C 
HETATM   39  O   UNL     1      43.055 -13.091  -2.737  1.00  0.00    -0.265 OA
ENDBRANCH   6  29
TORSDOF 7
ENDMDL
MODEL 7
REMARK VINA RESULT:      -8.0      2.755      8.881
REMARK  7 active torsions:
REMARK  status: ('A' for Active; 'I' for Inactive)
REMARK    1  A    between atoms: C_4  and  C_5 
REMARK    2  A    between atoms: C_5  and  C_6 
REMARK    3  A    between atoms: C_6  and  C_7 
REMARK    4  A    between atoms: C_7  and  N_8 
REMARK    5  A    between atoms: C_12  and  O_13 
REMARK    6  A    between atoms: C_12  and  C_14 
REMARK    7  A    between atoms: C_19  and  C_20 
REMARK       I    between atoms: C_20  and  N_21 
ROOT
HETATM    1  C   UNL     1      41.091 -14.532  -1.628  1.00  0.00    -0.023 A 
HETATM    2  C   UNL     1      41.588 -13.548  -0.740  1.00  0.00     0.024 A 
HETATM    3  C   UNL     1      41.991 -13.898   0.566  1.00  0.00     0.001 A 
HETATM    4  C   UNL     1      41.910 -15.224   0.954  1.00  0.00     0.086 A 
HETATM    5  O   UNL     1      42.346 -15.375   2.235  1.00  0.00    -0.304 OA
HETATM    6  C   UNL     1      42.710 -14.139   2.695  1.00  0.00     0.144 A 
HETATM    7  C   UNL     1      42.526 -13.208   1.683  1.00  0.00     0.057 A 
HETATM    8  C   UNL     1      41.466 -16.242   0.121  1.00  0.00     0.039 A 
HETATM    9  C   UNL     1      41.074 -15.870  -1.176  1.00  0.00     0.013 A 
ENDROOT
BRANCH   1  10
HETATM   10  C   UNL     1      40.686 -14.174  -3.067  1.00  0.00     0.088 C 
HETATM   11  C   UNL     1      40.547 -12.667  -3.355  1.00  0.00     0.071 C 
HETATM   12  C   UNL     1      39.351 -12.051  -2.648  1.00  0.00     0.238 C 
HETATM   13  N   UNL     1      38.078 -12.753  -3.066  1.00  0.00    -0.071 N 
HETATM   14  H   UNL     1      37.942 -12.591  -4.075  1.00  0.00     0.279 HD
HETATM   15  C   UNL     1      38.157 -14.253  -2.859  1.00  0.00     0.238 C 
HETATM   16  C   UNL     1      39.376 -14.819  -3.563  1.00  0.00     0.071 C 
BRANCH  13  17
HETATM   17  C   UNL     1      36.841 -12.206  -2.357  1.00  0.00     0.235 C 
BRANCH  17  18
HETATM   18  C   UNL     1      37.217 -11.378  -1.127  1.00  0.00     0.038 C 
BRANCH  18  19
HETATM   19  C   UNL     1      36.540 -11.913   0.152  1.00  0.00     0.040 C 
HETATM   20  C   UNL     1      35.803 -10.787   0.880  1.00  0.00     0.017 C 
BRANCH  19  21
HETATM   21  C   UNL     1      37.542 -12.578   1.039  1.00  0.00     0.057 A 
HETATM   22  O   UNL     1      38.076 -11.787   2.014  1.00  0.00    -0.319 OA
HETATM   23  C   UNL     1      38.960 -12.551   2.714  1.00  0.00     0.049 A 
HETATM   24  C   UNL     1      39.698 -11.874   3.799  1.00  0.00     0.076 C 
HETATM   25  C   UNL     1      38.969 -13.836   2.219  1.00  0.00     0.035 A 
HETATM   26  C   UNL     1      38.052 -13.856   1.140  1.00  0.00     0.035 A 
ENDBRANCH  19  21
ENDBRANCH  18  19
ENDBRANCH  17  18
ENDBRANCH  13  17
BRANCH  10  27
HETATM   27  O   UNL     1      41.719 -14.653  -3.933  1.00  0.00    -0.385 OA
HETATM   28  H   UNL     1      41.660 -14.211  -4.800  1.00  0.00     0.211 HD
ENDBRANCH  10  27
ENDBRANCH   1  10
BRANCH   6  29
HETATM   29  C   UNL     1      43.268 -13.941   4.023  1.00  0.00     0.277 C 
HETATM   30  N   UNL     1      42.494 -14.138   5.180  1.00  0.00    -0.345 N 
HETATM   31  C   UNL     1      43.142 -13.885   6.472  1.00  0.00     0.154 C 
HETATM   32  C   UNL     1      41.157 -14.710   5.242  1.00  0.00     0.128 C 
HETATM   33  C   UNL     1      43.811 -15.130   7.065  1.00  0.00     0.254 C 
HETATM   34  N   UNL     1      42.809 -16.275   7.251  1.00  0.00    -0.073 N 
HETATM   35  H   UNL     1      41.977 -15.900   7.724  1.00  0.00     0.279 HD
HETATM   36  C   UNL     1      43.375 -17.313   8.192  1.00  0.00     0.269 C 
HETATM   37  C   UNL     1      42.385 -16.901   5.938  1.00  0.00     0.236 C 
HETATM   38  C   UNL     1      41.155 -16.235   5.329  1.00  0.00     0.048 C 
HETATM   39  O   UNL     1      44.444 -13.592   4.157  1.00  0.00    -0.265 OA
ENDBRANCH   6  29
TORSDOF 7
ENDMDL
MODEL 8
REMARK VINA RESULT:      -8.0      4.498      7.074
REMARK  7 active torsions:
REMARK  status: ('A' for Active; 'I' for Inactive)
REMARK    1  A    between atoms: C_4  and  C_5 
REMARK    2  A    between atoms: C_5  and  C_6 
REMARK    3  A    between atoms: C_6  and  C_7 
REMARK    4  A    between atoms: C_7  and  N_8 
REMARK    5  A    between atoms: C_12  and  O_13 
REMARK    6  A    between atoms: C_12  and  C_14 
REMARK    7  A    between atoms: C_19  and  C_20 
REMARK       I    between atoms: C_20  and  N_21 
ROOT
HETATM    1  C   UNL     1      40.176 -14.513   3.137  1.00  0.00    -0.023 A 
HETATM    2  C   UNL     1      39.900 -13.128   3.221  1.00  0.00     0.024 A 
HETATM    3  C   UNL     1      40.303 -12.382   4.350  1.00  0.00     0.001 A 
HETATM    4  C   UNL     1      40.992 -13.029   5.362  1.00  0.00     0.086 A 
HETATM    5  O   UNL     1      41.305 -12.158   6.359  1.00  0.00    -0.304 OA
HETATM    6  C   UNL     1      40.813 -10.931   6.005  1.00  0.00     0.144 A 
HETATM    7  C   UNL     1      40.210 -11.029   4.760  1.00  0.00     0.057 A 
HETATM    8  C   UNL     1      41.325 -14.376   5.324  1.00  0.00     0.039 A 
HETATM    9  C   UNL     1      40.917 -15.096   4.188  1.00  0.00     0.013 A 
ENDROOT
BRANCH   1  10
HETATM   10  C   UNL     1      39.780 -15.329   1.896  1.00  0.00     0.088 C 
HETATM   11  C   UNL     1      39.827 -16.860   2.073  1.00  0.00     0.071 C 
HETATM   12  C   UNL     1      41.247 -17.381   2.216  1.00  0.00     0.238 C 
HETATM   13  N   UNL     1      42.068 -17.000   1.004  1.00  0.00    -0.071 N 
HETATM   14  H   UNL     1      41.661 -17.469   0.182  1.00  0.00     0.279 HD
HETATM   15  C   UNL     1      42.030 -15.508   0.734  1.00  0.00     0.238 C 
HETATM   16  C   UNL     1      40.595 -15.029   0.621  1.00  0.00     0.071 C 
BRANCH  13  17
HETATM   17  C   UNL     1      43.520 -17.461   1.106  1.00  0.00     0.235 C 
BRANCH  17  18
HETATM   18  C   UNL     1      43.974 -17.579   2.562  1.00  0.00     0.038 C 
BRANCH  18  19
HETATM   19  C   UNL     1      44.392 -19.022   2.915  1.00  0.00     0.040 C 
HETATM   20  C   UNL     1      43.663 -20.026   2.019  1.00  0.00     0.017 C 
BRANCH  19  21
HETATM   21  C   UNL     1      44.150 -19.300   4.363  1.00  0.00     0.057 A 
HETATM   22  O   UNL     1      43.556 -18.289   5.062  1.00  0.00    -0.319 OA
HETATM   23  C   UNL     1      43.420 -18.714   6.349  1.00  0.00     0.049 A 
HETATM   24  C   UNL     1      42.837 -17.748   7.302  1.00  0.00     0.076 C 
HETATM   25  C   UNL     1      43.887 -20.004   6.472  1.00  0.00     0.035 A 
HETATM   26  C   UNL     1      44.355 -20.384   5.191  1.00  0.00     0.035 A 
ENDBRANCH  19  21
ENDBRANCH  18  19
ENDBRANCH  17  18
ENDBRANCH  13  17
BRANCH  10  27
HETATM   27  O   UNL     1      38.422 -15.005   1.586  1.00  0.00    -0.385 OA
HETATM   28  H   UNL     1      38.391 -14.259   0.958  1.00  0.00     0.211 HD
ENDBRANCH  10  27
ENDBRANCH   1  10
BRANCH   6  29
HETATM   29  C   UNL     1      41.011  -9.750   6.830  1.00  0.00     0.277 C 
HETATM   30  N   UNL     1      40.118  -9.421   7.865  1.00  0.00    -0.345 N 
HETATM   31  C   UNL     1      40.390  -8.194   8.622  1.00  0.00     0.154 C 
HETATM   32  C   UNL     1      39.030 -10.247   8.367  1.00  0.00     0.128 C 
HETATM   33  C   UNL     1      41.270  -8.428   9.855  1.00  0.00     0.254 C 
HETATM   34  N   UNL     1      40.641  -9.448  10.811  1.00  0.00    -0.073 N 
HETATM   35  H   UNL     1      39.659  -9.185  10.959  1.00  0.00     0.279 HD
HETATM   36  C   UNL     1      41.294  -9.355  12.171  1.00  0.00     0.269 C 
HETATM   37  C   UNL     1      40.694 -10.863  10.275  1.00  0.00     0.236 C 
HETATM   38  C   UNL     1      39.467 -11.234   9.447  1.00  0.00     0.048 C 
HETATM   39  O   UNL     1      41.978  -9.009   6.632  1.00  0.00    -0.265 OA
ENDBRANCH   6  29
TORSDOF 7
ENDMDL
MODEL 9
REMARK VINA RESULT:      -8.0      2.426      9.159
REMARK  7 active torsions:
REMARK  status: ('A' for Active; 'I' for Inactive)
REMARK    1  A    between atoms: C_4  and  C_5 
REMARK    2  A    between atoms: C_5  and  C_6 
REMARK    3  A    between atoms: C_6  and  C_7 
REMARK    4  A    between atoms: C_7  and  N_8 
REMARK    5  A    between atoms: C_12  and  O_13 
REMARK    6  A    between atoms: C_12  and  C_14 
REMARK    7  A    between atoms: C_19  and  C_20 
REMARK       I    between atoms: C_20  and  N_21 
ROOT
HETATM    1  C   UNL     1      41.409 -14.255  -1.488  1.00  0.00    -0.023 A 
HETATM    2  C   UNL     1      41.018 -15.274  -0.587  1.00  0.00     0.024 A 
HETATM    3  C   UNL     1      41.169 -15.099   0.805  1.00  0.00     0.001 A 
HETATM    4  C   UNL     1      41.688 -13.903   1.272  1.00  0.00     0.086 A 
HETATM    5  O   UNL     1      41.753 -13.910   2.631  1.00  0.00    -0.304 OA
HETATM    6  C   UNL     1      41.281 -15.120   3.062  1.00  0.00     0.144 A 
HETATM    7  C   UNL     1      40.890 -15.869   1.961  1.00  0.00     0.057 A 
HETATM    8  C   UNL     1      42.057 -12.852   0.445  1.00  0.00     0.039 A 
HETATM    9  C   UNL     1      41.893 -13.048  -0.938  1.00  0.00     0.013 A 
ENDROOT
BRANCH   1  10
HETATM   10  C   UNL     1      41.212 -14.414  -3.004  1.00  0.00     0.088 C 
HETATM   11  C   UNL     1      41.161 -13.097  -3.803  1.00  0.00     0.071 C 
HETATM   12  C   UNL     1      39.902 -12.297  -3.516  1.00  0.00     0.238 C 
HETATM   13  N   UNL     1      38.675 -13.119  -3.842  1.00  0.00    -0.071 N 
HETATM   14  H   UNL     1      38.680 -13.312  -4.855  1.00  0.00     0.279 HD
HETATM   15  C   UNL     1      38.677 -14.457  -3.130  1.00  0.00     0.238 C 
HETATM   16  C   UNL     1      39.960 -15.210  -3.427  1.00  0.00     0.071 C 
BRANCH  13  17
HETATM   17  C   UNL     1      37.372 -12.383  -3.537  1.00  0.00     0.235 C 
BRANCH  17  18
HETATM   18  C   UNL     1      37.575 -11.292  -2.484  1.00  0.00     0.038 C 
BRANCH  18  19
HETATM   19  C   UNL     1      36.594 -11.447  -1.304  1.00  0.00     0.040 C 
HETATM   20  C   UNL     1      36.098 -10.077  -0.834  1.00  0.00     0.017 C 
BRANCH  19  21
HETATM   21  C   UNL     1      37.228 -12.213  -0.189  1.00  0.00     0.057 A 
HETATM   22  O   UNL     1      37.756 -11.455   0.816  1.00  0.00    -0.319 OA
HETATM   23  C   UNL     1      38.288 -12.312   1.731  1.00  0.00     0.049 A 
HETATM   24  C   UNL     1      38.962 -11.699   2.893  1.00  0.00     0.076 C 
HETATM   25  C   UNL     1      38.072 -13.615   1.340  1.00  0.00     0.035 A 
HETATM   26  C   UNL     1      37.386 -13.552   0.103  1.00  0.00     0.035 A 
ENDBRANCH  19  21
ENDBRANCH  18  19
ENDBRANCH  17  18
ENDBRANCH  13  17
BRANCH  10  27
HETATM   27  O   UNL     1      42.336 -15.143  -3.507  1.00  0.00    -0.385 OA
HETATM   28  H   UNL     1      43.160 -14.800  -3.115  1.00  0.00     0.211 HD
ENDBRANCH  10  27
ENDBRANCH   1  10
BRANCH   6  29
HETATM   29  C   UNL     1      41.168 -15.449   4.474  1.00  0.00     0.277 C 
HETATM   30  N   UNL     1      41.215 -16.780   4.922  1.00  0.00    -0.345 N 
HETATM   31  C   UNL     1      41.063 -17.010   6.363  1.00  0.00     0.154 C 
HETATM   32  C   UNL     1      41.547 -17.953   4.125  1.00  0.00     0.128 C 
HETATM   33  C   UNL     1      42.399 -17.019   7.116  1.00  0.00     0.254 C 
HETATM   34  N   UNL     1      43.351 -18.085   6.562  1.00  0.00    -0.073 N 
HETATM   35  H   UNL     1      42.832 -18.969   6.483  1.00  0.00     0.279 HD
HETATM   36  C   UNL     1      44.461 -18.354   7.552  1.00  0.00     0.269 C 
HETATM   37  C   UNL     1      43.909 -17.721   5.202  1.00  0.00     0.236 C 
HETATM   38  C   UNL     1      43.047 -18.227   4.049  1.00  0.00     0.048 C 
HETATM   39  O   UNL     1      41.026 -14.553   5.310  1.00  0.00    -0.265 OA
ENDBRANCH   6  29
TORSDOF 7
ENDMDL
MODEL 10
REMARK VINA RESULT:      -7.7      1.957      8.630
REMARK  7 active torsions:
REMARK  status: ('A' for Active; 'I' for Inactive)
REMARK    1  A    between atoms: C_4  and  C_5 
REMARK    2  A    between atoms: C_5  and  C_6 
REMARK    3  A    between atoms: C_6  and  C_7 
REMARK    4  A    between atoms: C_7  and  N_8 
REMARK    5  A    between atoms: C_12  and  O_13 
REMARK    6  A    between atoms: C_12  and  C_14 
REMARK    7  A    between atoms: C_19  and  C_20 
REMARK       I    between atoms: C_20  and  N_21 
ROOT
HETATM    1  C   UNL     1      40.330 -14.763   0.109  1.00  0.00    -0.023 A 
HETATM    2  C   UNL     1      41.531 -15.495  -0.046  1.00  0.00     0.024 A 
HETATM    3  C   UNL     1      41.887 -16.495   0.884  1.00  0.00     0.001 A 
HETATM    4  C   UNL     1      41.029 -16.759   1.938  1.00  0.00     0.086 A 
HETATM    5  O   UNL     1      41.529 -17.752   2.723  1.00  0.00    -0.304 OA
HETATM    6  C   UNL     1      42.726 -18.140   2.186  1.00  0.00     0.144 A 
HETATM    7  C   UNL     1      42.966 -17.401   1.038  1.00  0.00     0.057 A 
HETATM    8  C   UNL     1      39.821 -16.102   2.127  1.00  0.00     0.039 A 
HETATM    9  C   UNL     1      39.486 -15.113   1.186  1.00  0.00     0.013 A 
ENDROOT
BRANCH   1  10
HETATM   10  C   UNL     1      39.908 -13.699  -0.917  1.00  0.00     0.088 C 
HETATM   11  C   UNL     1      40.836 -12.472  -1.012  1.00  0.00     0.071 C 
HETATM   12  C   UNL     1      40.766 -11.598   0.229  1.00  0.00     0.238 C 
HETATM   13  N   UNL     1      39.347 -11.126   0.456  1.00  0.00    -0.071 N 
HETATM   14  H   UNL     1      39.077 -10.532  -0.341  1.00  0.00     0.279 HD
HETATM   15  C   UNL     1      38.363 -12.279   0.512  1.00  0.00     0.238 C 
HETATM   16  C   UNL     1      38.484 -13.135  -0.735  1.00  0.00     0.071 C 
BRANCH  13  17
HETATM   17  C   UNL     1      39.203 -10.274   1.715  1.00  0.00     0.235 C 
BRANCH  17  18
HETATM   18  C   UNL     1      40.205 -10.688   2.794  1.00  0.00     0.038 C 
BRANCH  18  19
HETATM   19  C   UNL     1      39.552 -11.580   3.870  1.00  0.00     0.040 C 
HETATM   20  C   UNL     1      39.224 -10.761   5.120  1.00  0.00     0.017 C 
BRANCH  19  21
HETATM   21  C   UNL     1      40.430 -12.746   4.190  1.00  0.00     0.057 A 
HETATM   22  O   UNL     1      41.609 -12.796   3.505  1.00  0.00    -0.319 OA
HETATM   23  C   UNL     1      42.269 -13.913   3.918  1.00  0.00     0.049 A 
HETATM   24  C   UNL     1      43.563 -14.193   3.264  1.00  0.00     0.076 C 
HETATM   25  C   UNL     1      41.539 -14.560   4.891  1.00  0.00     0.035 A 
HETATM   26  C   UNL     1      40.354 -13.806   5.069  1.00  0.00     0.035 A 
ENDBRANCH  19  21
ENDBRANCH  18  19
ENDBRANCH  17  18
ENDBRANCH  13  17
BRANCH  10  27
HETATM   27  O   UNL     1      39.929 -14.317  -2.207  1.00  0.00    -0.385 OA
HETATM   28  H   UNL     1      39.122 -14.848  -2.338  1.00  0.00     0.211 HD
ENDBRANCH  10  27
ENDBRANCH   1  10
BRANCH   6  29
HETATM   29  C   UNL     1      43.514 -19.222   2.754  1.00  0.00     0.277 C 
HETATM   30  N   UNL     1      44.327 -19.022   3.883  1.00  0.00    -0.345 N 
HETATM   31  C   UNL     1      45.105 -20.170   4.363  1.00  0.00     0.154 C 
HETATM   32  C   UNL     1      44.369 -17.833   4.723  1.00  0.00     0.128 C 
HETATM   33  C   UNL     1      44.363 -21.006   5.412  1.00  0.00     0.254 C 
HETATM   34  N   UNL     1      43.963 -20.161   6.627  1.00  0.00    -0.073 N 
HETATM   35  H   UNL     1      44.786 -19.623   6.929  1.00  0.00     0.279 HD
HETATM   36  C   UNL     1      43.617 -21.059   7.792  1.00  0.00     0.269 C 
HETATM   37  C   UNL     1      42.833 -19.199   6.324  1.00  0.00     0.236 C 
HETATM   38  C   UNL     1      43.322 -17.839   5.834  1.00  0.00     0.048 C 
HETATM   39  O   UNL     1      43.482 -20.346   2.247  1.00  0.00    -0.265 OA
ENDBRANCH   6  29
TORSDOF 7
ENDMDL
