MODEL 1
REMARK VINA RESULT:      -8.0      0.000      0.000
REMARK  4 active torsions:
REMARK  status: ('A' for Active; 'I' for Inactive)
REMARK    1  A    between atoms: S_2  and  N_3 
REMARK    2  A    between atoms: N_3  and  N_4 
REMARK    3  A    between atoms: C_10  and  C_11 
REMARK    4  A    between atoms: C_13  and  O_14 
ROOT
HETATM    1  N   UNL     1      42.701 -16.655   3.811  1.00  0.00    -0.241 N 
HETATM    2  C   UNL     1      43.375 -17.545   4.646  1.00  0.00     0.272 C 
HETATM    3  O   UNL     1      43.745 -17.284   5.789  1.00  0.00    -0.266 OA
HETATM    4  C   UNL     1      43.705 -18.856   4.033  1.00  0.00     0.054 A 
HETATM    5  C   UNL     1      43.381 -19.068   2.683  1.00  0.00     0.026 A 
HETATM    6  N   UNL     1      42.735 -18.073   1.922  1.00  0.00    -0.265 NA
HETATM    7  C   UNL     1      41.880 -17.215   2.742  1.00  0.00     0.217 C 
HETATM    8  C   UNL     1      44.375 -19.836   4.777  1.00  0.00     0.019 A 
HETATM    9  C   UNL     1      44.771 -21.020   4.157  1.00  0.00     0.001 A 
HETATM   10  C   UNL     1      44.521 -21.209   2.799  1.00  0.00     0.002 A 
HETATM   11  C   UNL     1      43.842 -20.234   2.063  1.00  0.00     0.024 A 
HETATM   12  H   UNL     1      42.230 -18.466   1.132  1.00  0.00     0.130 HD
ENDROOT
BRANCH   7  13
HETATM   13  C   UNL     1      41.201 -16.180   1.861  1.00  0.00    -0.017 A 
HETATM   14  C   UNL     1      41.864 -15.704   0.715  1.00  0.00     0.047 A 
HETATM   15  C   UNL     1      41.237 -14.787  -0.123  1.00  0.00     0.066 A 
HETATM   16  C   UNL     1      39.961 -14.320   0.161  1.00  0.00     0.036 A 
HETATM   17  C   UNL     1      39.289 -14.788   1.289  1.00  0.00     0.003 A 
HETATM   18  C   UNL     1      39.900 -15.719   2.130  1.00  0.00     0.011 A 
BRANCH  15  19
HETATM   19  O   UNL     1      41.849 -14.326  -1.249  1.00  0.00    -0.361 OA
HETATM   20  H   UNL     1      41.256 -14.464  -2.007  1.00  0.00     0.217 HD
ENDBRANCH  15  19
ENDBRANCH   7  13
BRANCH   1  21
HETATM   21  N   UNL     1      42.237 -15.362   4.413  1.00  0.00    -0.123 NA
HETATM   22  H   UNL     1      41.986 -15.425   5.408  1.00  0.00     0.165 HD
BRANCH  21  23
HETATM   23  S   UNL     1      43.274 -14.020   4.255  1.00  0.00     0.222 S 
HETATM   24  C   UNL     1      42.128 -12.659   4.159  1.00  0.00     0.181 C 
HETATM   25  O   UNL     1      44.021 -14.153   3.021  1.00  0.00    -0.210 OA
HETATM   26  O   UNL     1      43.974 -13.944   5.521  1.00  0.00    -0.210 OA
ENDBRANCH  21  23
ENDBRANCH   1  21
TORSDOF 4
ENDMDL
MODEL 2
REMARK VINA RESULT:      -7.8      1.626      1.819
REMARK  4 active torsions:
REMARK  status: ('A' for Active; 'I' for Inactive)
REMARK    1  A    between atoms: S_2  and  N_3 
REMARK    2  A    between atoms: N_3  and  N_4 
REMARK    3  A    between atoms: C_10  and  C_11 
REMARK    4  A    between atoms: C_13  and  O_14 
ROOT
HETATM    1  N   UNL     1      43.412 -17.479   3.632  1.00  0.00    -0.241 N 
HETATM    2  C   UNL     1      44.135 -18.458   4.311  1.00  0.00     0.272 C 
HETATM    3  O   UNL     1      44.790 -18.257   5.332  1.00  0.00    -0.266 OA
HETATM    4  C   UNL     1      44.137 -19.798   3.671  1.00  0.00     0.054 A 
HETATM    5  C   UNL     1      43.485 -19.955   2.437  1.00  0.00     0.026 A 
HETATM    6  N   UNL     1      42.819 -18.876   1.820  1.00  0.00    -0.265 NA
HETATM    7  C   UNL     1      42.299 -17.916   2.793  1.00  0.00     0.217 C 
HETATM    8  C   UNL     1      44.823 -20.864   4.265  1.00  0.00     0.019 A 
HETATM    9  C   UNL     1      44.904 -22.087   3.601  1.00  0.00     0.001 A 
HETATM   10  C   UNL     1      44.324 -22.231   2.341  1.00  0.00     0.002 A 
HETATM   11  C   UNL     1      43.630 -21.167   1.757  1.00  0.00     0.024 A 
HETATM   12  H   UNL     1      42.098 -19.191   1.177  1.00  0.00     0.130 HD
ENDROOT
BRANCH   7  13
HETATM   13  C   UNL     1      41.579 -16.792   2.067  1.00  0.00    -0.017 A 
HETATM   14  C   UNL     1      42.164 -16.223   0.920  1.00  0.00     0.047 A 
HETATM   15  C   UNL     1      41.497 -15.222   0.221  1.00  0.00     0.066 A 
HETATM   16  C   UNL     1      40.258 -14.761   0.647  1.00  0.00     0.036 A 
HETATM   17  C   UNL     1      39.663 -15.321   1.777  1.00  0.00     0.003 A 
HETATM   18  C   UNL     1      40.315 -16.336   2.479  1.00  0.00     0.011 A 
BRANCH  15  19
HETATM   19  O   UNL     1      42.031 -14.668  -0.903  1.00  0.00    -0.361 OA
HETATM   20  H   UNL     1      41.343 -14.151  -1.354  1.00  0.00     0.217 HD
ENDBRANCH  15  19
ENDBRANCH   7  13
BRANCH   1  21
HETATM   21  N   UNL     1      43.276 -16.140   4.291  1.00  0.00    -0.123 NA
HETATM   22  H   UNL     1      42.978 -15.385   3.660  1.00  0.00     0.165 HD
BRANCH  21  23
HETATM   23  S   UNL     1      42.271 -16.053   5.664  1.00  0.00     0.222 S 
HETATM   24  C   UNL     1      43.440 -15.781   6.980  1.00  0.00     0.181 C 
HETATM   25  O   UNL     1      41.597 -17.325   5.827  1.00  0.00    -0.210 OA
HETATM   26  O   UNL     1      41.498 -14.843   5.478  1.00  0.00    -0.210 OA
ENDBRANCH  21  23
ENDBRANCH   1  21
TORSDOF 4
ENDMDL
MODEL 3
REMARK VINA RESULT:      -7.8      1.124      1.503
REMARK  4 active torsions:
REMARK  status: ('A' for Active; 'I' for Inactive)
REMARK    1  A    between atoms: S_2  and  N_3 
REMARK    2  A    between atoms: N_3  and  N_4 
REMARK    3  A    between atoms: C_10  and  C_11 
REMARK    4  A    between atoms: C_13  and  O_14 
ROOT
HETATM    1  N   UNL     1      42.438 -16.341   3.668  1.00  0.00    -0.241 N 
HETATM    2  C   UNL     1      43.112 -17.211   4.522  1.00  0.00     0.272 C 
HETATM    3  O   UNL     1      43.429 -16.945   5.681  1.00  0.00    -0.266 OA
HETATM    4  C   UNL     1      43.515 -18.505   3.915  1.00  0.00     0.054 A 
HETATM    5  C   UNL     1      43.251 -18.719   2.553  1.00  0.00     0.026 A 
HETATM    6  N   UNL     1      42.596 -17.743   1.773  1.00  0.00    -0.265 NA
HETATM    7  C   UNL     1      41.679 -16.924   2.565  1.00  0.00     0.217 C 
HETATM    8  C   UNL     1      44.192 -19.464   4.678  1.00  0.00     0.019 A 
HETATM    9  C   UNL     1      44.655 -20.628   4.067  1.00  0.00     0.001 A 
HETATM   10  C   UNL     1      44.465 -20.816   2.699  1.00  0.00     0.002 A 
HETATM   11  C   UNL     1      43.777 -19.862   1.944  1.00  0.00     0.024 A 
HETATM   12  H   UNL     1      42.137 -18.149   0.962  1.00  0.00     0.130 HD
ENDROOT
BRANCH   7  13
HETATM   13  C   UNL     1      40.995 -15.909   1.665  1.00  0.00    -0.017 A 
HETATM   14  C   UNL     1      39.633 -15.616   1.860  1.00  0.00     0.047 A 
HETATM   15  C   UNL     1      39.005 -14.659   1.070  1.00  0.00     0.066 A 
HETATM   16  C   UNL     1      39.702 -13.989   0.074  1.00  0.00     0.036 A 
HETATM   17  C   UNL     1      41.055 -14.262  -0.126  1.00  0.00     0.003 A 
HETATM   18  C   UNL     1      41.701 -15.210   0.669  1.00  0.00     0.011 A 
BRANCH  15  19
HETATM   19  O   UNL     1      37.692 -14.343   1.252  1.00  0.00    -0.361 OA
HETATM   20  H   UNL     1      37.281 -15.022   1.813  1.00  0.00     0.217 HD
ENDBRANCH  15  19
ENDBRANCH   7  13
BRANCH   1  21
HETATM   21  N   UNL     1      41.903 -15.071   4.259  1.00  0.00    -0.123 NA
HETATM   22  H   UNL     1      41.641 -15.143   5.251  1.00  0.00     0.165 HD
BRANCH  21  23
HETATM   23  S   UNL     1      42.876 -13.680   4.112  1.00  0.00     0.222 S 
HETATM   24  C   UNL     1      41.744 -12.493   3.416  1.00  0.00     0.181 C 
HETATM   25  O   UNL     1      43.956 -13.965   3.189  1.00  0.00    -0.210 OA
HETATM   26  O   UNL     1      43.171 -13.290   5.475  1.00  0.00    -0.210 OA
ENDBRANCH  21  23
ENDBRANCH   1  21
TORSDOF 4
ENDMDL
MODEL 4
REMARK VINA RESULT:      -7.7      2.454      4.092
REMARK  4 active torsions:
REMARK  status: ('A' for Active; 'I' for Inactive)
REMARK    1  A    between atoms: S_2  and  N_3 
REMARK    2  A    between atoms: N_3  and  N_4 
REMARK    3  A    between atoms: C_10  and  C_11 
REMARK    4  A    between atoms: C_13  and  O_14 
ROOT
HETATM    1  N   UNL     1      43.139 -17.430   3.119  1.00  0.00    -0.241 N 
HETATM    2  C   UNL     1      43.767 -18.616   2.741  1.00  0.00     0.272 C 
HETATM    3  O   UNL     1      44.005 -18.938   1.579  1.00  0.00    -0.266 OA
HETATM    4  C   UNL     1      44.080 -19.546   3.855  1.00  0.00     0.054 A 
HETATM    5  C   UNL     1      43.674 -19.200   5.154  1.00  0.00     0.026 A 
HETATM    6  N   UNL     1      43.004 -17.986   5.412  1.00  0.00    -0.265 NA
HETATM    7  C   UNL     1      43.383 -16.933   4.470  1.00  0.00     0.217 C 
HETATM    8  C   UNL     1      44.718 -20.766   3.600  1.00  0.00     0.019 A 
HETATM    9  C   UNL     1      44.910 -21.674   4.640  1.00  0.00     0.001 A 
HETATM   10  C   UNL     1      44.444 -21.372   5.919  1.00  0.00     0.002 A 
HETATM   11  C   UNL     1      43.818 -20.148   6.172  1.00  0.00     0.024 A 
HETATM   12  H   UNL     1      43.114 -17.688   6.377  1.00  0.00     0.130 HD
ENDROOT
BRANCH   7  13
HETATM   13  C   UNL     1      42.642 -15.652   4.813  1.00  0.00    -0.017 A 
HETATM   14  C   UNL     1      41.274 -15.708   5.137  1.00  0.00     0.047 A 
HETATM   15  C   UNL     1      40.593 -14.548   5.493  1.00  0.00     0.066 A 
HETATM   16  C   UNL     1      41.243 -13.322   5.522  1.00  0.00     0.036 A 
HETATM   17  C   UNL     1      42.601 -13.251   5.210  1.00  0.00     0.003 A 
HETATM   18  C   UNL     1      43.299 -14.409   4.866  1.00  0.00     0.011 A 
BRANCH  15  19
HETATM   19  O   UNL     1      39.274 -14.579   5.831  1.00  0.00    -0.361 OA
HETATM   20  H   UNL     1      39.158 -15.176   6.589  1.00  0.00     0.217 HD
ENDBRANCH  15  19
ENDBRANCH   7  13
BRANCH   1  21
HETATM   21  N   UNL     1      42.907 -16.403   2.052  1.00  0.00    -0.123 NA
HETATM   22  H   UNL     1      43.581 -16.438   1.277  1.00  0.00     0.165 HD
BRANCH  21  23
HETATM   23  S   UNL     1      41.356 -16.356   1.348  1.00  0.00     0.222 S 
HETATM   24  C   UNL     1      40.880 -14.655   1.582  1.00  0.00     0.181 C 
HETATM   25  O   UNL     1      40.483 -17.242   2.090  1.00  0.00    -0.210 OA
HETATM   26  O   UNL     1      41.586 -16.580  -0.064  1.00  0.00    -0.210 OA
ENDBRANCH  21  23
ENDBRANCH   1  21
TORSDOF 4
ENDMDL
MODEL 5
REMARK VINA RESULT:      -7.4      2.339      3.793
REMARK  4 active torsions:
REMARK  status: ('A' for Active; 'I' for Inactive)
REMARK    1  A    between atoms: S_2  and  N_3 
REMARK    2  A    between atoms: N_3  and  N_4 
REMARK    3  A    between atoms: C_10  and  C_11 
REMARK    4  A    between atoms: C_13  and  O_14 
ROOT
HETATM    1  N   UNL     1      42.835 -17.068   3.021  1.00  0.00    -0.241 N 
HETATM    2  C   UNL     1      43.603 -18.181   2.687  1.00  0.00     0.272 C 
HETATM    3  O   UNL     1      43.935 -18.481   1.542  1.00  0.00    -0.266 OA
HETATM    4  C   UNL     1      43.953 -19.070   3.824  1.00  0.00     0.054 A 
HETATM    5  C   UNL     1      43.446 -18.763   5.097  1.00  0.00     0.026 A 
HETATM    6  N   UNL     1      42.639 -17.626   5.309  1.00  0.00    -0.265 NA
HETATM    7  C   UNL     1      42.954 -16.542   4.379  1.00  0.00     0.217 C 
HETATM    8  C   UNL     1      44.729 -20.216   3.614  1.00  0.00     0.019 A 
HETATM    9  C   UNL     1      44.961 -21.094   4.671  1.00  0.00     0.001 A 
HETATM   10  C   UNL     1      44.399 -20.839   5.921  1.00  0.00     0.002 A 
HETATM   11  C   UNL     1      43.635 -19.687   6.130  1.00  0.00     0.024 A 
HETATM   12  H   UNL     1      42.665 -17.315   6.276  1.00  0.00     0.130 HD
ENDROOT
BRANCH   7  13
HETATM   13  C   UNL     1      42.065 -15.346   4.671  1.00  0.00    -0.017 A 
HETATM   14  C   UNL     1      42.528 -14.050   4.375  1.00  0.00     0.047 A 
HETATM   15  C   UNL     1      41.709 -12.948   4.599  1.00  0.00     0.066 A 
HETATM   16  C   UNL     1      40.434 -13.105   5.127  1.00  0.00     0.036 A 
HETATM   17  C   UNL     1      39.958 -14.383   5.418  1.00  0.00     0.003 A 
HETATM   18  C   UNL     1      40.764 -15.498   5.184  1.00  0.00     0.011 A 
BRANCH  15  19
HETATM   19  O   UNL     1      42.125 -11.685   4.303  1.00  0.00    -0.361 OA
HETATM   20  H   UNL     1      42.909 -11.741   3.731  1.00  0.00     0.217 HD
ENDBRANCH  15  19
ENDBRANCH   7  13
BRANCH   1  21
HETATM   21  N   UNL     1      42.552 -16.074   1.935  1.00  0.00    -0.123 NA
HETATM   22  H   UNL     1      43.268 -16.038   1.197  1.00  0.00     0.165 HD
BRANCH  21  23
HETATM   23  S   UNL     1      41.046 -16.197   1.147  1.00  0.00     0.222 S 
HETATM   24  C   UNL     1      40.383 -14.554   1.330  1.00  0.00     0.181 C 
HETATM   25  O   UNL     1      40.231 -17.164   1.854  1.00  0.00    -0.210 OA
HETATM   26  O   UNL     1      41.375 -16.408  -0.247  1.00  0.00    -0.210 OA
ENDBRANCH  21  23
ENDBRANCH   1  21
TORSDOF 4
ENDMDL
MODEL 6
REMARK VINA RESULT:      -7.1      2.399      3.012
REMARK  4 active torsions:
REMARK  status: ('A' for Active; 'I' for Inactive)
REMARK    1  A    between atoms: S_2  and  N_3 
REMARK    2  A    between atoms: N_3  and  N_4 
REMARK    3  A    between atoms: C_10  and  C_11 
REMARK    4  A    between atoms: C_13  and  O_14 
ROOT
HETATM    1  N   UNL     1      43.218 -18.551   5.355  1.00  0.00    -0.241 N 
HETATM    2  C   UNL     1      43.652 -19.855   5.586  1.00  0.00     0.272 C 
HETATM    3  O   UNL     1      43.844 -20.338   6.701  1.00  0.00    -0.266 OA
HETATM    4  C   UNL     1      43.957 -20.644   4.366  1.00  0.00     0.054 A 
HETATM    5  C   UNL     1      43.850 -20.014   3.115  1.00  0.00     0.026 A 
HETATM    6  N   UNL     1      43.440 -18.670   3.006  1.00  0.00    -0.265 NA
HETATM    7  C   UNL     1      42.542 -18.274   4.091  1.00  0.00     0.217 C 
HETATM    8  C   UNL     1      44.394 -21.970   4.471  1.00  0.00     0.019 A 
HETATM    9  C   UNL     1      44.777 -22.662   3.324  1.00  0.00     0.001 A 
HETATM   10  C   UNL     1      44.746 -22.023   2.085  1.00  0.00     0.002 A 
HETATM   11  C   UNL     1      44.298 -20.702   1.983  1.00  0.00     0.024 A 
HETATM   12  H   UNL     1      43.043 -18.466   2.093  1.00  0.00     0.130 HD
ENDROOT
BRANCH   7  13
HETATM   13  C   UNL     1      42.125 -16.825   3.904  1.00  0.00    -0.017 A 
HETATM   14  C   UNL     1      43.083 -15.873   3.509  1.00  0.00     0.047 A 
HETATM   15  C   UNL     1      42.706 -14.552   3.294  1.00  0.00     0.066 A 
HETATM   16  C   UNL     1      41.390 -14.148   3.477  1.00  0.00     0.036 A 
HETATM   17  C   UNL     1      40.428 -15.081   3.862  1.00  0.00     0.003 A 
HETATM   18  C   UNL     1      40.790 -16.414   4.066  1.00  0.00     0.011 A 
BRANCH  15  19
HETATM   19  O   UNL     1      43.610 -13.615   2.892  1.00  0.00    -0.361 OA
HETATM   20  H   UNL     1      43.954 -13.156   3.676  1.00  0.00     0.217 HD
ENDBRANCH  15  19
ENDBRANCH   7  13
BRANCH   1  21
HETATM   21  N   UNL     1      42.783 -17.748   6.544  1.00  0.00    -0.123 NA
HETATM   22  H   UNL     1      42.282 -18.290   7.260  1.00  0.00     0.165 HD
BRANCH  21  23
HETATM   23  S   UNL     1      43.985 -16.857   7.358  1.00  0.00     0.222 S 
HETATM   24  C   UNL     1      43.643 -15.187   6.837  1.00  0.00     0.181 C 
HETATM   25  O   UNL     1      45.284 -17.289   6.884  1.00  0.00    -0.210 OA
HETATM   26  O   UNL     1      43.648 -16.979   8.761  1.00  0.00    -0.210 OA
ENDBRANCH  21  23
ENDBRANCH   1  21
TORSDOF 4
ENDMDL
MODEL 7
REMARK VINA RESULT:      -7.0      2.638      4.558
REMARK  4 active torsions:
REMARK  status: ('A' for Active; 'I' for Inactive)
REMARK    1  A    between atoms: S_2  and  N_3 
REMARK    2  A    between atoms: N_3  and  N_4 
REMARK    3  A    between atoms: C_10  and  C_11 
REMARK    4  A    between atoms: C_13  and  O_14 
ROOT
HETATM    1  N   UNL     1      41.615 -15.346   2.181  1.00  0.00    -0.241 N 
HETATM    2  C   UNL     1      42.148 -16.402   1.444  1.00  0.00     0.272 C 
HETATM    3  O   UNL     1      42.012 -16.544   0.230  1.00  0.00    -0.266 OA
HETATM    4  C   UNL     1      42.856 -17.435   2.243  1.00  0.00     0.054 A 
HETATM    5  C   UNL     1      42.877 -17.305   3.641  1.00  0.00     0.026 A 
HETATM    6  N   UNL     1      42.264 -16.209   4.283  1.00  0.00    -0.265 NA
HETATM    7  C   UNL     1      42.259 -15.009   3.448  1.00  0.00     0.217 C 
HETATM    8  C   UNL     1      43.441 -18.540   1.612  1.00  0.00     0.019 A 
HETATM    9  C   UNL     1      44.009 -19.552   2.384  1.00  0.00     0.001 A 
HETATM   10  C   UNL     1      43.968 -19.470   3.775  1.00  0.00     0.002 A 
HETATM   11  C   UNL     1      43.395 -18.359   4.400  1.00  0.00     0.024 A 
HETATM   12  H   UNL     1      42.665 -16.031   5.199  1.00  0.00     0.130 HD
ENDROOT
BRANCH   7  13
HETATM   13  C   UNL     1      41.603 -13.865   4.202  1.00  0.00    -0.017 A 
HETATM   14  C   UNL     1      40.480 -14.122   5.011  1.00  0.00     0.047 A 
HETATM   15  C   UNL     1      39.894 -13.092   5.740  1.00  0.00     0.066 A 
HETATM   16  C   UNL     1      40.395 -11.799   5.672  1.00  0.00     0.036 A 
HETATM   17  C   UNL     1      41.511 -11.530   4.881  1.00  0.00     0.003 A 
HETATM   18  C   UNL     1      42.117 -12.557   4.157  1.00  0.00     0.011 A 
BRANCH  15  19
HETATM   19  O   UNL     1      38.820 -13.319   6.546  1.00  0.00    -0.361 OA
HETATM   20  H   UNL     1      39.118 -13.325   7.471  1.00  0.00     0.217 HD
ENDBRANCH  15  19
ENDBRANCH   7  13
BRANCH   1  21
HETATM   21  N   UNL     1      40.994 -14.216   1.416  1.00  0.00    -0.123 NA
HETATM   22  H   UNL     1      41.395 -14.067   0.481  1.00  0.00     0.165 HD
BRANCH  21  23
HETATM   23  S   UNL     1      39.302 -14.252   1.221  1.00  0.00     0.222 S 
HETATM   24  C   UNL     1      38.794 -12.731   1.996  1.00  0.00     0.181 C 
HETATM   25  O   UNL     1      38.777 -15.396   1.938  1.00  0.00    -0.210 OA
HETATM   26  O   UNL     1      39.093 -14.133  -0.207  1.00  0.00    -0.210 OA
ENDBRANCH  21  23
ENDBRANCH   1  21
TORSDOF 4
ENDMDL
MODEL 8
REMARK VINA RESULT:      -7.0      2.737      5.055
REMARK  4 active torsions:
REMARK  status: ('A' for Active; 'I' for Inactive)
REMARK    1  A    between atoms: S_2  and  N_3 
REMARK    2  A    between atoms: N_3  and  N_4 
REMARK    3  A    between atoms: C_10  and  C_11 
REMARK    4  A    between atoms: C_13  and  O_14 
ROOT
HETATM    1  N   UNL     1      43.163 -17.793   3.517  1.00  0.00    -0.241 N 
HETATM    2  C   UNL     1      43.198 -18.625   2.400  1.00  0.00     0.272 C 
HETATM    3  O   UNL     1      42.715 -18.342   1.304  1.00  0.00    -0.266 OA
HETATM    4  C   UNL     1      43.805 -19.961   2.627  1.00  0.00     0.054 A 
HETATM    5  C   UNL     1      44.226 -20.296   3.924  1.00  0.00     0.026 A 
HETATM    6  N   UNL     1      44.101 -19.383   4.992  1.00  0.00    -0.265 NA
HETATM    7  C   UNL     1      44.181 -17.992   4.545  1.00  0.00     0.217 C 
HETATM    8  C   UNL     1      43.903 -20.882   1.577  1.00  0.00     0.019 A 
HETATM    9  C   UNL     1      44.378 -22.167   1.830  1.00  0.00     0.001 A 
HETATM   10  C   UNL     1      44.728 -22.534   3.129  1.00  0.00     0.002 A 
HETATM   11  C   UNL     1      44.640 -21.608   4.172  1.00  0.00     0.024 A 
HETATM   12  H   UNL     1      44.762 -19.578   5.739  1.00  0.00     0.130 HD
ENDROOT
BRANCH   7  13
HETATM   13  C   UNL     1      44.059 -17.064   5.741  1.00  0.00    -0.017 A 
HETATM   14  C   UNL     1      43.764 -17.602   7.008  1.00  0.00     0.047 A 
HETATM   15  C   UNL     1      43.690 -16.768   8.119  1.00  0.00     0.066 A 
HETATM   16  C   UNL     1      43.891 -15.400   7.997  1.00  0.00     0.036 A 
HETATM   17  C   UNL     1      44.191 -14.854   6.750  1.00  0.00     0.003 A 
HETATM   18  C   UNL     1      44.283 -15.681   5.629  1.00  0.00     0.011 A 
BRANCH  15  19
HETATM   19  O   UNL     1      43.426 -17.266   9.360  1.00  0.00    -0.361 OA
HETATM   20  H   UNL     1      44.253 -17.601   9.745  1.00  0.00     0.217 HD
ENDBRANCH  15  19
ENDBRANCH   7  13
BRANCH   1  21
HETATM   21  N   UNL     1      42.670 -16.391   3.318  1.00  0.00    -0.123 NA
HETATM   22  H   UNL     1      42.801 -16.028   2.364  1.00  0.00     0.165 HD
BRANCH  21  23
HETATM   23  S   UNL     1      41.052 -16.072   3.744  1.00  0.00     0.222 S 
HETATM   24  C   UNL     1      41.087 -14.329   4.109  1.00  0.00     0.181 C 
HETATM   25  O   UNL     1      40.724 -16.840   4.928  1.00  0.00    -0.210 OA
HETATM   26  O   UNL     1      40.303 -16.271   2.521  1.00  0.00    -0.210 OA
ENDBRANCH  21  23
ENDBRANCH   1  21
TORSDOF 4
ENDMDL
MODEL 9
REMARK VINA RESULT:      -7.0      2.440      6.503
REMARK  4 active torsions:
REMARK  status: ('A' for Active; 'I' for Inactive)
REMARK    1  A    between atoms: S_2  and  N_3 
REMARK    2  A    between atoms: N_3  and  N_4 
REMARK    3  A    between atoms: C_10  and  C_11 
REMARK    4  A    between atoms: C_13  and  O_14 
ROOT
HETATM    1  N   UNL     1      41.261 -16.479   3.392  1.00  0.00    -0.241 N 
HETATM    2  C   UNL     1      40.381 -16.296   2.327  1.00  0.00     0.272 C 
HETATM    3  O   UNL     1      40.222 -17.097   1.408  1.00  0.00    -0.266 OA
HETATM    4  C   UNL     1      39.668 -14.993   2.315  1.00  0.00     0.054 A 
HETATM    5  C   UNL     1      39.974 -14.051   3.311  1.00  0.00     0.026 A 
HETATM    6  N   UNL     1      40.918 -14.333   4.319  1.00  0.00    -0.265 NA
HETATM    7  C   UNL     1      40.985 -15.760   4.633  1.00  0.00     0.217 C 
HETATM    8  C   UNL     1      38.751 -14.697   1.299  1.00  0.00     0.019 A 
HETATM    9  C   UNL     1      38.170 -13.432   1.243  1.00  0.00     0.001 A 
HETATM   10  C   UNL     1      38.523 -12.464   2.182  1.00  0.00     0.002 A 
HETATM   11  C   UNL     1      39.430 -12.767   3.202  1.00  0.00     0.024 A 
HETATM   12  H   UNL     1      40.767 -13.769   5.151  1.00  0.00     0.130 HD
ENDROOT
BRANCH   7  13
HETATM   13  C   UNL     1      42.005 -15.992   5.735  1.00  0.00    -0.017 A 
HETATM   14  C   UNL     1      43.106 -15.125   5.854  1.00  0.00     0.047 A 
HETATM   15  C   UNL     1      44.025 -15.301   6.884  1.00  0.00     0.066 A 
HETATM   16  C   UNL     1      43.879 -16.336   7.797  1.00  0.00     0.036 A 
HETATM   17  C   UNL     1      42.789 -17.200   7.697  1.00  0.00     0.003 A 
HETATM   18  C   UNL     1      41.852 -17.025   6.677  1.00  0.00     0.011 A 
BRANCH  15  19
HETATM   19  O   UNL     1      45.088 -14.463   7.034  1.00  0.00    -0.361 OA
HETATM   20  H   UNL     1      45.855 -14.845   6.574  1.00  0.00     0.217 HD
ENDBRANCH  15  19
ENDBRANCH   7  13
BRANCH   1  21
HETATM   21  N   UNL     1      41.918 -17.820   3.520  1.00  0.00    -0.123 NA
HETATM   22  H   UNL     1      41.449 -18.573   3.000  1.00  0.00     0.165 HD
BRANCH  21  23
HETATM   23  S   UNL     1      43.573 -17.912   3.125  1.00  0.00     0.222 S 
HETATM   24  C   UNL     1      43.610 -19.239   1.936  1.00  0.00     0.181 C 
HETATM   25  O   UNL     1      44.315 -18.267   4.318  1.00  0.00    -0.210 OA
HETATM   26  O   UNL     1      43.857 -16.670   2.438  1.00  0.00    -0.210 OA
ENDBRANCH  21  23
ENDBRANCH   1  21
TORSDOF 4
ENDMDL
MODEL 10
REMARK VINA RESULT:      -7.0      3.580      6.070
REMARK  4 active torsions:
REMARK  status: ('A' for Active; 'I' for Inactive)
REMARK    1  A    between atoms: S_2  and  N_3 
REMARK    2  A    between atoms: N_3  and  N_4 
REMARK    3  A    between atoms: C_10  and  C_11 
REMARK    4  A    between atoms: C_13  and  O_14 
ROOT
HETATM    1  N   UNL     1      43.573 -14.617   5.698  1.00  0.00    -0.241 N 
HETATM    2  C   UNL     1      43.201 -15.637   4.826  1.00  0.00     0.272 C 
HETATM    3  O   UNL     1      42.536 -15.472   3.804  1.00  0.00    -0.266 OA
HETATM    4  C   UNL     1      43.598 -17.004   5.247  1.00  0.00     0.054 A 
HETATM    5  C   UNL     1      44.243 -17.165   6.484  1.00  0.00     0.026 A 
HETATM    6  N   UNL     1      44.532 -16.058   7.307  1.00  0.00    -0.265 NA
HETATM    7  C   UNL     1      44.750 -14.835   6.535  1.00  0.00     0.217 C 
HETATM    8  C   UNL     1      43.286 -18.110   4.447  1.00  0.00     0.019 A 
HETATM    9  C   UNL     1      43.573 -19.395   4.905  1.00  0.00     0.001 A 
HETATM   10  C   UNL     1      44.144 -19.570   6.165  1.00  0.00     0.002 A 
HETATM   11  C   UNL     1      44.465 -18.463   6.956  1.00  0.00     0.024 A 
HETATM   12  H   UNL     1      45.303 -16.246   7.943  1.00  0.00     0.130 HD
ENDROOT
BRANCH   7  13
HETATM   13  C   UNL     1      45.074 -13.688   7.477  1.00  0.00    -0.017 A 
HETATM   14  C   UNL     1      46.232 -12.917   7.258  1.00  0.00     0.047 A 
HETATM   15  C   UNL     1      46.519 -11.839   8.088  1.00  0.00     0.066 A 
HETATM   16  C   UNL     1      45.682 -11.513   9.147  1.00  0.00     0.036 A 
HETATM   17  C   UNL     1      44.528 -12.263   9.373  1.00  0.00     0.003 A 
HETATM   18  C   UNL     1      44.221 -13.339   8.538  1.00  0.00     0.011 A 
BRANCH  15  19
HETATM   19  O   UNL     1      47.621 -11.065   7.886  1.00  0.00    -0.361 OA
HETATM   20  H   UNL     1      47.804 -11.024   6.932  1.00  0.00     0.217 HD
ENDBRANCH  15  19
ENDBRANCH   7  13
BRANCH   1  21
HETATM   21  N   UNL     1      43.303 -13.207   5.267  1.00  0.00    -0.123 NA
HETATM   22  H   UNL     1      43.436 -13.039   4.261  1.00  0.00     0.165 HD
BRANCH  21  23
HETATM   23  S   UNL     1      41.784 -12.551   5.673  1.00  0.00     0.222 S 
HETATM   24  C   UNL     1      41.230 -11.875   4.121  1.00  0.00     0.181 C 
HETATM   25  O   UNL     1      41.979 -11.502   6.653  1.00  0.00    -0.210 OA
HETATM   26  O   UNL     1      40.961 -13.699   5.994  1.00  0.00    -0.210 OA
ENDBRANCH  21  23
ENDBRANCH   1  21
TORSDOF 4
ENDMDL
