MODEL 1
REMARK VINA RESULT:      -9.6      0.000      0.000
REMARK  5 active torsions:
REMARK  status: ('A' for Active; 'I' for Inactive)
REMARK    1  A    between atoms: C_2  and  C_3 
REMARK    2  A    between atoms: C_8  and  N_9 
REMARK       I    between atoms: N_9  and  C_10 
REMARK       I    between atoms: C_10  and  N_11 
REMARK    3  A    between atoms: N_11  and  C_12 
REMARK    4  A    between atoms: C_12  and  C_13 
REMARK    5  A    between atoms: C_13  and  C_14 
ROOT
HETATM    1  N   UNL     1      44.301 -13.567   8.697  1.00  0.00    -0.305 N 
HETATM    2  C   UNL     1      44.193 -14.210   7.488  1.00  0.00     0.320 C 
HETATM    3  N   UNL     1      43.550 -15.422   7.637  1.00  0.00    -0.343 N 
HETATM    4  O   UNL     1      44.564 -13.793   6.400  1.00  0.00    -0.247 OA
HETATM    5  H   UNL     1      43.646 -13.867   9.404  1.00  0.00     0.171 HD
HETATM    6  H   UNL     1      43.715 -15.894   8.515  1.00  0.00     0.164 HD
ENDROOT
BRANCH   3   7
HETATM    7  C   UNL     1      43.322 -16.265   6.475  1.00  0.00     0.129 C 
BRANCH   7   8
HETATM    8  C   UNL     1      44.404 -17.335   6.292  1.00  0.00     0.058 C 
BRANCH   8   9
HETATM    9  C   UNL     1      44.286 -18.259   5.099  1.00  0.00    -0.056 A 
HETATM   10  C   UNL     1      44.624 -19.619   5.140  1.00  0.00     0.019 A 
HETATM   11  C   UNL     1      44.471 -20.450   4.014  1.00  0.00    -0.025 A 
HETATM   12  C   UNL     1      43.949 -19.908   2.819  1.00  0.00    -0.026 A 
HETATM   13  C   UNL     1      44.821 -21.810   4.053  1.00  0.00     0.012 A 
HETATM   14  C   UNL     1      43.595 -18.554   2.781  1.00  0.00     0.013 A 
HETATM   15  C   UNL     1      43.790 -20.739   1.697  1.00  0.00     0.012 A 
HETATM   16  C   UNL     1      43.757 -17.743   3.907  1.00  0.00     0.008 A 
HETATM   17  C   UNL     1      44.143 -22.088   1.753  1.00  0.00     0.001 A 
HETATM   18  C   UNL     1      44.659 -22.623   2.930  1.00  0.00     0.001 A 
ENDBRANCH   8   9
ENDBRANCH   7   8
ENDBRANCH   3   7
BRANCH   1  19
HETATM   19  C   UNL     1      44.959 -12.368   8.929  1.00  0.00     0.095 A 
HETATM   20  C   UNL     1      44.458 -11.384   9.755  1.00  0.00     0.107 A 
HETATM   21  O   UNL     1      45.317 -10.335   9.786  1.00  0.00    -0.215 OA
HETATM   22  N   UNL     1      46.411 -10.610   8.998  1.00  0.00    -0.131 NA
HETATM   23  C   UNL     1      46.205 -11.834   8.488  1.00  0.00     0.087 A 
HETATM   24  C   UNL     1      47.263 -12.423   7.633  1.00  0.00     0.075 C 
BRANCH  20  25
HETATM   25  C   UNL     1      43.230 -11.233  10.573  1.00  0.00     0.065 C 
HETATM   26  C   UNL     1      43.158  -9.868  11.239  1.00  0.00     0.012 C 
ENDBRANCH  20  25
ENDBRANCH   1  19
TORSDOF 5
ENDMDL
MODEL 2
REMARK VINA RESULT:      -8.9      6.535      9.190
REMARK  5 active torsions:
REMARK  status: ('A' for Active; 'I' for Inactive)
REMARK    1  A    between atoms: C_2  and  C_3 
REMARK    2  A    between atoms: C_8  and  N_9 
REMARK       I    between atoms: N_9  and  C_10 
REMARK       I    between atoms: C_10  and  N_11 
REMARK    3  A    between atoms: N_11  and  C_12 
REMARK    4  A    between atoms: C_12  and  C_13 
REMARK    5  A    between atoms: C_13  and  C_14 
ROOT
HETATM    1  N   UNL     1      41.167 -14.894  -2.157  1.00  0.00    -0.305 N 
HETATM    2  C   UNL     1      41.223 -15.101  -0.800  1.00  0.00     0.320 C 
HETATM    3  N   UNL     1      41.691 -16.369  -0.520  1.00  0.00    -0.343 N 
HETATM    4  O   UNL     1      40.946 -14.295   0.076  1.00  0.00    -0.247 OA
HETATM    5  H   UNL     1      41.754 -15.502  -2.710  1.00  0.00     0.171 HD
HETATM    6  H   UNL     1      41.437 -17.081  -1.190  1.00  0.00     0.164 HD
ENDROOT
BRANCH   3   7
HETATM    7  C   UNL     1      41.838 -16.794   0.862  1.00  0.00     0.129 C 
BRANCH   7   8
HETATM    8  C   UNL     1      43.302 -16.934   1.292  1.00  0.00     0.058 C 
BRANCH   8   9
HETATM    9  C   UNL     1      43.646 -18.037   2.270  1.00  0.00    -0.056 A 
HETATM   10  C   UNL     1      43.808 -19.378   1.894  1.00  0.00     0.019 A 
HETATM   11  C   UNL     1      44.158 -20.369   2.832  1.00  0.00    -0.025 A 
HETATM   12  C   UNL     1      44.367 -20.003   4.180  1.00  0.00    -0.026 A 
HETATM   13  C   UNL     1      44.308 -21.714   2.456  1.00  0.00     0.012 A 
HETATM   14  C   UNL     1      44.223 -18.661   4.554  1.00  0.00     0.013 A 
HETATM   15  C   UNL     1      44.722 -20.990   5.114  1.00  0.00     0.012 A 
HETATM   16  C   UNL     1      43.872 -17.692   3.610  1.00  0.00     0.008 A 
HETATM   17  C   UNL     1      44.867 -22.322   4.725  1.00  0.00     0.001 A 
HETATM   18  C   UNL     1      44.659 -22.684   3.397  1.00  0.00     0.001 A 
ENDBRANCH   8   9
ENDBRANCH   7   8
ENDBRANCH   3   7
BRANCH   1  19
HETATM   19  C   UNL     1      40.671 -13.765  -2.791  1.00  0.00     0.095 A 
HETATM   20  C   UNL     1      39.329 -13.577  -3.049  1.00  0.00     0.107 A 
HETATM   21  O   UNL     1      39.148 -12.387  -3.676  1.00  0.00    -0.215 OA
HETATM   22  N   UNL     1      40.361 -11.755  -3.827  1.00  0.00    -0.131 NA
HETATM   23  C   UNL     1      41.278 -12.575  -3.289  1.00  0.00     0.087 A 
HETATM   24  C   UNL     1      42.689 -12.122  -3.258  1.00  0.00     0.075 C 
BRANCH  20  25
HETATM   25  C   UNL     1      38.099 -14.369  -2.807  1.00  0.00     0.065 C 
HETATM   26  C   UNL     1      37.940 -15.492  -3.819  1.00  0.00     0.012 C 
ENDBRANCH  20  25
ENDBRANCH   1  19
TORSDOF 5
ENDMDL
MODEL 3
REMARK VINA RESULT:      -8.9      3.237      4.792
REMARK  5 active torsions:
REMARK  status: ('A' for Active; 'I' for Inactive)
REMARK    1  A    between atoms: C_2  and  C_3 
REMARK    2  A    between atoms: C_8  and  N_9 
REMARK       I    between atoms: N_9  and  C_10 
REMARK       I    between atoms: C_10  and  N_11 
REMARK    3  A    between atoms: N_11  and  C_12 
REMARK    4  A    between atoms: C_12  and  C_13 
REMARK    5  A    between atoms: C_13  and  C_14 
ROOT
HETATM    1  N   UNL     1      41.006 -14.258   6.252  1.00  0.00    -0.305 N 
HETATM    2  C   UNL     1      42.337 -14.428   5.960  1.00  0.00     0.320 C 
HETATM    3  N   UNL     1      42.883 -15.427   6.742  1.00  0.00    -0.343 N 
HETATM    4  O   UNL     1      42.983 -13.832   5.111  1.00  0.00    -0.247 OA
HETATM    5  H   UNL     1      40.559 -15.047   6.697  1.00  0.00     0.171 HD
HETATM    6  H   UNL     1      42.493 -15.511   7.670  1.00  0.00     0.164 HD
ENDROOT
BRANCH   3   7
HETATM    7  C   UNL     1      44.285 -15.777   6.589  1.00  0.00     0.129 C 
BRANCH   7   8
HETATM    8  C   UNL     1      44.538 -17.286   6.685  1.00  0.00     0.058 C 
BRANCH   8   9
HETATM    9  C   UNL     1      44.332 -18.116   5.436  1.00  0.00    -0.056 A 
HETATM   10  C   UNL     1      44.670 -19.474   5.348  1.00  0.00     0.019 A 
HETATM   11  C   UNL     1      44.434 -20.217   4.175  1.00  0.00    -0.025 A 
HETATM   12  C   UNL     1      43.828 -19.586   3.067  1.00  0.00    -0.026 A 
HETATM   13  C   UNL     1      44.784 -21.574   4.085  1.00  0.00     0.012 A 
HETATM   14  C   UNL     1      43.474 -18.234   3.158  1.00  0.00     0.013 A 
HETATM   15  C   UNL     1      43.587 -20.329   1.899  1.00  0.00     0.012 A 
HETATM   16  C   UNL     1      43.719 -17.511   4.329  1.00  0.00     0.008 A 
HETATM   17  C   UNL     1      43.941 -21.677   1.825  1.00  0.00     0.001 A 
HETATM   18  C   UNL     1      44.539 -22.298   2.917  1.00  0.00     0.001 A 
ENDBRANCH   8   9
ENDBRANCH   7   8
ENDBRANCH   3   7
BRANCH   1  19
HETATM   19  C   UNL     1      40.169 -13.291   5.715  1.00  0.00     0.095 A 
HETATM   20  C   UNL     1      39.677 -13.354   4.428  1.00  0.00     0.107 A 
HETATM   21  O   UNL     1      38.892 -12.275   4.187  1.00  0.00    -0.215 OA
HETATM   22  N   UNL     1      38.831 -11.487   5.314  1.00  0.00    -0.131 NA
HETATM   23  C   UNL     1      39.589 -12.098   6.237  1.00  0.00     0.087 A 
HETATM   24  C   UNL     1      39.665 -11.496   7.590  1.00  0.00     0.075 C 
BRANCH  20  25
HETATM   25  C   UNL     1      39.827 -14.304   3.298  1.00  0.00     0.065 C 
HETATM   26  C   UNL     1      40.889 -13.847   2.311  1.00  0.00     0.012 C 
ENDBRANCH  20  25
ENDBRANCH   1  19
TORSDOF 5
ENDMDL
MODEL 4
REMARK VINA RESULT:      -8.8      6.515      9.068
REMARK  5 active torsions:
REMARK  status: ('A' for Active; 'I' for Inactive)
REMARK    1  A    between atoms: C_2  and  C_3 
REMARK    2  A    between atoms: C_8  and  N_9 
REMARK       I    between atoms: N_9  and  C_10 
REMARK       I    between atoms: C_10  and  N_11 
REMARK    3  A    between atoms: N_11  and  C_12 
REMARK    4  A    between atoms: C_12  and  C_13 
REMARK    5  A    between atoms: C_13  and  C_14 
ROOT
HETATM    1  N   UNL     1      40.879 -14.998  -2.065  1.00  0.00    -0.305 N 
HETATM    2  C   UNL     1      40.984 -15.196  -0.710  1.00  0.00     0.320 C 
HETATM    3  N   UNL     1      41.541 -16.431  -0.441  1.00  0.00    -0.343 N 
HETATM    4  O   UNL     1      40.679 -14.408   0.173  1.00  0.00    -0.247 OA
HETATM    5  H   UNL     1      41.489 -15.569  -2.632  1.00  0.00     0.171 HD
HETATM    6  H   UNL     1      41.316 -17.160  -1.103  1.00  0.00     0.164 HD
ENDROOT
BRANCH   3   7
HETATM    7  C   UNL     1      41.752 -16.842   0.937  1.00  0.00     0.129 C 
BRANCH   7   8
HETATM    8  C   UNL     1      43.233 -17.013   1.290  1.00  0.00     0.058 C 
BRANCH   8   9
HETATM    9  C   UNL     1      43.601 -18.099   2.278  1.00  0.00    -0.056 A 
HETATM   10  C   UNL     1      43.756 -19.446   1.920  1.00  0.00     0.019 A 
HETATM   11  C   UNL     1      44.128 -20.421   2.867  1.00  0.00    -0.025 A 
HETATM   12  C   UNL     1      44.367 -20.033   4.203  1.00  0.00    -0.026 A 
HETATM   13  C   UNL     1      44.272 -21.771   2.510  1.00  0.00     0.012 A 
HETATM   14  C   UNL     1      44.229 -18.685   4.558  1.00  0.00     0.013 A 
HETATM   15  C   UNL     1      44.744 -21.004   5.146  1.00  0.00     0.012 A 
HETATM   16  C   UNL     1      43.855 -17.732   3.607  1.00  0.00     0.008 A 
HETATM   17  C   UNL     1      44.882 -22.342   4.775  1.00  0.00     0.001 A 
HETATM   18  C   UNL     1      44.645 -22.726   3.458  1.00  0.00     0.001 A 
ENDBRANCH   8   9
ENDBRANCH   7   8
ENDBRANCH   3   7
BRANCH   1  19
HETATM   19  C   UNL     1      40.294 -13.905  -2.687  1.00  0.00     0.095 A 
HETATM   20  C   UNL     1      41.019 -12.822  -3.139  1.00  0.00     0.107 A 
HETATM   21  O   UNL     1      40.180 -11.915  -3.700  1.00  0.00    -0.215 OA
HETATM   22  N   UNL     1      38.888 -12.387  -3.648  1.00  0.00    -0.131 NA
HETATM   23  C   UNL     1      38.952 -13.586  -3.049  1.00  0.00     0.087 A 
HETATM   24  C   UNL     1      37.700 -14.365  -2.905  1.00  0.00     0.075 C 
BRANCH  20  25
HETATM   25  C   UNL     1      42.455 -12.450  -3.134  1.00  0.00     0.065 C 
HETATM   26  C   UNL     1      42.886 -11.880  -1.793  1.00  0.00     0.012 C 
ENDBRANCH  20  25
ENDBRANCH   1  19
TORSDOF 5
ENDMDL
MODEL 5
REMARK VINA RESULT:      -8.7      3.415      4.234
REMARK  5 active torsions:
REMARK  status: ('A' for Active; 'I' for Inactive)
REMARK    1  A    between atoms: C_2  and  C_3 
REMARK    2  A    between atoms: C_8  and  N_9 
REMARK       I    between atoms: N_9  and  C_10 
REMARK       I    between atoms: C_10  and  N_11 
REMARK    3  A    between atoms: N_11  and  C_12 
REMARK    4  A    between atoms: C_12  and  C_13 
REMARK    5  A    between atoms: C_13  and  C_14 
ROOT
HETATM    1  N   UNL     1      40.811 -13.846   6.280  1.00  0.00    -0.305 N 
HETATM    2  C   UNL     1      42.085 -14.095   5.829  1.00  0.00     0.320 C 
HETATM    3  N   UNL     1      42.676 -15.098   6.571  1.00  0.00    -0.343 N 
HETATM    4  O   UNL     1      42.645 -13.559   4.884  1.00  0.00    -0.247 OA
HETATM    5  H   UNL     1      40.387 -14.595   6.807  1.00  0.00     0.171 HD
HETATM    6  H   UNL     1      42.404 -15.133   7.543  1.00  0.00     0.164 HD
ENDROOT
BRANCH   3   7
HETATM    7  C   UNL     1      44.028 -15.526   6.254  1.00  0.00     0.129 C 
BRANCH   7   8
HETATM    8  C   UNL     1      44.247 -17.027   6.477  1.00  0.00     0.058 C 
BRANCH   8   9
HETATM    9  C   UNL     1      44.134 -17.941   5.276  1.00  0.00    -0.056 A 
HETATM   10  C   UNL     1      44.511 -19.291   5.297  1.00  0.00     0.019 A 
HETATM   11  C   UNL     1      44.362 -20.115   4.164  1.00  0.00    -0.025 A 
HETATM   12  C   UNL     1      43.805 -19.575   2.984  1.00  0.00    -0.026 A 
HETATM   13  C   UNL     1      44.752 -21.464   4.182  1.00  0.00     0.012 A 
HETATM   14  C   UNL     1      43.411 -18.231   2.967  1.00  0.00     0.013 A 
HETATM   15  C   UNL     1      43.650 -20.398   1.856  1.00  0.00     0.012 A 
HETATM   16  C   UNL     1      43.570 -17.427   4.100  1.00  0.00     0.008 A 
HETATM   17  C   UNL     1      44.043 -21.736   1.891  1.00  0.00     0.001 A 
HETATM   18  C   UNL     1      44.594 -22.269   3.053  1.00  0.00     0.001 A 
ENDBRANCH   8   9
ENDBRANCH   7   8
ENDBRANCH   3   7
BRANCH   1  19
HETATM   19  C   UNL     1      39.961 -12.852   5.818  1.00  0.00     0.095 A 
HETATM   20  C   UNL     1      39.489 -11.835   6.622  1.00  0.00     0.107 A 
HETATM   21  O   UNL     1      38.684 -11.018   5.897  1.00  0.00    -0.215 OA
HETATM   22  N   UNL     1      38.622 -11.466   4.597  1.00  0.00    -0.131 NA
HETATM   23  C   UNL     1      39.395 -12.561   4.543  1.00  0.00     0.087 A 
HETATM   24  C   UNL     1      39.566 -13.233   3.233  1.00  0.00     0.075 C 
BRANCH  20  25
HETATM   25  C   UNL     1      39.659 -11.467   8.049  1.00  0.00     0.065 C 
HETATM   26  C   UNL     1      39.334 -10.003   8.299  1.00  0.00     0.012 C 
ENDBRANCH  20  25
ENDBRANCH   1  19
TORSDOF 5
ENDMDL
MODEL 6
REMARK VINA RESULT:      -8.7      5.641      8.246
REMARK  5 active torsions:
REMARK  status: ('A' for Active; 'I' for Inactive)
REMARK    1  A    between atoms: C_2  and  C_3 
REMARK    2  A    between atoms: C_8  and  N_9 
REMARK       I    between atoms: N_9  and  C_10 
REMARK       I    between atoms: C_10  and  N_11 
REMARK    3  A    between atoms: N_11  and  C_12 
REMARK    4  A    between atoms: C_12  and  C_13 
REMARK    5  A    between atoms: C_13  and  C_14 
ROOT
HETATM    1  N   UNL     1      39.828 -15.068   0.602  1.00  0.00    -0.305 N 
HETATM    2  C   UNL     1      40.779 -14.799   1.555  1.00  0.00     0.320 C 
HETATM    3  N   UNL     1      40.976 -15.897   2.370  1.00  0.00    -0.343 N 
HETATM    4  O   UNL     1      41.417 -13.764   1.683  1.00  0.00    -0.247 OA
HETATM    5  H   UNL     1      39.672 -16.048   0.414  1.00  0.00     0.171 HD
HETATM    6  H   UNL     1      40.158 -16.466   2.533  1.00  0.00     0.164 HD
ENDROOT
BRANCH   3   7
HETATM    7  C   UNL     1      41.951 -15.830   3.445  1.00  0.00     0.129 C 
BRANCH   7   8
HETATM    8  C   UNL     1      43.355 -16.262   3.006  1.00  0.00     0.058 C 
BRANCH   8   9
HETATM    9  C   UNL     1      43.655 -17.745   2.967  1.00  0.00    -0.056 A 
HETATM   10  C   UNL     1      44.046 -18.483   4.094  1.00  0.00     0.019 A 
HETATM   11  C   UNL     1      44.288 -19.868   4.019  1.00  0.00    -0.025 A 
HETATM   12  C   UNL     1      44.117 -20.535   2.786  1.00  0.00    -0.026 A 
HETATM   13  C   UNL     1      44.690 -20.604   5.145  1.00  0.00     0.012 A 
HETATM   14  C   UNL     1      43.710 -19.803   1.664  1.00  0.00     0.013 A 
HETATM   15  C   UNL     1      44.352 -21.919   2.713  1.00  0.00     0.012 A 
HETATM   16  C   UNL     1      43.479 -18.428   1.755  1.00  0.00     0.008 A 
HETATM   17  C   UNL     1      44.752 -22.634   3.842  1.00  0.00     0.001 A 
HETATM   18  C   UNL     1      44.922 -21.978   5.057  1.00  0.00     0.001 A 
ENDBRANCH   8   9
ENDBRANCH   7   8
ENDBRANCH   3   7
BRANCH   1  19
HETATM   19  C   UNL     1      39.326 -14.170  -0.328  1.00  0.00     0.095 A 
HETATM   20  C   UNL     1      39.856 -14.025  -1.594  1.00  0.00     0.107 A 
HETATM   21  O   UNL     1      39.162 -13.077  -2.272  1.00  0.00    -0.215 OA
HETATM   22  N   UNL     1      38.148 -12.590  -1.478  1.00  0.00    -0.131 NA
HETATM   23  C   UNL     1      38.237 -13.250  -0.313  1.00  0.00     0.087 A 
HETATM   24  C   UNL     1      37.223 -12.968   0.730  1.00  0.00     0.075 C 
BRANCH  20  25
HETATM   25  C   UNL     1      40.979 -14.651  -2.333  1.00  0.00     0.065 C 
HETATM   26  C   UNL     1      40.537 -15.892  -3.091  1.00  0.00     0.012 C 
ENDBRANCH  20  25
ENDBRANCH   1  19
TORSDOF 5
ENDMDL
MODEL 7
REMARK VINA RESULT:      -8.6      5.922      8.049
REMARK  5 active torsions:
REMARK  status: ('A' for Active; 'I' for Inactive)
REMARK    1  A    between atoms: C_2  and  C_3 
REMARK    2  A    between atoms: C_8  and  N_9 
REMARK       I    between atoms: N_9  and  C_10 
REMARK       I    between atoms: C_10  and  N_11 
REMARK    3  A    between atoms: N_11  and  C_12 
REMARK    4  A    between atoms: C_12  and  C_13 
REMARK    5  A    between atoms: C_13  and  C_14 
ROOT
HETATM    1  N   UNL     1      40.231 -15.204  -0.146  1.00  0.00    -0.305 N 
HETATM    2  C   UNL     1      41.010 -14.887   0.940  1.00  0.00     0.320 C 
HETATM    3  N   UNL     1      41.279 -16.013   1.692  1.00  0.00    -0.343 N 
HETATM    4  O   UNL     1      41.459 -13.786   1.223  1.00  0.00    -0.247 OA
HETATM    5  H   UNL     1      40.254 -16.175  -0.423  1.00  0.00     0.171 HD
HETATM    6  H   UNL     1      40.546 -16.708   1.706  1.00  0.00     0.164 HD
ENDROOT
BRANCH   3   7
HETATM    7  C   UNL     1      42.098 -15.904   2.887  1.00  0.00     0.129 C 
BRANCH   7   8
HETATM    8  C   UNL     1      43.534 -16.394   2.674  1.00  0.00     0.058 C 
BRANCH   8   9
HETATM    9  C   UNL     1      43.789 -17.884   2.759  1.00  0.00    -0.056 A 
HETATM   10  C   UNL     1      44.120 -18.543   3.951  1.00  0.00     0.019 A 
HETATM   11  C   UNL     1      44.320 -19.937   3.991  1.00  0.00    -0.025 A 
HETATM   12  C   UNL     1      44.168 -20.692   2.808  1.00  0.00    -0.026 A 
HETATM   13  C   UNL     1      44.663 -20.594   5.184  1.00  0.00     0.012 A 
HETATM   14  C   UNL     1      43.821 -20.038   1.619  1.00  0.00     0.013 A 
HETATM   15  C   UNL     1      44.362 -22.083   2.849  1.00  0.00     0.012 A 
HETATM   16  C   UNL     1      43.630 -18.654   1.597  1.00  0.00     0.008 A 
HETATM   17  C   UNL     1      44.703 -22.720   4.043  1.00  0.00     0.001 A 
HETATM   18  C   UNL     1      44.854 -21.976   5.209  1.00  0.00     0.001 A 
ENDBRANCH   8   9
ENDBRANCH   7   8
ENDBRANCH   3   7
BRANCH   1  19
HETATM   19  C   UNL     1      39.709 -14.308  -1.066  1.00  0.00     0.095 A 
HETATM   20  C   UNL     1      38.542 -13.604  -0.850  1.00  0.00     0.107 A 
HETATM   21  O   UNL     1      38.285 -12.809  -1.919  1.00  0.00    -0.215 OA
HETATM   22  N   UNL     1      39.283 -12.956  -2.855  1.00  0.00    -0.131 NA
HETATM   23  C   UNL     1      40.146 -13.848  -2.343  1.00  0.00     0.087 A 
HETATM   24  C   UNL     1      41.369 -14.164  -3.119  1.00  0.00     0.075 C 
BRANCH  20  25
HETATM   25  C   UNL     1      37.549 -13.542   0.250  1.00  0.00     0.065 C 
HETATM   26  C   UNL     1      38.005 -12.624   1.373  1.00  0.00     0.012 C 
ENDBRANCH  20  25
ENDBRANCH   1  19
TORSDOF 5
ENDMDL
MODEL 8
REMARK VINA RESULT:      -8.6      4.045      5.437
REMARK  5 active torsions:
REMARK  status: ('A' for Active; 'I' for Inactive)
REMARK    1  A    between atoms: C_2  and  C_3 
REMARK    2  A    between atoms: C_8  and  N_9 
REMARK       I    between atoms: N_9  and  C_10 
REMARK       I    between atoms: C_10  and  N_11 
REMARK    3  A    between atoms: N_11  and  C_12 
REMARK    4  A    between atoms: C_12  and  C_13 
REMARK    5  A    between atoms: C_13  and  C_14 
ROOT
HETATM    1  N   UNL     1      41.194 -13.916   2.803  1.00  0.00    -0.305 N 
HETATM    2  C   UNL     1      41.197 -15.258   2.509  1.00  0.00     0.320 C 
HETATM    3  N   UNL     1      41.754 -15.482   1.265  1.00  0.00    -0.343 N 
HETATM    4  O   UNL     1      40.810 -16.167   3.228  1.00  0.00    -0.247 OA
HETATM    5  H   UNL     1      41.856 -13.360   2.282  1.00  0.00     0.171 HD
HETATM    6  H   UNL     1      41.594 -14.755   0.583  1.00  0.00     0.164 HD
ENDROOT
BRANCH   3   7
HETATM    7  C   UNL     1      41.865 -16.840   0.760  1.00  0.00     0.129 C 
BRANCH   7   8
HETATM    8  C   UNL     1      43.295 -17.387   0.825  1.00  0.00     0.058 C 
BRANCH   8   9
HETATM    9  C   UNL     1      43.634 -18.335   1.956  1.00  0.00    -0.056 A 
HETATM   10  C   UNL     1      43.820 -19.713   1.777  1.00  0.00     0.019 A 
HETATM   11  C   UNL     1      44.165 -20.555   2.852  1.00  0.00    -0.025 A 
HETATM   12  C   UNL     1      44.344 -19.999   4.138  1.00  0.00    -0.026 A 
HETATM   13  C   UNL     1      44.339 -21.937   2.674  1.00  0.00     0.012 A 
HETATM   14  C   UNL     1      44.175 -18.620   4.315  1.00  0.00     0.013 A 
HETATM   15  C   UNL     1      44.693 -20.838   5.209  1.00  0.00     0.012 A 
HETATM   16  C   UNL     1      43.829 -17.800   3.237  1.00  0.00     0.008 A 
HETATM   17  C   UNL     1      44.862 -22.209   5.015  1.00  0.00     0.001 A 
HETATM   18  C   UNL     1      44.685 -22.759   3.749  1.00  0.00     0.001 A 
ENDBRANCH   8   9
ENDBRANCH   7   8
ENDBRANCH   3   7
BRANCH   1  19
HETATM   19  C   UNL     1      40.639 -13.328   3.930  1.00  0.00     0.095 A 
HETATM   20  C   UNL     1      41.143 -13.516   5.200  1.00  0.00     0.107 A 
HETATM   21  O   UNL     1      40.397 -12.820   6.094  1.00  0.00    -0.215 OA
HETATM   22  N   UNL     1      39.398 -12.143   5.433  1.00  0.00    -0.131 NA
HETATM   23  C   UNL     1      39.544 -12.438   4.132  1.00  0.00     0.087 A 
HETATM   24  C   UNL     1      38.628 -11.794   3.161  1.00  0.00     0.075 C 
BRANCH  20  25
HETATM   25  C   UNL     1      42.272 -14.292   5.771  1.00  0.00     0.065 C 
HETATM   26  C   UNL     1      43.603 -13.885   5.161  1.00  0.00     0.012 C 
ENDBRANCH  20  25
ENDBRANCH   1  19
TORSDOF 5
ENDMDL
MODEL 9
REMARK VINA RESULT:      -8.5      4.087      6.862
REMARK  5 active torsions:
REMARK  status: ('A' for Active; 'I' for Inactive)
REMARK    1  A    between atoms: C_2  and  C_3 
REMARK    2  A    between atoms: C_8  and  N_9 
REMARK       I    between atoms: N_9  and  C_10 
REMARK       I    between atoms: C_10  and  N_11 
REMARK    3  A    between atoms: N_11  and  C_12 
REMARK    4  A    between atoms: C_12  and  C_13 
REMARK    5  A    between atoms: C_13  and  C_14 
ROOT
HETATM    1  N   UNL     1      42.469 -14.836   2.713  1.00  0.00    -0.305 N 
HETATM    2  C   UNL     1      42.111 -15.411   3.908  1.00  0.00     0.320 C 
HETATM    3  N   UNL     1      42.922 -14.956   4.929  1.00  0.00    -0.343 N 
HETATM    4  O   UNL     1      41.189 -16.189   4.100  1.00  0.00    -0.247 OA
HETATM    5  H   UNL     1      42.990 -13.974   2.789  1.00  0.00     0.171 HD
HETATM    6  H   UNL     1      43.875 -14.750   4.664  1.00  0.00     0.164 HD
ENDROOT
BRANCH   3   7
HETATM    7  C   UNL     1      42.710 -15.434   6.285  1.00  0.00     0.129 C 
BRANCH   7   8
HETATM    8  C   UNL     1      43.906 -16.217   6.837  1.00  0.00     0.058 C 
BRANCH   8   9
HETATM    9  C   UNL     1      43.990 -17.693   6.515  1.00  0.00    -0.056 A 
HETATM   10  C   UNL     1      44.292 -18.188   5.238  1.00  0.00     0.019 A 
HETATM   11  C   UNL     1      44.389 -19.570   4.988  1.00  0.00    -0.025 A 
HETATM   12  C   UNL     1      44.195 -20.481   6.049  1.00  0.00    -0.026 A 
HETATM   13  C   UNL     1      44.680 -20.065   3.706  1.00  0.00     0.012 A 
HETATM   14  C   UNL     1      43.910 -19.989   7.329  1.00  0.00     0.013 A 
HETATM   15  C   UNL     1      44.299 -21.860   5.801  1.00  0.00     0.012 A 
HETATM   16  C   UNL     1      43.814 -18.613   7.558  1.00  0.00     0.008 A 
HETATM   17  C   UNL     1      44.588 -22.335   4.521  1.00  0.00     0.001 A 
HETATM   18  C   UNL     1      44.778 -21.438   3.474  1.00  0.00     0.001 A 
ENDBRANCH   8   9
ENDBRANCH   7   8
ENDBRANCH   3   7
BRANCH   1  19
HETATM   19  C   UNL     1      41.921 -15.123   1.472  1.00  0.00     0.095 A 
HETATM   20  C   UNL     1      42.085 -16.340   0.842  1.00  0.00     0.107 A 
HETATM   21  O   UNL     1      41.438 -16.326  -0.350  1.00  0.00    -0.215 OA
HETATM   22  N   UNL     1      40.818 -15.110  -0.525  1.00  0.00    -0.131 NA
HETATM   23  C   UNL     1      41.098 -14.387   0.570  1.00  0.00     0.087 A 
HETATM   24  C   UNL     1      40.505 -13.034   0.687  1.00  0.00     0.075 C 
BRANCH  20  25
HETATM   25  C   UNL     1      42.795 -17.600   1.173  1.00  0.00     0.065 C 
HETATM   26  C   UNL     1      44.289 -17.379   1.346  1.00  0.00     0.012 C 
ENDBRANCH  20  25
ENDBRANCH   1  19
TORSDOF 5
ENDMDL
MODEL 10
REMARK VINA RESULT:      -8.5      3.904      4.889
REMARK  5 active torsions:
REMARK  status: ('A' for Active; 'I' for Inactive)
REMARK    1  A    between atoms: C_2  and  C_3 
REMARK    2  A    between atoms: C_8  and  N_9 
REMARK       I    between atoms: N_9  and  C_10 
REMARK       I    between atoms: C_10  and  N_11 
REMARK    3  A    between atoms: N_11  and  C_12 
REMARK    4  A    between atoms: C_12  and  C_13 
REMARK    5  A    between atoms: C_13  and  C_14 
ROOT
HETATM    1  N   UNL     1      42.291 -14.360   6.130  1.00  0.00    -0.305 N 
HETATM    2  C   UNL     1      42.157 -15.721   6.255  1.00  0.00     0.320 C 
HETATM    3  N   UNL     1      42.871 -16.183   7.342  1.00  0.00    -0.343 N 
HETATM    4  O   UNL     1      41.481 -16.459   5.552  1.00  0.00    -0.247 OA
HETATM    5  H   UNL     1      42.571 -13.876   6.971  1.00  0.00     0.171 HD
HETATM    6  H   UNL     1      43.722 -15.679   7.546  1.00  0.00     0.164 HD
ENDROOT
BRANCH   3   7
HETATM    7  C   UNL     1      42.859 -17.600   7.663  1.00  0.00     0.129 C 
BRANCH   7   8
HETATM    8  C   UNL     1      44.188 -18.296   7.348  1.00  0.00     0.058 C 
BRANCH   8   9
HETATM    9  C   UNL     1      44.206 -19.297   6.213  1.00  0.00    -0.056 A 
HETATM   10  C   UNL     1      44.052 -18.939   4.866  1.00  0.00     0.019 A 
HETATM   11  C   UNL     1      44.105 -19.900   3.837  1.00  0.00    -0.025 A 
HETATM   12  C   UNL     1      44.335 -21.253   4.166  1.00  0.00    -0.026 A 
HETATM   13  C   UNL     1      43.938 -19.541   2.490  1.00  0.00     0.012 A 
HETATM   14  C   UNL     1      44.507 -21.611   5.510  1.00  0.00     0.013 A 
HETATM   15  C   UNL     1      44.394 -22.211   3.140  1.00  0.00     0.012 A 
HETATM   16  C   UNL     1      44.447 -20.644   6.517  1.00  0.00     0.008 A 
HETATM   17  C   UNL     1      44.226 -21.838   1.806  1.00  0.00     0.001 A 
HETATM   18  C   UNL     1      43.998 -20.504   1.481  1.00  0.00     0.001 A 
ENDBRANCH   8   9
ENDBRANCH   7   8
ENDBRANCH   3   7
BRANCH   1  19
HETATM   19  C   UNL     1      41.776 -13.579   5.106  1.00  0.00     0.095 A 
HETATM   20  C   UNL     1      42.387 -13.455   3.876  1.00  0.00     0.107 A 
HETATM   21  O   UNL     1      41.656 -12.631   3.085  1.00  0.00    -0.215 OA
HETATM   22  N   UNL     1      40.537 -12.209   3.767  1.00  0.00    -0.131 NA
HETATM   23  C   UNL     1      40.600 -12.783   4.978  1.00  0.00     0.087 A 
HETATM   24  C   UNL     1      39.481 -12.550   5.922  1.00  0.00     0.075 C 
BRANCH  20  25
HETATM   25  C   UNL     1      43.625 -13.999   3.265  1.00  0.00     0.065 C 
HETATM   26  C   UNL     1      43.427 -15.417   2.754  1.00  0.00     0.012 C 
ENDBRANCH  20  25
ENDBRANCH   1  19
TORSDOF 5
ENDMDL
