MODEL 1
REMARK VINA RESULT:      -8.8      0.000      0.000
REMARK  6 active torsions:
REMARK  status: ('A' for Active; 'I' for Inactive)
REMARK    1  A    between atoms: C_5  and  C_6 
REMARK    2  A    between atoms: C_12  and  C_13 
REMARK       I    between atoms: C_13  and  N_14 
REMARK    3  A    between atoms: N_14  and  C_15 
REMARK    4  A    between atoms: C_18  and  C_19 
REMARK    5  A    between atoms: C_19  and  O_20 
REMARK    6  A    between atoms: C_25  and  C_26 
ROOT
HETATM    1  C   UNL     1      42.128 -10.490   7.790  1.00  0.00     0.097 C 
HETATM    2  N   UNL     1      42.198 -11.923   7.437  1.00  0.00    -0.268 NA
HETATM    3  C   UNL     1      42.006 -12.223   6.116  1.00  0.00     0.118 C 
HETATM    4  N   UNL     1      41.357 -11.333   5.287  1.00  0.00    -0.245 N 
HETATM    5  N   UNL     1      41.376 -11.687   3.996  1.00  0.00    -0.182 NA
HETATM    6  C   UNL     1      41.917 -12.906   4.023  1.00  0.00     0.159 C 
HETATM    7  C   UNL     1      42.317 -13.313   5.323  1.00  0.00     0.091 C 
HETATM    8  C   UNL     1      40.762 -10.078   5.711  1.00  0.00     0.221 C 
HETATM    9  C   UNL     1      40.808  -9.935   7.246  1.00  0.00     0.061 C 
HETATM   10  H   UNL     1      41.689 -12.494   8.119  1.00  0.00     0.130 HD
ENDROOT
BRANCH   7  11
HETATM   11  C   UNL     1      42.928 -14.594   5.641  1.00  0.00     0.261 C 
HETATM   12  N   UNL     1      42.410 -15.665   4.941  1.00  0.00    -0.323 N 
HETATM   13  H   UNL     1      41.581 -15.465   4.392  1.00  0.00     0.169 HD
HETATM   14  O   UNL     1      43.846 -14.646   6.452  1.00  0.00    -0.267 OA
BRANCH  12  15
HETATM   15  C   UNL     1      42.952 -16.963   4.847  1.00  0.00     0.035 A 
HETATM   16  C   UNL     1      43.037 -17.851   5.920  1.00  0.00     0.030 A 
HETATM   17  C   UNL     1      43.663 -19.096   5.779  1.00  0.00     0.012 A 
HETATM   18  C   UNL     1      44.227 -19.484   4.559  1.00  0.00    -0.030 A 
HETATM   19  C   UNL     1      44.108 -18.602   3.473  1.00  0.00     0.012 A 
HETATM   20  C   UNL     1      43.476 -17.359   3.613  1.00  0.00     0.030 A 
BRANCH  18  21
HETATM   21  C   UNL     1      44.949 -20.801   4.357  1.00  0.00     0.147 C 
HETATM   22  C   UNL     1      44.677 -21.890   5.391  1.00  0.00     0.044 C 
BRANCH  21  23
HETATM   23  O   UNL     1      44.615 -21.332   3.074  1.00  0.00    -0.391 OA
HETATM   24  H   UNL     1      43.952 -22.029   3.213  1.00  0.00     0.210 HD
ENDBRANCH  21  23
ENDBRANCH  18  21
ENDBRANCH  12  15
ENDBRANCH   7  11
BRANCH   1  25
HETATM   25  C   UNL     1      42.376 -10.305   9.274  1.00  0.00    -0.040 A 
HETATM   26  C   UNL     1      43.557 -10.832   9.827  1.00  0.00     0.009 A 
HETATM   27  C   UNL     1      43.892 -10.611  11.165  1.00  0.00     0.007 A 
HETATM   28  C   UNL     1      43.046  -9.867  11.992  1.00  0.00    -0.062 A 
HETATM   29  C   UNL     1      43.442  -9.559  13.405  1.00  0.00     0.048 C 
HETATM   30  C   UNL     1      41.862  -9.353  11.457  1.00  0.00     0.007 A 
HETATM   31  C   UNL     1      41.525  -9.576  10.117  1.00  0.00     0.009 A 
ENDBRANCH   1  25
BRANCH   8  32
HETATM   32  C   UNL     1      39.327  -9.964   5.242  1.00  0.00     0.409 C 
HETATM   33  F   UNL     1      38.708 -11.167   5.201  1.00  0.00    -0.169 F 
HETATM   34  F   UNL     1      38.622  -9.201   6.122  1.00  0.00    -0.169 F 
HETATM   35  F   UNL     1      39.190  -9.373   4.040  1.00  0.00    -0.169 F 
ENDBRANCH   8  32
TORSDOF 6
ENDMDL
MODEL 2
REMARK VINA RESULT:      -8.8      3.408      9.303
REMARK  6 active torsions:
REMARK  status: ('A' for Active; 'I' for Inactive)
REMARK    1  A    between atoms: C_5  and  C_6 
REMARK    2  A    between atoms: C_12  and  C_13 
REMARK       I    between atoms: C_13  and  N_14 
REMARK    3  A    between atoms: N_14  and  C_15 
REMARK    4  A    between atoms: C_18  and  C_19 
REMARK    5  A    between atoms: C_19  and  O_20 
REMARK    6  A    between atoms: C_25  and  C_26 
ROOT
HETATM    1  C   UNL     1      41.733 -17.184   2.611  1.00  0.00     0.097 C 
HETATM    2  N   UNL     1      41.954 -15.977   3.433  1.00  0.00    -0.268 NA
HETATM    3  C   UNL     1      41.119 -14.923   3.183  1.00  0.00     0.118 C 
HETATM    4  N   UNL     1      40.452 -14.833   1.979  1.00  0.00    -0.245 N 
HETATM    5  N   UNL     1      39.557 -13.839   1.931  1.00  0.00    -0.182 NA
HETATM    6  C   UNL     1      39.766 -13.186   3.076  1.00  0.00     0.159 C 
HETATM    7  C   UNL     1      40.746 -13.800   3.899  1.00  0.00     0.091 C 
HETATM    8  C   UNL     1      40.611 -15.752   0.865  1.00  0.00     0.221 C 
HETATM    9  C   UNL     1      41.745 -16.761   1.139  1.00  0.00     0.061 C 
HETATM   10  H   UNL     1      42.953 -15.766   3.513  1.00  0.00     0.130 HD
ENDROOT
BRANCH   7  11
HETATM   11  C   UNL     1      41.174 -13.298   5.196  1.00  0.00     0.261 C 
HETATM   12  N   UNL     1      40.582 -12.110   5.573  1.00  0.00    -0.323 N 
HETATM   13  H   UNL     1      40.027 -11.655   4.858  1.00  0.00     0.169 HD
HETATM   14  O   UNL     1      41.976 -13.942   5.864  1.00  0.00    -0.267 OA
BRANCH  12  15
HETATM   15  C   UNL     1      40.602 -11.517   6.853  1.00  0.00     0.035 A 
HETATM   16  C   UNL     1      41.687 -10.806   7.365  1.00  0.00     0.030 A 
HETATM   17  C   UNL     1      41.674 -10.313   8.676  1.00  0.00     0.012 A 
HETATM   18  C   UNL     1      40.575 -10.526   9.514  1.00  0.00    -0.030 A 
HETATM   19  C   UNL     1      39.471 -11.212   8.983  1.00  0.00     0.012 A 
HETATM   20  C   UNL     1      39.481 -11.699   7.669  1.00  0.00     0.030 A 
BRANCH  18  21
HETATM   21  C   UNL     1      40.519 -10.050  10.952  1.00  0.00     0.147 C 
HETATM   22  C   UNL     1      40.422  -8.542  11.164  1.00  0.00     0.044 C 
BRANCH  21  23
HETATM   23  O   UNL     1      39.401 -10.651  11.606  1.00  0.00    -0.391 OA
HETATM   24  H   UNL     1      39.647 -11.568  11.816  1.00  0.00     0.210 HD
ENDBRANCH  21  23
ENDBRANCH  18  21
ENDBRANCH  12  15
ENDBRANCH   7  11
BRANCH   1  25
HETATM   25  C   UNL     1      42.712 -18.273   3.007  1.00  0.00    -0.040 A 
HETATM   26  C   UNL     1      43.148 -18.328   4.343  1.00  0.00     0.009 A 
HETATM   27  C   UNL     1      43.971 -19.363   4.793  1.00  0.00     0.007 A 
HETATM   28  C   UNL     1      44.393 -20.364   3.915  1.00  0.00    -0.062 A 
HETATM   29  C   UNL     1      45.209 -21.519   4.415  1.00  0.00     0.048 C 
HETATM   30  C   UNL     1      43.980 -20.309   2.581  1.00  0.00     0.007 A 
HETATM   31  C   UNL     1      43.157 -19.272   2.130  1.00  0.00     0.009 A 
ENDBRANCH   1  25
BRANCH   8  32
HETATM   32  C   UNL     1      40.902 -15.010  -0.422  1.00  0.00     0.409 C 
HETATM   33  F   UNL     1      41.883 -14.091  -0.268  1.00  0.00    -0.169 F 
HETATM   34  F   UNL     1      41.346 -15.891  -1.361  1.00  0.00    -0.169 F 
HETATM   35  F   UNL     1      39.827 -14.401  -0.957  1.00  0.00    -0.169 F 
ENDBRANCH   8  32
TORSDOF 6
ENDMDL
MODEL 3
REMARK VINA RESULT:      -8.7      3.845      8.514
REMARK  6 active torsions:
REMARK  status: ('A' for Active; 'I' for Inactive)
REMARK    1  A    between atoms: C_5  and  C_6 
REMARK    2  A    between atoms: C_12  and  C_13 
REMARK       I    between atoms: C_13  and  N_14 
REMARK    3  A    between atoms: N_14  and  C_15 
REMARK    4  A    between atoms: C_18  and  C_19 
REMARK    5  A    between atoms: C_19  and  O_20 
REMARK    6  A    between atoms: C_25  and  C_26 
ROOT
HETATM    1  C   UNL     1      41.827 -16.826   2.203  1.00  0.00     0.097 C 
HETATM    2  N   UNL     1      42.160 -15.530   2.830  1.00  0.00    -0.268 NA
HETATM    3  C   UNL     1      41.380 -14.469   2.459  1.00  0.00     0.118 C 
HETATM    4  N   UNL     1      40.665 -14.510   1.281  1.00  0.00    -0.245 N 
HETATM    5  N   UNL     1      39.831 -13.474   1.121  1.00  0.00    -0.182 NA
HETATM    6  C   UNL     1      40.134 -12.678   2.148  1.00  0.00     0.159 C 
HETATM    7  C   UNL     1      41.112 -13.232   3.016  1.00  0.00     0.091 C 
HETATM    8  C   UNL     1      40.714 -15.589   0.310  1.00  0.00     0.221 C 
HETATM    9  C   UNL     1      41.796 -16.622   0.686  1.00  0.00     0.061 C 
HETATM   10  H   UNL     1      43.173 -15.377   2.840  1.00  0.00     0.130 HD
ENDROOT
BRANCH   7  11
HETATM   11  C   UNL     1      41.630 -12.578   4.208  1.00  0.00     0.261 C 
HETATM   12  N   UNL     1      42.057 -13.443   5.195  1.00  0.00    -0.323 N 
HETATM   13  H   UNL     1      41.839 -14.420   5.040  1.00  0.00     0.169 HD
HETATM   14  O   UNL     1      41.685 -11.354   4.255  1.00  0.00    -0.267 OA
BRANCH  12  15
HETATM   15  C   UNL     1      42.823 -13.122   6.334  1.00  0.00     0.035 A 
HETATM   16  C   UNL     1      42.532 -12.063   7.195  1.00  0.00     0.030 A 
HETATM   17  C   UNL     1      43.381 -11.746   8.264  1.00  0.00     0.012 A 
HETATM   18  C   UNL     1      44.550 -12.478   8.495  1.00  0.00    -0.030 A 
HETATM   19  C   UNL     1      44.821 -13.564   7.647  1.00  0.00     0.012 A 
HETATM   20  C   UNL     1      43.968 -13.885   6.583  1.00  0.00     0.030 A 
BRANCH  18  21
HETATM   21  C   UNL     1      45.526 -12.159   9.610  1.00  0.00     0.147 C 
HETATM   22  C   UNL     1      45.641 -10.691  10.012  1.00  0.00     0.044 C 
BRANCH  21  23
HETATM   23  O   UNL     1      45.168 -12.899  10.778  1.00  0.00    -0.391 OA
HETATM   24  H   UNL     1      44.742 -13.721  10.481  1.00  0.00     0.210 HD
ENDBRANCH  21  23
ENDBRANCH  18  21
ENDBRANCH  12  15
ENDBRANCH   7  11
BRANCH   1  25
HETATM   25  C   UNL     1      42.755 -17.909   2.719  1.00  0.00    -0.040 A 
HETATM   26  C   UNL     1      43.135 -17.878   4.073  1.00  0.00     0.009 A 
HETATM   27  C   UNL     1      43.907 -18.899   4.631  1.00  0.00     0.007 A 
HETATM   28  C   UNL     1      44.332 -19.974   3.847  1.00  0.00    -0.062 A 
HETATM   29  C   UNL     1      45.091 -21.112   4.463  1.00  0.00     0.048 C 
HETATM   30  C   UNL     1      43.974 -20.006   2.496  1.00  0.00     0.007 A 
HETATM   31  C   UNL     1      43.203 -18.982   1.936  1.00  0.00     0.009 A 
ENDBRANCH   1  25
BRANCH   8  32
HETATM   32  C   UNL     1      40.990 -15.062  -1.083  1.00  0.00     0.409 C 
HETATM   33  F   UNL     1      39.920 -14.416  -1.603  1.00  0.00    -0.169 F 
HETATM   34  F   UNL     1      41.999 -14.150  -1.031  1.00  0.00    -0.169 F 
HETATM   35  F   UNL     1      41.383 -16.007  -1.957  1.00  0.00    -0.169 F 
ENDBRANCH   8  32
TORSDOF 6
ENDMDL
MODEL 4
REMARK VINA RESULT:      -8.6      4.886      9.274
REMARK  6 active torsions:
REMARK  status: ('A' for Active; 'I' for Inactive)
REMARK    1  A    between atoms: C_5  and  C_6 
REMARK    2  A    between atoms: C_12  and  C_13 
REMARK       I    between atoms: C_13  and  N_14 
REMARK    3  A    between atoms: N_14  and  C_15 
REMARK    4  A    between atoms: C_18  and  C_19 
REMARK    5  A    between atoms: C_19  and  O_20 
REMARK    6  A    between atoms: C_25  and  C_26 
ROOT
HETATM    1  C   UNL     1      44.196 -17.888   4.651  1.00  0.00     0.097 C 
HETATM    2  N   UNL     1      43.292 -16.813   4.193  1.00  0.00    -0.268 NA
HETATM    3  C   UNL     1      43.310 -15.662   4.933  1.00  0.00     0.118 C 
HETATM    4  N   UNL     1      43.774 -15.677   6.232  1.00  0.00    -0.245 N 
HETATM    5  N   UNL     1      43.877 -14.461   6.781  1.00  0.00    -0.182 NA
HETATM    6  C   UNL     1      43.323 -13.665   5.864  1.00  0.00     0.159 C 
HETATM    7  C   UNL     1      42.927 -14.356   4.689  1.00  0.00     0.091 C 
HETATM    8  C   UNL     1      44.199 -16.863   6.954  1.00  0.00     0.221 C 
HETATM    9  C   UNL     1      43.916 -18.140   6.136  1.00  0.00     0.061 C 
HETATM   10  H   UNL     1      42.372 -17.188   3.946  1.00  0.00     0.130 HD
ENDROOT
BRANCH   7  11
HETATM   11  C   UNL     1      42.293 -13.737   3.535  1.00  0.00     0.261 C 
HETATM   12  N   UNL     1      41.823 -14.630   2.593  1.00  0.00    -0.323 N 
HETATM   13  H   UNL     1      42.089 -15.597   2.740  1.00  0.00     0.169 HD
HETATM   14  O   UNL     1      42.188 -12.516   3.480  1.00  0.00    -0.267 OA
BRANCH  12  15
HETATM   15  C   UNL     1      40.959 -14.352   1.514  1.00  0.00     0.035 A 
HETATM   16  C   UNL     1      39.599 -14.074   1.657  1.00  0.00     0.030 A 
HETATM   17  C   UNL     1      38.778 -13.888   0.538  1.00  0.00     0.012 A 
HETATM   18  C   UNL     1      39.296 -13.983  -0.758  1.00  0.00    -0.030 A 
HETATM   19  C   UNL     1      40.671 -14.229  -0.896  1.00  0.00     0.012 A 
HETATM   20  C   UNL     1      41.494 -14.407   0.224  1.00  0.00     0.030 A 
BRANCH  18  21
HETATM   21  C   UNL     1      38.450 -13.830  -2.006  1.00  0.00     0.147 C 
HETATM   22  C   UNL     1      39.185 -13.408  -3.276  1.00  0.00     0.044 C 
BRANCH  21  23
HETATM   23  O   UNL     1      37.786 -15.063  -2.283  1.00  0.00    -0.391 OA
HETATM   24  H   UNL     1      38.201 -15.747  -1.729  1.00  0.00     0.210 HD
ENDBRANCH  21  23
ENDBRANCH  18  21
ENDBRANCH  12  15
ENDBRANCH   7  11
BRANCH   1  25
HETATM   25  C   UNL     1      44.086 -19.089   3.732  1.00  0.00    -0.040 A 
HETATM   26  C   UNL     1      43.378 -18.947   2.525  1.00  0.00     0.009 A 
HETATM   27  C   UNL     1      43.324 -19.985   1.592  1.00  0.00     0.007 A 
HETATM   28  C   UNL     1      43.965 -21.199   1.846  1.00  0.00    -0.062 A 
HETATM   29  C   UNL     1      43.978 -22.284   0.810  1.00  0.00     0.048 C 
HETATM   30  C   UNL     1      44.658 -21.357   3.049  1.00  0.00     0.007 A 
HETATM   31  C   UNL     1      44.711 -20.319   3.985  1.00  0.00     0.009 A 
ENDBRANCH   1  25
BRANCH   8  32
HETATM   32  C   UNL     1      43.505 -16.967   8.296  1.00  0.00     0.409 C 
HETATM   33  F   UNL     1      43.636 -15.834   9.026  1.00  0.00    -0.169 F 
HETATM   34  F   UNL     1      42.169 -17.146   8.102  1.00  0.00    -0.169 F 
HETATM   35  F   UNL     1      43.918 -18.007   9.046  1.00  0.00    -0.169 F 
ENDBRANCH   8  32
TORSDOF 6
ENDMDL
MODEL 5
REMARK VINA RESULT:      -8.6      5.390      9.823
REMARK  6 active torsions:
REMARK  status: ('A' for Active; 'I' for Inactive)
REMARK    1  A    between atoms: C_5  and  C_6 
REMARK    2  A    between atoms: C_12  and  C_13 
REMARK       I    between atoms: C_13  and  N_14 
REMARK    3  A    between atoms: N_14  and  C_15 
REMARK    4  A    between atoms: C_18  and  C_19 
REMARK    5  A    between atoms: C_19  and  O_20 
REMARK    6  A    between atoms: C_25  and  C_26 
ROOT
HETATM    1  C   UNL     1      42.986 -16.653   3.447  1.00  0.00     0.097 C 
HETATM    2  N   UNL     1      42.370 -16.020   2.262  1.00  0.00    -0.268 NA
HETATM    3  C   UNL     1      41.936 -14.734   2.430  1.00  0.00     0.118 C 
HETATM    4  N   UNL     1      41.679 -14.245   3.694  1.00  0.00    -0.245 N 
HETATM    5  N   UNL     1      41.412 -12.934   3.720  1.00  0.00    -0.182 NA
HETATM    6  C   UNL     1      41.347 -12.610   2.428  1.00  0.00     0.159 C 
HETATM    7  C   UNL     1      41.646 -13.696   1.563  1.00  0.00     0.091 C 
HETATM    8  C   UNL     1      41.756 -15.019   4.921  1.00  0.00     0.221 C 
HETATM    9  C   UNL     1      42.010 -16.510   4.619  1.00  0.00     0.061 C 
HETATM   10  H   UNL     1      41.728 -16.666   1.794  1.00  0.00     0.130 HD
ENDROOT
BRANCH   7  11
HETATM   11  C   UNL     1      41.644 -13.626   0.110  1.00  0.00     0.261 C 
HETATM   12  N   UNL     1      41.381 -12.371  -0.401  1.00  0.00    -0.323 N 
HETATM   13  H   UNL     1      41.088 -11.678   0.277  1.00  0.00     0.169 HD
HETATM   14  O   UNL     1      41.893 -14.630  -0.548  1.00  0.00    -0.267 OA
BRANCH  12  15
HETATM   15  C   UNL     1      41.555 -11.942  -1.733  1.00  0.00     0.035 A 
HETATM   16  C   UNL     1      42.688 -11.269  -2.193  1.00  0.00     0.030 A 
HETATM   17  C   UNL     1      42.763 -10.796  -3.509  1.00  0.00     0.012 A 
HETATM   18  C   UNL     1      41.700 -10.978  -4.400  1.00  0.00    -0.030 A 
HETATM   19  C   UNL     1      40.577 -11.685  -3.943  1.00  0.00     0.012 A 
HETATM   20  C   UNL     1      40.505 -12.164  -2.629  1.00  0.00     0.030 A 
BRANCH  18  21
HETATM   21  C   UNL     1      41.708 -10.455  -5.823  1.00  0.00     0.147 C 
HETATM   22  C   UNL     1      40.433  -9.766  -6.300  1.00  0.00     0.044 C 
BRANCH  21  23
HETATM   23  O   UNL     1      42.784  -9.530  -5.982  1.00  0.00    -0.391 OA
HETATM   24  H   UNL     1      42.981  -9.161  -5.104  1.00  0.00     0.210 HD
ENDBRANCH  21  23
ENDBRANCH  18  21
ENDBRANCH  12  15
ENDBRANCH   7  11
BRANCH   1  25
HETATM   25  C   UNL     1      43.434 -18.063   3.112  1.00  0.00    -0.040 A 
HETATM   26  C   UNL     1      44.175 -18.776   4.072  1.00  0.00     0.009 A 
HETATM   27  C   UNL     1      44.533 -20.110   3.864  1.00  0.00     0.007 A 
HETATM   28  C   UNL     1      44.171 -20.764   2.683  1.00  0.00    -0.062 A 
HETATM   29  C   UNL     1      44.483 -22.219   2.494  1.00  0.00     0.048 C 
HETATM   30  C   UNL     1      43.449 -20.060   1.716  1.00  0.00     0.007 A 
HETATM   31  C   UNL     1      43.093 -18.722   1.923  1.00  0.00     0.009 A 
ENDBRANCH   1  25
BRANCH   8  32
HETATM   32  C   UNL     1      40.487 -14.883   5.736  1.00  0.00     0.409 C 
HETATM   33  F   UNL     1      40.308 -15.931   6.575  1.00  0.00    -0.169 F 
HETATM   34  F   UNL     1      40.571 -13.774   6.521  1.00  0.00    -0.169 F 
HETATM   35  F   UNL     1      39.374 -14.736   4.994  1.00  0.00    -0.169 F 
ENDBRANCH   8  32
TORSDOF 6
ENDMDL
MODEL 6
REMARK VINA RESULT:      -8.5      3.327      4.779
REMARK  6 active torsions:
REMARK  status: ('A' for Active; 'I' for Inactive)
REMARK    1  A    between atoms: C_5  and  C_6 
REMARK    2  A    between atoms: C_12  and  C_13 
REMARK       I    between atoms: C_13  and  N_14 
REMARK    3  A    between atoms: N_14  and  C_15 
REMARK    4  A    between atoms: C_18  and  C_19 
REMARK    5  A    between atoms: C_19  and  O_20 
REMARK    6  A    between atoms: C_25  and  C_26 
ROOT
HETATM    1  C   UNL     1      39.808 -12.313   3.306  1.00  0.00     0.097 C 
HETATM    2  N   UNL     1      40.464 -13.637   3.276  1.00  0.00    -0.268 NA
HETATM    3  C   UNL     1      40.654 -14.181   2.035  1.00  0.00     0.118 C 
HETATM    4  N   UNL     1      39.897 -13.754   0.965  1.00  0.00    -0.245 N 
HETATM    5  N   UNL     1      40.292 -14.259  -0.210  1.00  0.00    -0.182 NA
HETATM    6  C   UNL     1      41.226 -15.145   0.138  1.00  0.00     0.159 C 
HETATM    7  C   UNL     1      41.489 -15.162   1.533  1.00  0.00     0.091 C 
HETATM    8  C   UNL     1      38.813 -12.789   1.039  1.00  0.00     0.221 C 
HETATM    9  C   UNL     1      38.507 -12.414   2.503  1.00  0.00     0.061 C 
HETATM   10  H   UNL     1      40.079 -14.254   3.997  1.00  0.00     0.130 HD
ENDROOT
BRANCH   7  11
HETATM   11  C   UNL     1      42.454 -16.035   2.186  1.00  0.00     0.261 C 
HETATM   12  N   UNL     1      42.049 -17.349   2.302  1.00  0.00    -0.323 N 
HETATM   13  H   UNL     1      41.085 -17.531   2.047  1.00  0.00     0.169 HD
HETATM   14  O   UNL     1      43.532 -15.582   2.553  1.00  0.00    -0.267 OA
BRANCH  12  15
HETATM   15  C   UNL     1      42.848 -18.457   2.652  1.00  0.00     0.035 A 
HETATM   16  C   UNL     1      43.168 -19.494   1.775  1.00  0.00     0.030 A 
HETATM   17  C   UNL     1      43.898 -20.608   2.209  1.00  0.00     0.012 A 
HETATM   18  C   UNL     1      44.321 -20.718   3.538  1.00  0.00    -0.030 A 
HETATM   19  C   UNL     1      44.026 -19.656   4.408  1.00  0.00     0.012 A 
HETATM   20  C   UNL     1      43.303 -18.538   3.971  1.00  0.00     0.030 A 
BRANCH  18  21
HETATM   21  C   UNL     1      45.079 -21.915   4.075  1.00  0.00     0.147 C 
HETATM   22  C   UNL     1      44.867 -22.247   5.550  1.00  0.00     0.044 C 
BRANCH  21  23
HETATM   23  O   UNL     1      44.731 -23.075   3.318  1.00  0.00    -0.391 OA
HETATM   24  H   UNL     1      43.760 -23.116   3.280  1.00  0.00     0.210 HD
ENDBRANCH  21  23
ENDBRANCH  18  21
ENDBRANCH  12  15
ENDBRANCH   7  11
BRANCH   1  25
HETATM   25  C   UNL     1      39.680 -11.826   4.737  1.00  0.00    -0.040 A 
HETATM   26  C   UNL     1      39.425 -12.772   5.746  1.00  0.00     0.009 A 
HETATM   27  C   UNL     1      39.394 -12.402   7.093  1.00  0.00     0.007 A 
HETATM   28  C   UNL     1      39.604 -11.072   7.466  1.00  0.00    -0.062 A 
HETATM   29  C   UNL     1      39.653 -10.688   8.916  1.00  0.00     0.048 C 
HETATM   30  C   UNL     1      39.843 -10.121   6.470  1.00  0.00     0.007 A 
HETATM   31  C   UNL     1      39.871 -10.491   5.121  1.00  0.00     0.009 A 
ENDBRANCH   1  25
BRANCH   8  32
HETATM   32  C   UNL     1      37.556 -13.324   0.388  1.00  0.00     0.409 C 
HETATM   33  F   UNL     1      37.684 -13.430  -0.956  1.00  0.00    -0.169 F 
HETATM   34  F   UNL     1      37.306 -14.580   0.848  1.00  0.00    -0.169 F 
HETATM   35  F   UNL     1      36.452 -12.600   0.654  1.00  0.00    -0.169 F 
ENDBRANCH   8  32
TORSDOF 6
ENDMDL
MODEL 7
REMARK VINA RESULT:      -8.2      4.532      9.300
REMARK  6 active torsions:
REMARK  status: ('A' for Active; 'I' for Inactive)
REMARK    1  A    between atoms: C_5  and  C_6 
REMARK    2  A    between atoms: C_12  and  C_13 
REMARK       I    between atoms: C_13  and  N_14 
REMARK    3  A    between atoms: N_14  and  C_15 
REMARK    4  A    between atoms: C_18  and  C_19 
REMARK    5  A    between atoms: C_19  and  O_20 
REMARK    6  A    between atoms: C_25  and  C_26 
ROOT
HETATM    1  C   UNL     1      41.027 -16.101   0.665  1.00  0.00     0.097 C 
HETATM    2  N   UNL     1      40.721 -14.851   1.390  1.00  0.00    -0.268 NA
HETATM    3  C   UNL     1      39.844 -14.002   0.773  1.00  0.00     0.118 C 
HETATM    4  N   UNL     1      39.632 -14.088  -0.587  1.00  0.00    -0.245 N 
HETATM    5  N   UNL     1      38.641 -13.304  -1.029  1.00  0.00    -0.182 NA
HETATM    6  C   UNL     1      38.315 -12.589   0.049  1.00  0.00     0.159 C 
HETATM    7  C   UNL     1      39.044 -12.961   1.209  1.00  0.00     0.091 C 
HETATM    8  C   UNL     1      40.335 -14.986  -1.487  1.00  0.00     0.221 C 
HETATM    9  C   UNL     1      41.470 -15.727  -0.753  1.00  0.00     0.061 C 
HETATM   10  H   UNL     1      41.572 -14.434   1.778  1.00  0.00     0.130 HD
ENDROOT
BRANCH   7  11
HETATM   11  C   UNL     1      38.895 -12.343   2.518  1.00  0.00     0.261 C 
HETATM   12  N   UNL     1      39.626 -12.945   3.521  1.00  0.00    -0.323 N 
HETATM   13  H   UNL     1      40.072 -13.820   3.269  1.00  0.00     0.169 HD
HETATM   14  O   UNL     1      38.185 -11.351   2.645  1.00  0.00    -0.267 OA
BRANCH  12  15
HETATM   15  C   UNL     1      39.880 -12.436   4.812  1.00  0.00     0.035 A 
HETATM   16  C   UNL     1      39.150 -12.792   5.946  1.00  0.00     0.030 A 
HETATM   17  C   UNL     1      39.400 -12.187   7.185  1.00  0.00     0.012 A 
HETATM   18  C   UNL     1      40.384 -11.203   7.319  1.00  0.00    -0.030 A 
HETATM   19  C   UNL     1      41.139 -10.874   6.183  1.00  0.00     0.012 A 
HETATM   20  C   UNL     1      40.895 -11.484   4.946  1.00  0.00     0.030 A 
BRANCH  18  21
HETATM   21  C   UNL     1      40.673 -10.487   8.624  1.00  0.00     0.147 C 
HETATM   22  C   UNL     1      39.506 -10.355   9.599  1.00  0.00     0.044 C 
BRANCH  21  23
HETATM   23  O   UNL     1      41.732 -11.158   9.307  1.00  0.00    -0.391 OA
HETATM   24  H   UNL     1      42.251 -10.481   9.774  1.00  0.00     0.210 HD
ENDBRANCH  21  23
ENDBRANCH  18  21
ENDBRANCH  12  15
ENDBRANCH   7  11
BRANCH   1  25
HETATM   25  C   UNL     1      41.991 -16.949   1.471  1.00  0.00    -0.040 A 
HETATM   26  C   UNL     1      41.634 -17.307   2.783  1.00  0.00     0.009 A 
HETATM   27  C   UNL     1      42.432 -18.166   3.542  1.00  0.00     0.007 A 
HETATM   28  C   UNL     1      43.619 -18.681   3.014  1.00  0.00    -0.062 A 
HETATM   29  C   UNL     1      44.434 -19.668   3.795  1.00  0.00     0.048 C 
HETATM   30  C   UNL     1      43.992 -18.319   1.717  1.00  0.00     0.007 A 
HETATM   31  C   UNL     1      43.193 -17.456   0.957  1.00  0.00     0.009 A 
ENDBRANCH   1  25
BRANCH   8  32
HETATM   32  C   UNL     1      40.912 -14.237  -2.670  1.00  0.00     0.409 C 
HETATM   33  F   UNL     1      41.543 -13.100  -2.294  1.00  0.00    -0.169 F 
HETATM   34  F   UNL     1      41.849 -15.011  -3.282  1.00  0.00    -0.169 F 
HETATM   35  F   UNL     1      40.005 -13.927  -3.616  1.00  0.00    -0.169 F 
ENDBRANCH   8  32
TORSDOF 6
ENDMDL
MODEL 8
REMARK VINA RESULT:      -8.2      3.801      8.576
REMARK  6 active torsions:
REMARK  status: ('A' for Active; 'I' for Inactive)
REMARK    1  A    between atoms: C_5  and  C_6 
REMARK    2  A    between atoms: C_12  and  C_13 
REMARK       I    between atoms: C_13  and  N_14 
REMARK    3  A    between atoms: N_14  and  C_15 
REMARK    4  A    between atoms: C_18  and  C_19 
REMARK    5  A    between atoms: C_19  and  O_20 
REMARK    6  A    between atoms: C_25  and  C_26 
ROOT
HETATM    1  C   UNL     1      41.548 -16.997   4.220  1.00  0.00     0.097 C 
HETATM    2  N   UNL     1      41.276 -15.554   4.387  1.00  0.00    -0.268 NA
HETATM    3  C   UNL     1      40.516 -14.973   3.409  1.00  0.00     0.118 C 
HETATM    4  N   UNL     1      40.410 -15.563   2.167  1.00  0.00    -0.245 N 
HETATM    5  N   UNL     1      39.518 -14.970   1.364  1.00  0.00    -0.182 NA
HETATM    6  C   UNL     1      39.158 -13.887   2.055  1.00  0.00     0.159 C 
HETATM    7  C   UNL     1      39.761 -13.816   3.338  1.00  0.00     0.091 C 
HETATM    8  C   UNL     1      41.117 -16.760   1.747  1.00  0.00     0.221 C 
HETATM    9  C   UNL     1      42.132 -17.207   2.819  1.00  0.00     0.061 C 
HETATM   10  H   UNL     1      42.120 -15.053   4.675  1.00  0.00     0.130 HD
ENDROOT
BRANCH   7  11
HETATM   11  C   UNL     1      39.550 -12.742   4.297  1.00  0.00     0.261 C 
HETATM   12  N   UNL     1      40.171 -12.933   5.515  1.00  0.00    -0.323 N 
HETATM   13  H   UNL     1      40.584 -13.848   5.654  1.00  0.00     0.169 HD
HETATM   14  O   UNL     1      38.890 -11.760   3.974  1.00  0.00    -0.267 OA
BRANCH  12  15
HETATM   15  C   UNL     1      40.357 -11.976   6.534  1.00  0.00     0.035 A 
HETATM   16  C   UNL     1      41.452 -11.113   6.602  1.00  0.00     0.030 A 
HETATM   17  C   UNL     1      41.619 -10.243   7.686  1.00  0.00     0.012 A 
HETATM   18  C   UNL     1      40.697 -10.217   8.737  1.00  0.00    -0.030 A 
HETATM   19  C   UNL     1      39.579 -11.062   8.647  1.00  0.00     0.012 A 
HETATM   20  C   UNL     1      39.408 -11.928   7.559  1.00  0.00     0.030 A 
BRANCH  18  21
HETATM   21  C   UNL     1      40.844  -9.325   9.954  1.00  0.00     0.147 C 
HETATM   22  C   UNL     1      42.086  -9.549  10.813  1.00  0.00     0.044 C 
BRANCH  21  23
HETATM   23  O   UNL     1      40.847  -7.958   9.541  1.00  0.00    -0.391 OA
HETATM   24  H   UNL     1      40.183  -7.867   8.836  1.00  0.00     0.210 HD
ENDBRANCH  21  23
ENDBRANCH  18  21
ENDBRANCH  12  15
ENDBRANCH   7  11
BRANCH   1  25
HETATM   25  C   UNL     1      42.380 -17.509   5.380  1.00  0.00    -0.040 A 
HETATM   26  C   UNL     1      42.278 -16.852   6.619  1.00  0.00     0.009 A 
HETATM   27  C   UNL     1      42.942 -17.333   7.750  1.00  0.00     0.007 A 
HETATM   28  C   UNL     1      43.738 -18.478   7.669  1.00  0.00    -0.062 A 
HETATM   29  C   UNL     1      44.384 -19.043   8.900  1.00  0.00     0.048 C 
HETATM   30  C   UNL     1      43.860 -19.129   6.439  1.00  0.00     0.007 A 
HETATM   31  C   UNL     1      43.197 -18.646   5.306  1.00  0.00     0.009 A 
ENDBRANCH   1  25
BRANCH   8  32
HETATM   32  C   UNL     1      41.841 -16.539   0.436  1.00  0.00     0.409 C 
HETATM   33  F   UNL     1      41.024 -16.704  -0.630  1.00  0.00    -0.169 F 
HETATM   34  F   UNL     1      42.291 -15.256   0.378  1.00  0.00    -0.169 F 
HETATM   35  F   UNL     1      42.922 -17.324   0.269  1.00  0.00    -0.169 F 
ENDBRANCH   8  32
TORSDOF 6
ENDMDL
MODEL 9
REMARK VINA RESULT:      -8.2      4.707      9.631
REMARK  6 active torsions:
REMARK  status: ('A' for Active; 'I' for Inactive)
REMARK    1  A    between atoms: C_5  and  C_6 
REMARK    2  A    between atoms: C_12  and  C_13 
REMARK       I    between atoms: C_13  and  N_14 
REMARK    3  A    between atoms: N_14  and  C_15 
REMARK    4  A    between atoms: C_18  and  C_19 
REMARK    5  A    between atoms: C_19  and  O_20 
REMARK    6  A    between atoms: C_25  and  C_26 
ROOT
HETATM    1  C   UNL     1      44.142 -17.604   4.491  1.00  0.00     0.097 C 
HETATM    2  N   UNL     1      43.111 -16.616   4.111  1.00  0.00    -0.268 NA
HETATM    3  C   UNL     1      43.029 -15.504   4.904  1.00  0.00     0.118 C 
HETATM    4  N   UNL     1      43.536 -15.525   6.187  1.00  0.00    -0.245 N 
HETATM    5  N   UNL     1      43.524 -14.330   6.790  1.00  0.00    -0.182 NA
HETATM    6  C   UNL     1      42.856 -13.561   5.929  1.00  0.00     0.159 C 
HETATM    7  C   UNL     1      42.498 -14.239   4.734  1.00  0.00     0.091 C 
HETATM    8  C   UNL     1      44.112 -16.688   6.839  1.00  0.00     0.221 C 
HETATM    9  C   UNL     1      43.942 -17.950   5.969  1.00  0.00     0.061 C 
HETATM   10  H   UNL     1      42.230 -17.079   3.873  1.00  0.00     0.130 HD
ENDROOT
BRANCH   7  11
HETATM   11  C   UNL     1      41.760 -13.643   3.630  1.00  0.00     0.261 C 
HETATM   12  N   UNL     1      40.438 -14.030   3.551  1.00  0.00    -0.323 N 
HETATM   13  H   UNL     1      40.166 -14.780   4.177  1.00  0.00     0.169 HD
HETATM   14  O   UNL     1      42.319 -12.845   2.885  1.00  0.00    -0.267 OA
BRANCH  12  15
HETATM   15  C   UNL     1      39.426 -13.445   2.762  1.00  0.00     0.035 A 
HETATM   16  C   UNL     1      38.826 -14.076   1.672  1.00  0.00     0.030 A 
HETATM   17  C   UNL     1      37.884 -13.407   0.879  1.00  0.00     0.012 A 
HETATM   18  C   UNL     1      37.523 -12.084   1.152  1.00  0.00    -0.030 A 
HETATM   19  C   UNL     1      38.104 -11.465   2.271  1.00  0.00     0.012 A 
HETATM   20  C   UNL     1      39.040 -12.136   3.068  1.00  0.00     0.030 A 
BRANCH  18  21
HETATM   21  C   UNL     1      36.540 -11.298   0.308  1.00  0.00     0.147 C 
HETATM   22  C   UNL     1      36.672 -11.448  -1.205  1.00  0.00     0.044 C 
BRANCH  21  23
HETATM   23  O   UNL     1      35.208 -11.669   0.664  1.00  0.00    -0.391 OA
HETATM   24  H   UNL     1      34.618 -10.956   0.363  1.00  0.00     0.210 HD
ENDBRANCH  21  23
ENDBRANCH  18  21
ENDBRANCH  12  15
ENDBRANCH   7  11
BRANCH   1  25
HETATM   25  C   UNL     1      44.133 -18.768   3.518  1.00  0.00    -0.040 A 
HETATM   26  C   UNL     1      44.721 -19.981   3.919  1.00  0.00     0.009 A 
HETATM   27  C   UNL     1      44.658 -21.117   3.110  1.00  0.00     0.007 A 
HETATM   28  C   UNL     1      44.017 -21.068   1.870  1.00  0.00    -0.062 A 
HETATM   29  C   UNL     1      43.877 -22.308   1.036  1.00  0.00     0.048 C 
HETATM   30  C   UNL     1      43.444 -19.864   1.454  1.00  0.00     0.007 A 
HETATM   31  C   UNL     1      43.509 -18.724   2.264  1.00  0.00     0.009 A 
ENDBRANCH   1  25
BRANCH   8  32
HETATM   32  C   UNL     1      43.480 -16.927   8.194  1.00  0.00     0.409 C 
HETATM   33  F   UNL     1      42.151 -17.168   8.100  1.00  0.00    -0.169 F 
HETATM   34  F   UNL     1      44.031 -18.036   8.761  1.00  0.00    -0.169 F 
HETATM   35  F   UNL     1      43.670 -15.923   9.071  1.00  0.00    -0.169 F 
ENDBRANCH   8  32
TORSDOF 6
ENDMDL
MODEL 10
REMARK VINA RESULT:      -8.1      3.952      6.992
REMARK  6 active torsions:
REMARK  status: ('A' for Active; 'I' for Inactive)
REMARK    1  A    between atoms: C_5  and  C_6 
REMARK    2  A    between atoms: C_12  and  C_13 
REMARK       I    between atoms: C_13  and  N_14 
REMARK    3  A    between atoms: N_14  and  C_15 
REMARK    4  A    between atoms: C_18  and  C_19 
REMARK    5  A    between atoms: C_19  and  O_20 
REMARK    6  A    between atoms: C_25  and  C_26 
ROOT
HETATM    1  C   UNL     1      41.080 -11.884   0.782  1.00  0.00     0.097 C 
HETATM    2  N   UNL     1      41.982 -12.841   1.456  1.00  0.00    -0.268 NA
HETATM    3  C   UNL     1      41.625 -13.204   2.726  1.00  0.00     0.118 C 
HETATM    4  N   UNL     1      40.776 -12.409   3.465  1.00  0.00    -0.245 N 
HETATM    5  N   UNL     1      40.394 -12.959   4.624  1.00  0.00    -0.182 NA
HETATM    6  C   UNL     1      41.136 -14.066   4.695  1.00  0.00     0.159 C 
HETATM    7  C   UNL     1      41.946 -14.270   3.547  1.00  0.00     0.091 C 
HETATM    8  C   UNL     1      40.252 -11.123   3.038  1.00  0.00     0.221 C 
HETATM    9  C   UNL     1      40.894 -10.678   1.709  1.00  0.00     0.061 C 
HETATM   10  H   UNL     1      42.963 -12.588   1.306  1.00  0.00     0.130 HD
ENDROOT
BRANCH   7  11
HETATM   11  C   UNL     1      42.857 -15.390   3.361  1.00  0.00     0.261 C 
HETATM   12  N   UNL     1      42.385 -16.595   3.841  1.00  0.00    -0.323 N 
HETATM   13  H   UNL     1      41.530 -16.543   4.383  1.00  0.00     0.169 HD
HETATM   14  O   UNL     1      43.927 -15.216   2.790  1.00  0.00    -0.267 OA
BRANCH  12  15
HETATM   15  C   UNL     1      42.915 -17.878   3.589  1.00  0.00     0.035 A 
HETATM   16  C   UNL     1      43.760 -18.557   4.467  1.00  0.00     0.030 A 
HETATM   17  C   UNL     1      44.319 -19.794   4.120  1.00  0.00     0.012 A 
HETATM   18  C   UNL     1      44.053 -20.380   2.878  1.00  0.00    -0.030 A 
HETATM   19  C   UNL     1      43.175 -19.709   2.012  1.00  0.00     0.012 A 
HETATM   20  C   UNL     1      42.610 -18.476   2.363  1.00  0.00     0.030 A 
BRANCH  18  21
HETATM   21  C   UNL     1      44.658 -21.697   2.432  1.00  0.00     0.147 C 
HETATM   22  C   UNL     1      44.714 -22.808   3.478  1.00  0.00     0.044 C 
BRANCH  21  23
HETATM   23  O   UNL     1      43.929 -22.196   1.310  1.00  0.00    -0.391 OA
HETATM   24  H   UNL     1      43.615 -23.087   1.542  1.00  0.00     0.210 HD
ENDBRANCH  21  23
ENDBRANCH  18  21
ENDBRANCH  12  15
ENDBRANCH   7  11
BRANCH   1  25
HETATM   25  C   UNL     1      41.585 -11.587  -0.617  1.00  0.00    -0.040 A 
HETATM   26  C   UNL     1      40.917 -12.172  -1.708  1.00  0.00     0.009 A 
HETATM   27  C   UNL     1      41.271 -11.861  -3.023  1.00  0.00     0.007 A 
HETATM   28  C   UNL     1      42.313 -10.967  -3.283  1.00  0.00    -0.062 A 
HETATM   29  C   UNL     1      42.639 -10.570  -4.692  1.00  0.00     0.048 C 
HETATM   30  C   UNL     1      42.994 -10.394  -2.206  1.00  0.00     0.007 A 
HETATM   31  C   UNL     1      42.641 -10.706  -0.889  1.00  0.00     0.009 A 
ENDBRANCH   1  25
BRANCH   8  32
HETATM   32  C   UNL     1      40.489 -10.057   4.088  1.00  0.00     0.409 C 
HETATM   33  F   UNL     1      41.647 -10.254   4.760  1.00  0.00    -0.169 F 
HETATM   34  F   UNL     1      40.600  -8.843   3.482  1.00  0.00    -0.169 F 
HETATM   35  F   UNL     1      39.491  -9.941   4.984  1.00  0.00    -0.169 F 
ENDBRANCH   8  32
TORSDOF 6
ENDMDL
