MODEL 1
REMARK VINA RESULT:      -9.4      0.000      0.000
REMARK  6 active torsions:
REMARK  status: ('A' for Active; 'I' for Inactive)
REMARK    1  A    between atoms: C_6  and  C_7 
REMARK    2  A    between atoms: C_7  and  C_8 
REMARK       I    between atoms: C_8  and  N_9 
REMARK    3  A    between atoms: N_9  and  C_10 
REMARK    4  A    between atoms: C_12  and  C_13 
REMARK       I    between atoms: C_13  and  N_14 
REMARK    5  A    between atoms: N_14  and  C_15 
REMARK    6  A    between atoms: C_15  and  C_16 
ROOT
HETATM    1  C   UNL     1      44.112 -14.049   7.190  1.00  0.00     0.035 A 
HETATM    2  C   UNL     1      44.603 -15.360   7.232  1.00  0.00     0.046 A 
HETATM    3  C   UNL     1      44.191 -16.304   6.278  1.00  0.00     0.034 A 
HETATM    4  C   UNL     1      43.277 -15.917   5.285  1.00  0.00     0.017 A 
HETATM    5  C   UNL     1      42.778 -14.618   5.244  1.00  0.00     0.003 A 
HETATM    6  C   UNL     1      43.193 -13.691   6.195  1.00  0.00     0.029 A 
ENDROOT
BRANCH   1   7
HETATM    7  N   UNL     1      44.467 -13.044   8.107  1.00  0.00    -0.327 N 
HETATM    8  C   UNL     1      45.678 -12.394   8.252  1.00  0.00     0.227 C 
HETATM    9  O   UNL     1      46.682 -12.594   7.568  1.00  0.00    -0.273 OA
HETATM   10  H   UNL     1      43.719 -12.682   8.704  1.00  0.00     0.169 HD
BRANCH   8  11
HETATM   11  C   UNL     1      45.734 -11.435   9.437  1.00  0.00     0.164 C 
BRANCH  11  12
HETATM   12  C   UNL     1      44.761 -11.739  10.532  1.00  0.00     0.065 A 
HETATM   13  N   UNL     1      44.667 -12.978  11.046  1.00  0.00    -0.179 NA
HETATM   14  N   UNL     1      43.745 -12.858  12.019  1.00  0.00    -0.282 N 
HETATM   15  C   UNL     1      43.249 -11.592  12.149  1.00  0.00     0.026 A 
HETATM   16  H   UNL     1      43.508 -13.681  12.563  1.00  0.00     0.189 HD
HETATM   17  C   UNL     1      42.235 -11.234  13.167  1.00  0.00     0.070 C 
HETATM   18  C   UNL     1      43.886 -10.841  11.188  1.00  0.00     0.055 A 
ENDBRANCH  11  12
ENDBRANCH   8  11
ENDBRANCH   1   7
BRANCH   3  19
HETATM   19  C   UNL     1      44.645 -17.729   6.267  1.00  0.00     0.252 C 
HETATM   20  N   UNL     1      43.726 -18.712   5.965  1.00  0.00    -0.353 N 
HETATM   21  H   UNL     1      42.736 -18.513   5.952  1.00  0.00     0.163 HD
HETATM   22  O   UNL     1      45.817 -17.991   6.527  1.00  0.00    -0.268 OA
BRANCH  20  23
HETATM   23  C   UNL     1      44.119 -20.106   6.010  1.00  0.00     0.161 C 
BRANCH  23  24
HETATM   24  C   UNL     1      44.306 -20.720   4.646  1.00  0.00    -0.041 A 
HETATM   25  C   UNL     1      44.614 -22.080   4.487  1.00  0.00     0.009 A 
HETATM   26  C   UNL     1      44.711 -22.643   3.212  1.00  0.00     0.001 A 
HETATM   27  C   UNL     1      44.483 -21.860   2.083  1.00  0.00     0.000 A 
HETATM   28  C   UNL     1      44.159 -20.513   2.225  1.00  0.00     0.001 A 
HETATM   29  C   UNL     1      44.068 -19.947   3.499  1.00  0.00     0.009 A 
ENDBRANCH  23  24
ENDBRANCH  20  23
ENDBRANCH   3  19
TORSDOF 6
ENDMDL
MODEL 2
REMARK VINA RESULT:      -8.7      2.127      2.866
REMARK  6 active torsions:
REMARK  status: ('A' for Active; 'I' for Inactive)
REMARK    1  A    between atoms: C_6  and  C_7 
REMARK    2  A    between atoms: C_7  and  C_8 
REMARK       I    between atoms: C_8  and  N_9 
REMARK    3  A    between atoms: N_9  and  C_10 
REMARK    4  A    between atoms: C_12  and  C_13 
REMARK       I    between atoms: C_13  and  N_14 
REMARK    5  A    between atoms: N_14  and  C_15 
REMARK    6  A    between atoms: C_15  and  C_16 
ROOT
HETATM    1  C   UNL     1      42.781 -14.041   5.539  1.00  0.00     0.035 A 
HETATM    2  C   UNL     1      43.024 -15.119   4.679  1.00  0.00     0.046 A 
HETATM    3  C   UNL     1      41.977 -15.681   3.931  1.00  0.00     0.034 A 
HETATM    4  C   UNL     1      40.684 -15.151   4.062  1.00  0.00     0.017 A 
HETATM    5  C   UNL     1      40.435 -14.086   4.924  1.00  0.00     0.003 A 
HETATM    6  C   UNL     1      41.480 -13.537   5.660  1.00  0.00     0.029 A 
ENDROOT
BRANCH   1   7
HETATM    7  N   UNL     1      43.769 -13.423   6.327  1.00  0.00    -0.327 N 
HETATM    8  C   UNL     1      44.456 -13.933   7.411  1.00  0.00     0.227 C 
HETATM    9  O   UNL     1      44.313 -15.063   7.879  1.00  0.00    -0.273 OA
HETATM   10  H   UNL     1      44.086 -12.498   6.022  1.00  0.00     0.169 HD
BRANCH   8  11
HETATM   11  C   UNL     1      45.379 -12.929   8.095  1.00  0.00     0.164 C 
BRANCH  11  12
HETATM   12  C   UNL     1      44.687 -11.967   9.008  1.00  0.00     0.065 A 
HETATM   13  N   UNL     1      43.589 -11.304   8.606  1.00  0.00    -0.179 NA
HETATM   14  N   UNL     1      43.227 -10.587   9.686  1.00  0.00    -0.282 N 
HETATM   15  C   UNL     1      44.048 -10.769  10.762  1.00  0.00     0.026 A 
HETATM   16  H   UNL     1      42.401 -10.001   9.621  1.00  0.00     0.189 HD
HETATM   17  C   UNL     1      43.825 -10.088  12.058  1.00  0.00     0.070 C 
HETATM   18  C   UNL     1      45.014 -11.657  10.349  1.00  0.00     0.055 A 
ENDBRANCH  11  12
ENDBRANCH   8  11
ENDBRANCH   1   7
BRANCH   3  19
HETATM   19  C   UNL     1      42.144 -16.848   3.011  1.00  0.00     0.252 C 
HETATM   20  N   UNL     1      43.403 -17.388   2.852  1.00  0.00    -0.353 N 
HETATM   21  H   UNL     1      44.224 -16.897   3.175  1.00  0.00     0.163 HD
HETATM   22  O   UNL     1      41.164 -17.297   2.422  1.00  0.00    -0.268 OA
BRANCH  20  23
HETATM   23  C   UNL     1      43.609 -18.476   1.918  1.00  0.00     0.161 C 
BRANCH  23  24
HETATM   24  C   UNL     1      44.055 -19.756   2.580  1.00  0.00    -0.041 A 
HETATM   25  C   UNL     1      44.482 -19.783   3.917  1.00  0.00     0.009 A 
HETATM   26  C   UNL     1      44.820 -20.991   4.530  1.00  0.00     0.001 A 
HETATM   27  C   UNL     1      44.719 -22.187   3.823  1.00  0.00     0.000 A 
HETATM   28  C   UNL     1      44.279 -22.178   2.502  1.00  0.00     0.001 A 
HETATM   29  C   UNL     1      43.946 -20.970   1.885  1.00  0.00     0.009 A 
ENDBRANCH  23  24
ENDBRANCH  20  23
ENDBRANCH   3  19
TORSDOF 6
ENDMDL
MODEL 3
REMARK VINA RESULT:      -8.4      6.557      9.696
REMARK  6 active torsions:
REMARK  status: ('A' for Active; 'I' for Inactive)
REMARK    1  A    between atoms: C_6  and  C_7 
REMARK    2  A    between atoms: C_7  and  C_8 
REMARK       I    between atoms: C_8  and  N_9 
REMARK    3  A    between atoms: N_9  and  C_10 
REMARK    4  A    between atoms: C_12  and  C_13 
REMARK       I    between atoms: C_13  and  N_14 
REMARK    5  A    between atoms: N_14  and  C_15 
REMARK    6  A    between atoms: C_15  and  C_16 
ROOT
HETATM    1  C   UNL     1      40.614 -15.199   0.555  1.00  0.00     0.035 A 
HETATM    2  C   UNL     1      41.374 -16.042   1.376  1.00  0.00     0.046 A 
HETATM    3  C   UNL     1      41.151 -16.073   2.761  1.00  0.00     0.034 A 
HETATM    4  C   UNL     1      40.160 -15.246   3.313  1.00  0.00     0.017 A 
HETATM    5  C   UNL     1      39.408 -14.399   2.503  1.00  0.00     0.003 A 
HETATM    6  C   UNL     1      39.638 -14.376   1.130  1.00  0.00     0.029 A 
ENDROOT
BRANCH   1   7
HETATM    7  N   UNL     1      40.775 -15.102  -0.839  1.00  0.00    -0.327 N 
HETATM    8  C   UNL     1      41.499 -14.175  -1.564  1.00  0.00     0.227 C 
HETATM    9  O   UNL     1      42.153 -13.248  -1.085  1.00  0.00    -0.273 OA
HETATM   10  H   UNL     1      40.369 -15.855  -1.401  1.00  0.00     0.169 HD
BRANCH   8  11
HETATM   11  C   UNL     1      41.350 -14.310  -3.076  1.00  0.00     0.164 C 
BRANCH  11  12
HETATM   12  C   UNL     1      39.989 -14.729  -3.534  1.00  0.00     0.065 A 
HETATM   13  N   UNL     1      39.753 -15.993  -3.926  1.00  0.00    -0.179 NA
HETATM   14  N   UNL     1      38.438 -16.005  -4.213  1.00  0.00    -0.282 N 
HETATM   15  C   UNL     1      37.825 -14.801  -4.017  1.00  0.00     0.026 A 
HETATM   16  H   UNL     1      38.021 -16.875  -4.530  1.00  0.00     0.189 HD
HETATM   17  C   UNL     1      36.379 -14.594  -4.257  1.00  0.00     0.070 C 
HETATM   18  C   UNL     1      38.812 -13.946  -3.581  1.00  0.00     0.055 A 
ENDBRANCH  11  12
ENDBRANCH   8  11
ENDBRANCH   1   7
BRANCH   3  19
HETATM   19  C   UNL     1      41.935 -16.923   3.711  1.00  0.00     0.252 C 
HETATM   20  N   UNL     1      43.206 -17.316   3.350  1.00  0.00    -0.353 N 
HETATM   21  H   UNL     1      43.531 -17.217   2.399  1.00  0.00     0.163 HD
HETATM   22  O   UNL     1      41.432 -17.249   4.784  1.00  0.00    -0.268 OA
BRANCH  20  23
HETATM   23  C   UNL     1      43.964 -18.193   4.219  1.00  0.00     0.161 C 
BRANCH  23  24
HETATM   24  C   UNL     1      44.162 -19.575   3.649  1.00  0.00    -0.041 A 
HETATM   25  C   UNL     1      44.675 -20.625   4.427  1.00  0.00     0.009 A 
HETATM   26  C   UNL     1      44.781 -21.914   3.900  1.00  0.00     0.001 A 
HETATM   27  C   UNL     1      44.359 -22.174   2.598  1.00  0.00     0.000 A 
HETATM   28  C   UNL     1      43.830 -21.147   1.821  1.00  0.00     0.001 A 
HETATM   29  C   UNL     1      43.729 -19.856   2.343  1.00  0.00     0.009 A 
ENDBRANCH  23  24
ENDBRANCH  20  23
ENDBRANCH   3  19
TORSDOF 6
ENDMDL
MODEL 4
REMARK VINA RESULT:      -8.3      3.093      9.560
REMARK  6 active torsions:
REMARK  status: ('A' for Active; 'I' for Inactive)
REMARK    1  A    between atoms: C_6  and  C_7 
REMARK    2  A    between atoms: C_7  and  C_8 
REMARK       I    between atoms: C_8  and  N_9 
REMARK    3  A    between atoms: N_9  and  C_10 
REMARK    4  A    between atoms: C_12  and  C_13 
REMARK       I    between atoms: C_13  and  N_14 
REMARK    5  A    between atoms: N_14  and  C_15 
REMARK    6  A    between atoms: C_15  and  C_16 
ROOT
HETATM    1  C   UNL     1      42.861 -16.919   5.233  1.00  0.00     0.035 A 
HETATM    2  C   UNL     1      43.559 -15.729   5.472  1.00  0.00     0.046 A 
HETATM    3  C   UNL     1      43.954 -15.387   6.775  1.00  0.00     0.034 A 
HETATM    4  C   UNL     1      43.635 -16.251   7.834  1.00  0.00     0.017 A 
HETATM    5  C   UNL     1      42.932 -17.430   7.604  1.00  0.00     0.003 A 
HETATM    6  C   UNL     1      42.546 -17.760   6.308  1.00  0.00     0.029 A 
ENDROOT
BRANCH   1   7
HETATM    7  N   UNL     1      42.425 -17.336   3.962  1.00  0.00    -0.327 N 
HETATM    8  C   UNL     1      43.045 -18.192   3.073  1.00  0.00     0.227 C 
HETATM    9  O   UNL     1      44.123 -18.757   3.259  1.00  0.00    -0.273 OA
HETATM   10  H   UNL     1      41.490 -17.033   3.676  1.00  0.00     0.169 HD
BRANCH   8  11
HETATM   11  C   UNL     1      42.330 -18.325   1.732  1.00  0.00     0.164 C 
BRANCH  11  12
HETATM   12  C   UNL     1      41.462 -17.162   1.370  1.00  0.00     0.065 A 
HETATM   13  N   UNL     1      40.253 -17.001   1.937  1.00  0.00    -0.179 NA
HETATM   14  N   UNL     1      39.799 -15.847   1.415  1.00  0.00    -0.282 N 
HETATM   15  C   UNL     1      40.670 -15.262   0.541  1.00  0.00     0.026 A 
HETATM   16  H   UNL     1      38.887 -15.510   1.708  1.00  0.00     0.189 HD
HETATM   17  C   UNL     1      40.378 -13.979  -0.138  1.00  0.00     0.070 C 
HETATM   18  C   UNL     1      41.761 -16.100   0.484  1.00  0.00     0.055 A 
ENDBRANCH  11  12
ENDBRANCH   8  11
ENDBRANCH   1   7
BRANCH   3  19
HETATM   19  C   UNL     1      44.678 -14.124   7.121  1.00  0.00     0.252 C 
HETATM   20  N   UNL     1      44.412 -13.522   8.332  1.00  0.00    -0.353 N 
HETATM   21  H   UNL     1      43.612 -13.795   8.885  1.00  0.00     0.163 HD
HETATM   22  O   UNL     1      45.487 -13.655   6.323  1.00  0.00    -0.268 OA
BRANCH  20  23
HETATM   23  C   UNL     1      45.047 -12.264   8.667  1.00  0.00     0.161 C 
BRANCH  23  24
HETATM   24  C   UNL     1      44.249 -11.430   9.638  1.00  0.00    -0.041 A 
HETATM   25  C   UNL     1      44.746 -11.101  10.908  1.00  0.00     0.009 A 
HETATM   26  C   UNL     1      44.021 -10.267  11.762  1.00  0.00     0.001 A 
HETATM   27  C   UNL     1      42.800  -9.736  11.350  1.00  0.00     0.000 A 
HETATM   28  C   UNL     1      42.303 -10.038  10.086  1.00  0.00     0.001 A 
HETATM   29  C   UNL     1      43.024 -10.877   9.232  1.00  0.00     0.009 A 
ENDBRANCH  23  24
ENDBRANCH  20  23
ENDBRANCH   3  19
TORSDOF 6
ENDMDL
MODEL 5
REMARK VINA RESULT:      -8.1      4.933      8.117
REMARK  6 active torsions:
REMARK  status: ('A' for Active; 'I' for Inactive)
REMARK    1  A    between atoms: C_6  and  C_7 
REMARK    2  A    between atoms: C_7  and  C_8 
REMARK       I    between atoms: C_8  and  N_9 
REMARK    3  A    between atoms: N_9  and  C_10 
REMARK    4  A    between atoms: C_12  and  C_13 
REMARK       I    between atoms: C_13  and  N_14 
REMARK    5  A    between atoms: N_14  and  C_15 
REMARK    6  A    between atoms: C_15  and  C_16 
ROOT
HETATM    1  C   UNL     1      40.758 -14.516   3.158  1.00  0.00     0.035 A 
HETATM    2  C   UNL     1      41.598 -15.578   3.515  1.00  0.00     0.046 A 
HETATM    3  C   UNL     1      41.647 -16.029   4.843  1.00  0.00     0.034 A 
HETATM    4  C   UNL     1      40.849 -15.396   5.809  1.00  0.00     0.017 A 
HETATM    5  C   UNL     1      40.020 -14.333   5.462  1.00  0.00     0.003 A 
HETATM    6  C   UNL     1      39.978 -13.895   4.142  1.00  0.00     0.029 A 
ENDROOT
BRANCH   1   7
HETATM    7  N   UNL     1      40.651 -13.999   1.854  1.00  0.00    -0.327 N 
HETATM    8  C   UNL     1      41.510 -13.147   1.188  1.00  0.00     0.227 C 
HETATM    9  O   UNL     1      42.556 -12.686   1.645  1.00  0.00    -0.273 OA
HETATM   10  H   UNL     1      39.877 -14.352   1.283  1.00  0.00     0.169 HD
BRANCH   8  11
HETATM   11  C   UNL     1      41.010 -12.703  -0.184  1.00  0.00     0.164 C 
BRANCH  11  12
HETATM   12  C   UNL     1      40.828 -13.812  -1.171  1.00  0.00     0.065 A 
HETATM   13  N   UNL     1      41.562 -14.935  -1.088  1.00  0.00    -0.179 NA
HETATM   14  N   UNL     1      41.096 -15.704  -2.088  1.00  0.00    -0.282 N 
HETATM   15  C   UNL     1      40.092 -15.119  -2.805  1.00  0.00     0.026 A 
HETATM   16  H   UNL     1      41.503 -16.625  -2.220  1.00  0.00     0.189 HD
HETATM   17  C   UNL     1      39.425 -15.795  -3.941  1.00  0.00     0.070 C 
HETATM   18  C   UNL     1      39.899 -13.881  -2.236  1.00  0.00     0.055 A 
ENDBRANCH  11  12
ENDBRANCH   8  11
ENDBRANCH   1   7
BRANCH   3  19
HETATM   19  C   UNL     1      42.534 -17.138   5.313  1.00  0.00     0.252 C 
HETATM   20  N   UNL     1      43.611 -17.498   4.531  1.00  0.00    -0.353 N 
HETATM   21  H   UNL     1      43.691 -17.177   3.577  1.00  0.00     0.163 HD
HETATM   22  O   UNL     1      42.285 -17.699   6.378  1.00  0.00    -0.268 OA
BRANCH  20  23
HETATM   23  C   UNL     1      44.449 -18.611   4.926  1.00  0.00     0.161 C 
BRANCH  23  24
HETATM   24  C   UNL     1      44.383 -19.779   3.973  1.00  0.00    -0.041 A 
HETATM   25  C   UNL     1      44.785 -21.067   4.359  1.00  0.00     0.009 A 
HETATM   26  C   UNL     1      44.646 -22.146   3.484  1.00  0.00     0.001 A 
HETATM   27  C   UNL     1      44.086 -21.957   2.222  1.00  0.00     0.000 A 
HETATM   28  C   UNL     1      43.665 -20.689   1.834  1.00  0.00     0.001 A 
HETATM   29  C   UNL     1      43.809 -19.606   2.704  1.00  0.00     0.009 A 
ENDBRANCH  23  24
ENDBRANCH  20  23
ENDBRANCH   3  19
TORSDOF 6
ENDMDL
MODEL 6
REMARK VINA RESULT:      -8.1      4.292      7.476
REMARK  6 active torsions:
REMARK  status: ('A' for Active; 'I' for Inactive)
REMARK    1  A    between atoms: C_6  and  C_7 
REMARK    2  A    between atoms: C_7  and  C_8 
REMARK       I    between atoms: C_8  and  N_9 
REMARK    3  A    between atoms: N_9  and  C_10 
REMARK    4  A    between atoms: C_12  and  C_13 
REMARK       I    between atoms: C_13  and  N_14 
REMARK    5  A    between atoms: N_14  and  C_15 
REMARK    6  A    between atoms: C_15  and  C_16 
ROOT
HETATM    1  C   UNL     1      42.512 -14.174   4.017  1.00  0.00     0.035 A 
HETATM    2  C   UNL     1      42.730 -15.537   4.256  1.00  0.00     0.046 A 
HETATM    3  C   UNL     1      43.244 -15.969   5.488  1.00  0.00     0.034 A 
HETATM    4  C   UNL     1      43.542 -15.017   6.475  1.00  0.00     0.017 A 
HETATM    5  C   UNL     1      43.337 -13.660   6.241  1.00  0.00     0.003 A 
HETATM    6  C   UNL     1      42.826 -13.242   5.015  1.00  0.00     0.029 A 
ENDROOT
BRANCH   1   7
HETATM    7  N   UNL     1      42.005 -13.655   2.812  1.00  0.00    -0.327 N 
HETATM    8  C   UNL     1      40.689 -13.465   2.439  1.00  0.00     0.227 C 
HETATM    9  O   UNL     1      39.705 -13.724   3.132  1.00  0.00    -0.273 OA
HETATM   10  H   UNL     1      42.691 -13.297   2.143  1.00  0.00     0.169 HD
BRANCH   8  11
HETATM   11  C   UNL     1      40.511 -12.985   1.002  1.00  0.00     0.164 C 
BRANCH  11  12
HETATM   12  C   UNL     1      40.704 -14.042  -0.038  1.00  0.00     0.065 A 
HETATM   13  N   UNL     1      41.315 -15.201   0.263  1.00  0.00    -0.179 NA
HETATM   14  N   UNL     1      41.261 -15.905  -0.882  1.00  0.00    -0.282 N 
HETATM   15  C   UNL     1      40.638 -15.244  -1.902  1.00  0.00     0.026 A 
HETATM   16  H   UNL     1      41.663 -16.838  -0.895  1.00  0.00     0.189 HD
HETATM   17  C   UNL     1      40.456 -15.840  -3.245  1.00  0.00     0.070 C 
HETATM   18  C   UNL     1      40.270 -14.023  -1.385  1.00  0.00     0.055 A 
ENDBRANCH  11  12
ENDBRANCH   8  11
ENDBRANCH   1   7
BRANCH   3  19
HETATM   19  C   UNL     1      43.531 -17.400   5.814  1.00  0.00     0.252 C 
HETATM   20  N   UNL     1      44.495 -18.063   5.084  1.00  0.00    -0.353 N 
HETATM   21  H   UNL     1      44.854 -17.675   4.224  1.00  0.00     0.163 HD
HETATM   22  O   UNL     1      42.907 -17.950   6.719  1.00  0.00    -0.268 OA
BRANCH  20  23
HETATM   23  C   UNL     1      44.749 -19.468   5.331  1.00  0.00     0.161 C 
BRANCH  23  24
HETATM   24  C   UNL     1      44.545 -20.336   4.115  1.00  0.00    -0.041 A 
HETATM   25  C   UNL     1      44.817 -21.713   4.140  1.00  0.00     0.009 A 
HETATM   26  C   UNL     1      44.552 -22.510   3.025  1.00  0.00     0.001 A 
HETATM   27  C   UNL     1      43.994 -21.948   1.879  1.00  0.00     0.000 A 
HETATM   28  C   UNL     1      43.702 -20.587   1.846  1.00  0.00     0.001 A 
HETATM   29  C   UNL     1      43.972 -19.786   2.958  1.00  0.00     0.009 A 
ENDBRANCH  23  24
ENDBRANCH  20  23
ENDBRANCH   3  19
TORSDOF 6
ENDMDL
MODEL 7
REMARK VINA RESULT:      -8.0      3.776      4.389
REMARK  6 active torsions:
REMARK  status: ('A' for Active; 'I' for Inactive)
REMARK    1  A    between atoms: C_6  and  C_7 
REMARK    2  A    between atoms: C_7  and  C_8 
REMARK       I    between atoms: C_8  and  N_9 
REMARK    3  A    between atoms: N_9  and  C_10 
REMARK    4  A    between atoms: C_12  and  C_13 
REMARK       I    between atoms: C_13  and  N_14 
REMARK    5  A    between atoms: N_14  and  C_15 
REMARK    6  A    between atoms: C_15  and  C_16 
ROOT
HETATM    1  C   UNL     1      40.149 -14.494   3.903  1.00  0.00     0.035 A 
HETATM    2  C   UNL     1      41.021 -15.381   4.547  1.00  0.00     0.046 A 
HETATM    3  C   UNL     1      41.385 -16.590   3.934  1.00  0.00     0.034 A 
HETATM    4  C   UNL     1      40.860 -16.900   2.669  1.00  0.00     0.017 A 
HETATM    5  C   UNL     1      39.986 -16.026   2.028  1.00  0.00     0.003 A 
HETATM    6  C   UNL     1      39.631 -14.830   2.646  1.00  0.00     0.029 A 
ENDROOT
BRANCH   1   7
HETATM    7  N   UNL     1      39.729 -13.267   4.446  1.00  0.00    -0.327 N 
HETATM    8  C   UNL     1      40.482 -12.143   4.730  1.00  0.00     0.227 C 
HETATM    9  O   UNL     1      41.693 -12.028   4.539  1.00  0.00    -0.273 OA
HETATM   10  H   UNL     1      38.722 -13.147   4.586  1.00  0.00     0.169 HD
BRANCH   8  11
HETATM   11  C   UNL     1      39.705 -11.030   5.425  1.00  0.00     0.164 C 
BRANCH  11  12
HETATM   12  C   UNL     1      39.570 -11.194   6.906  1.00  0.00     0.065 A 
HETATM   13  N   UNL     1      39.092 -12.334   7.432  1.00  0.00    -0.179 NA
HETATM   14  N   UNL     1      39.163 -12.135   8.761  1.00  0.00    -0.282 N 
HETATM   15  C   UNL     1      39.669 -10.914   9.104  1.00  0.00     0.026 A 
HETATM   16  H   UNL     1      38.856 -12.880   9.378  1.00  0.00     0.189 HD
HETATM   17  C   UNL     1      39.847 -10.492  10.512  1.00  0.00     0.070 C 
HETATM   18  C   UNL     1      39.937 -10.273   7.916  1.00  0.00     0.055 A 
ENDBRANCH  11  12
ENDBRANCH   8  11
ENDBRANCH   1   7
BRANCH   3  19
HETATM   19  C   UNL     1      42.287 -17.604   4.563  1.00  0.00     0.252 C 
HETATM   20  N   UNL     1      43.618 -17.618   4.201  1.00  0.00    -0.353 N 
HETATM   21  H   UNL     1      43.942 -17.108   3.392  1.00  0.00     0.163 HD
HETATM   22  O   UNL     1      41.826 -18.396   5.382  1.00  0.00    -0.268 OA
BRANCH  20  23
HETATM   23  C   UNL     1      44.502 -18.629   4.743  1.00  0.00     0.161 C 
BRANCH  23  24
HETATM   24  C   UNL     1      44.503 -19.911   3.949  1.00  0.00    -0.041 A 
HETATM   25  C   UNL     1      44.744 -21.153   4.557  1.00  0.00     0.009 A 
HETATM   26  C   UNL     1      44.668 -22.334   3.816  1.00  0.00     0.001 A 
HETATM   27  C   UNL     1      44.331 -22.292   2.464  1.00  0.00     0.000 A 
HETATM   28  C   UNL     1      44.071 -21.069   1.852  1.00  0.00     0.001 A 
HETATM   29  C   UNL     1      44.153 -19.885   2.590  1.00  0.00     0.009 A 
ENDBRANCH  23  24
ENDBRANCH  20  23
ENDBRANCH   3  19
TORSDOF 6
ENDMDL
MODEL 8
REMARK VINA RESULT:      -7.9      3.317      4.794
REMARK  6 active torsions:
REMARK  status: ('A' for Active; 'I' for Inactive)
REMARK    1  A    between atoms: C_6  and  C_7 
REMARK    2  A    between atoms: C_7  and  C_8 
REMARK       I    between atoms: C_8  and  N_9 
REMARK    3  A    between atoms: N_9  and  C_10 
REMARK    4  A    between atoms: C_12  and  C_13 
REMARK       I    between atoms: C_13  and  N_14 
REMARK    5  A    between atoms: N_14  and  C_15 
REMARK    6  A    between atoms: C_15  and  C_16 
ROOT
HETATM    1  C   UNL     1      43.878 -15.186   7.035  1.00  0.00     0.035 A 
HETATM    2  C   UNL     1      43.582 -15.122   5.667  1.00  0.00     0.046 A 
HETATM    3  C   UNL     1      43.045 -16.237   5.004  1.00  0.00     0.034 A 
HETATM    4  C   UNL     1      42.813 -17.416   5.729  1.00  0.00     0.017 A 
HETATM    5  C   UNL     1      43.114 -17.488   7.086  1.00  0.00     0.003 A 
HETATM    6  C   UNL     1      43.647 -16.378   7.734  1.00  0.00     0.029 A 
ENDROOT
BRANCH   1   7
HETATM    7  N   UNL     1      44.421 -14.120   7.775  1.00  0.00    -0.327 N 
HETATM    8  C   UNL     1      45.496 -13.310   7.463  1.00  0.00     0.227 C 
HETATM    9  O   UNL     1      46.176 -13.389   6.441  1.00  0.00    -0.273 OA
HETATM   10  H   UNL     1      43.919 -13.848   8.624  1.00  0.00     0.169 HD
BRANCH   8  11
HETATM   11  C   UNL     1      45.875 -12.324   8.564  1.00  0.00     0.164 C 
BRANCH  11  12
HETATM   12  C   UNL     1      44.736 -11.891   9.432  1.00  0.00     0.065 A 
HETATM   13  N   UNL     1      43.640 -11.325   8.899  1.00  0.00    -0.179 NA
HETATM   14  N   UNL     1      42.832 -11.120   9.955  1.00  0.00    -0.282 N 
HETATM   15  C   UNL     1      43.367 -11.535  11.141  1.00  0.00     0.026 A 
HETATM   16  H   UNL     1      41.922 -10.700   9.793  1.00  0.00     0.189 HD
HETATM   17  C   UNL     1      42.643 -11.416  12.427  1.00  0.00     0.070 C 
HETATM   18  C   UNL     1      44.612 -12.035  10.834  1.00  0.00     0.055 A 
ENDBRANCH  11  12
ENDBRANCH   8  11
ENDBRANCH   1   7
BRANCH   3  19
HETATM   19  C   UNL     1      42.726 -16.262   3.543  1.00  0.00     0.252 C 
HETATM   20  N   UNL     1      41.629 -16.980   3.119  1.00  0.00    -0.353 N 
HETATM   21  H   UNL     1      41.169 -17.638   3.732  1.00  0.00     0.163 HD
HETATM   22  O   UNL     1      43.445 -15.647   2.759  1.00  0.00    -0.268 OA
BRANCH  20  23
HETATM   23  C   UNL     1      41.332 -17.078   1.705  1.00  0.00     0.161 C 
BRANCH  23  24
HETATM   24  C   UNL     1      40.534 -15.912   1.179  1.00  0.00    -0.041 A 
HETATM   25  C   UNL     1      40.857 -15.286  -0.035  1.00  0.00     0.009 A 
HETATM   26  C   UNL     1      40.060 -14.256  -0.539  1.00  0.00     0.001 A 
HETATM   27  C   UNL     1      38.921 -13.851   0.153  1.00  0.00     0.000 A 
HETATM   28  C   UNL     1      38.577 -14.475   1.349  1.00  0.00     0.001 A 
HETATM   29  C   UNL     1      39.376 -15.501   1.858  1.00  0.00     0.009 A 
ENDBRANCH  23  24
ENDBRANCH  20  23
ENDBRANCH   3  19
TORSDOF 6
ENDMDL
MODEL 9
REMARK VINA RESULT:      -7.6      2.299      9.935
REMARK  6 active torsions:
REMARK  status: ('A' for Active; 'I' for Inactive)
REMARK    1  A    between atoms: C_6  and  C_7 
REMARK    2  A    between atoms: C_7  and  C_8 
REMARK       I    between atoms: C_8  and  N_9 
REMARK    3  A    between atoms: N_9  and  C_10 
REMARK    4  A    between atoms: C_12  and  C_13 
REMARK       I    between atoms: C_13  and  N_14 
REMARK    5  A    between atoms: N_14  and  C_15 
REMARK    6  A    between atoms: C_15  and  C_16 
ROOT
HETATM    1  C   UNL     1      43.219 -16.680   5.459  1.00  0.00     0.035 A 
HETATM    2  C   UNL     1      43.889 -15.491   5.772  1.00  0.00     0.046 A 
HETATM    3  C   UNL     1      44.121 -15.136   7.110  1.00  0.00     0.034 A 
HETATM    4  C   UNL     1      43.666 -15.987   8.130  1.00  0.00     0.017 A 
HETATM    5  C   UNL     1      42.990 -17.165   7.826  1.00  0.00     0.003 A 
HETATM    6  C   UNL     1      42.766 -17.507   6.495  1.00  0.00     0.029 A 
ENDROOT
BRANCH   1   7
HETATM    7  N   UNL     1      42.942 -17.108   4.149  1.00  0.00    -0.327 N 
HETATM    8  C   UNL     1      41.832 -16.846   3.369  1.00  0.00     0.227 C 
HETATM    9  O   UNL     1      40.867 -16.160   3.709  1.00  0.00    -0.273 OA
HETATM   10  H   UNL     1      43.685 -17.621   3.667  1.00  0.00     0.169 HD
BRANCH   8  11
HETATM   11  C   UNL     1      41.822 -17.576   2.031  1.00  0.00     0.164 C 
BRANCH  11  12
HETATM   12  C   UNL     1      42.791 -18.711   1.932  1.00  0.00     0.065 A 
HETATM   13  N   UNL     1      44.116 -18.486   1.909  1.00  0.00    -0.179 NA
HETATM   14  N   UNL     1      44.656 -19.717   1.867  1.00  0.00    -0.282 N 
HETATM   15  C   UNL     1      43.730 -20.721   1.864  1.00  0.00     0.026 A 
HETATM   16  H   UNL     1      45.668 -19.801   1.850  1.00  0.00     0.189 HD
HETATM   17  C   UNL     1      44.105 -22.152   1.835  1.00  0.00     0.070 C 
HETATM   18  C   UNL     1      42.504 -20.096   1.899  1.00  0.00     0.055 A 
ENDBRANCH  11  12
ENDBRANCH   8  11
ENDBRANCH   1   7
BRANCH   3  19
HETATM   19  C   UNL     1      44.804 -13.874   7.530  1.00  0.00     0.252 C 
HETATM   20  N   UNL     1      44.243 -13.125   8.543  1.00  0.00    -0.353 N 
HETATM   21  H   UNL     1      43.299 -13.300   8.858  1.00  0.00     0.163 HD
HETATM   22  O   UNL     1      45.842 -13.534   6.967  1.00  0.00    -0.268 OA
BRANCH  20  23
HETATM   23  C   UNL     1      44.844 -11.865   8.928  1.00  0.00     0.161 C 
BRANCH  23  24
HETATM   24  C   UNL     1      44.041 -11.107   9.955  1.00  0.00    -0.041 A 
HETATM   25  C   UNL     1      44.525 -10.891  11.255  1.00  0.00     0.009 A 
HETATM   26  C   UNL     1      43.796 -10.124  12.166  1.00  0.00     0.001 A 
HETATM   27  C   UNL     1      42.586  -9.548  11.786  1.00  0.00     0.000 A 
HETATM   28  C   UNL     1      42.103  -9.737  10.494  1.00  0.00     0.001 A 
HETATM   29  C   UNL     1      42.827 -10.509   9.582  1.00  0.00     0.009 A 
ENDBRANCH  23  24
ENDBRANCH  20  23
ENDBRANCH   3  19
TORSDOF 6
ENDMDL
MODEL 10
REMARK VINA RESULT:      -7.6      5.687      9.394
REMARK  6 active torsions:
REMARK  status: ('A' for Active; 'I' for Inactive)
REMARK    1  A    between atoms: C_6  and  C_7 
REMARK    2  A    between atoms: C_7  and  C_8 
REMARK       I    between atoms: C_8  and  N_9 
REMARK    3  A    between atoms: N_9  and  C_10 
REMARK    4  A    between atoms: C_12  and  C_13 
REMARK       I    between atoms: C_13  and  N_14 
REMARK    5  A    between atoms: N_14  and  C_15 
REMARK    6  A    between atoms: C_15  and  C_16 
ROOT
HETATM    1  C   UNL     1      41.563 -15.403   3.895  1.00  0.00     0.035 A 
HETATM    2  C   UNL     1      40.929 -15.199   2.663  1.00  0.00     0.046 A 
HETATM    3  C   UNL     1      39.842 -14.316   2.562  1.00  0.00     0.034 A 
HETATM    4  C   UNL     1      39.397 -13.646   3.712  1.00  0.00     0.017 A 
HETATM    5  C   UNL     1      40.017 -13.853   4.941  1.00  0.00     0.003 A 
HETATM    6  C   UNL     1      41.094 -14.730   5.030  1.00  0.00     0.029 A 
ENDROOT
BRANCH   1   7
HETATM    7  N   UNL     1      42.653 -16.271   4.087  1.00  0.00    -0.327 N 
HETATM    8  C   UNL     1      42.660 -17.549   4.611  1.00  0.00     0.227 C 
HETATM    9  O   UNL     1      41.669 -18.163   5.007  1.00  0.00    -0.273 OA
HETATM   10  H   UNL     1      43.558 -15.957   3.725  1.00  0.00     0.169 HD
BRANCH   8  11
HETATM   11  C   UNL     1      44.052 -18.149   4.775  1.00  0.00     0.164 C 
BRANCH  11  12
HETATM   12  C   UNL     1      44.258 -19.452   4.069  1.00  0.00     0.065 A 
HETATM   13  N   UNL     1      44.761 -20.516   4.718  1.00  0.00    -0.179 NA
HETATM   14  N   UNL     1      44.754 -21.495   3.795  1.00  0.00    -0.282 N 
HETATM   15  C   UNL     1      44.263 -21.100   2.584  1.00  0.00     0.026 A 
HETATM   16  H   UNL     1      45.090 -22.414   4.064  1.00  0.00     0.189 HD
HETATM   17  C   UNL     1      44.152 -22.021   1.430  1.00  0.00     0.070 C 
HETATM   18  C   UNL     1      43.938 -19.771   2.728  1.00  0.00     0.055 A 
ENDBRANCH  11  12
ENDBRANCH   8  11
ENDBRANCH   1   7
BRANCH   3  19
HETATM   19  C   UNL     1      39.093 -14.062   1.292  1.00  0.00     0.252 C 
HETATM   20  N   UNL     1      39.743 -13.418   0.260  1.00  0.00    -0.353 N 
HETATM   21  H   UNL     1      40.623 -12.947   0.413  1.00  0.00     0.163 HD
HETATM   22  O   UNL     1      37.924 -14.428   1.198  1.00  0.00    -0.268 OA
BRANCH  20  23
HETATM   23  C   UNL     1      39.025 -13.099  -0.957  1.00  0.00     0.161 C 
BRANCH  23  24
HETATM   24  C   UNL     1      39.069 -14.201  -1.985  1.00  0.00    -0.041 A 
HETATM   25  C   UNL     1      37.976 -14.470  -2.823  1.00  0.00     0.009 A 
HETATM   26  C   UNL     1      38.066 -15.447  -3.817  1.00  0.00     0.001 A 
HETATM   27  C   UNL     1      39.253 -16.152  -3.999  1.00  0.00     0.000 A 
HETATM   28  C   UNL     1      40.352 -15.883  -3.188  1.00  0.00     0.001 A 
HETATM   29  C   UNL     1      40.263 -14.911  -2.189  1.00  0.00     0.009 A 
ENDBRANCH  23  24
ENDBRANCH  20  23
ENDBRANCH   3  19
TORSDOF 6
ENDMDL
