MODEL 1
REMARK VINA RESULT:      -9.1      0.000      0.000
REMARK  6 active torsions:
REMARK  status: ('A' for Active; 'I' for Inactive)
REMARK    1  A    between atoms: O_2  and  C_3 
REMARK    2  A    between atoms: C_3  and  C_4 
REMARK    3  A    between atoms: C_11  and  C_12 
REMARK    4  A    between atoms: C_12  and  S_13 
REMARK    5  A    between atoms: S_13  and  C_14 
REMARK    6  A    between atoms: C_16  and  C_17 
ROOT
HETATM    1  C   UNL     1      44.202 -14.555   6.604  1.00  0.00     0.041 A 
HETATM    2  C   UNL     1      43.433 -14.176   5.491  1.00  0.00     0.050 A 
HETATM    3  C   UNL     1      42.486 -15.051   4.951  1.00  0.00     0.075 A 
HETATM    4  C   UNL     1      42.317 -16.306   5.541  1.00  0.00     0.061 A 
HETATM    5  C   UNL     1      41.336 -17.217   4.928  1.00  0.00     0.259 A 
HETATM    6  O   UNL     1      41.128 -18.344   5.361  1.00  0.00    -0.267 OA
HETATM    7  N   UNL     1      40.680 -16.722   3.833  1.00  0.00    -0.310 N 
HETATM    8  C   UNL     1      40.923 -15.483   3.297  1.00  0.00     0.117 A 
HETATM    9  N   UNL     1      41.759 -14.641   3.819  1.00  0.00    -0.234 NA
HETATM   10  C   UNL     1      43.066 -16.699   6.652  1.00  0.00     0.020 A 
HETATM   11  C   UNL     1      44.010 -15.819   7.183  1.00  0.00     0.019 A 
HETATM   12  H   UNL     1      40.093 -17.385   3.344  1.00  0.00     0.170 HD
ENDROOT
BRANCH   8  13
HETATM   13  C   UNL     1      40.123 -15.138   2.057  1.00  0.00     0.161 C 
BRANCH  13  14
HETATM   14  S   UNL     1      40.983 -15.642   0.543  1.00  0.00    -0.083 SA
BRANCH  14  15
HETATM   15  C   UNL     1      42.218 -16.666   1.159  1.00  0.00     0.185 A 
HETATM   16  N   UNL     1      42.179 -17.950   1.404  1.00  0.00    -0.201 NA
HETATM   17  C   UNL     1      43.418 -18.197   1.972  1.00  0.00     0.182 A 
HETATM   18  N   UNL     1      44.217 -17.116   2.024  1.00  0.00    -0.152 NA
HETATM   19  N   UNL     1      43.428 -16.162   1.507  1.00  0.00    -0.253 N 
HETATM   20  H   UNL     1      43.759 -15.208   1.443  1.00  0.00     0.191 HD
BRANCH  17  21
HETATM   21  C   UNL     1      43.792 -19.508   2.500  1.00  0.00     0.013 A 
HETATM   22  C   UNL     1      44.320 -19.633   3.792  1.00  0.00     0.015 A 
HETATM   23  C   UNL     1      44.710 -20.880   4.287  1.00  0.00     0.001 A 
HETATM   24  C   UNL     1      44.572 -22.018   3.497  1.00  0.00     0.000 A 
HETATM   25  C   UNL     1      44.044 -21.913   2.212  1.00  0.00     0.001 A 
HETATM   26  C   UNL     1      43.657 -20.664   1.716  1.00  0.00     0.015 A 
ENDBRANCH  17  21
ENDBRANCH  14  15
ENDBRANCH  13  14
ENDBRANCH   8  13
BRANCH   1  27
HETATM   27  C   UNL     1      45.237 -13.665   7.196  1.00  0.00     0.293 C 
HETATM   28  O   UNL     1      46.191 -13.235   6.567  1.00  0.00    -0.259 OA
BRANCH  27  29
HETATM   29  O   UNL     1      44.965 -13.409   8.499  1.00  0.00    -0.323 OA
HETATM   30  C   UNL     1      45.440 -12.141   8.953  1.00  0.00     0.213 C 
ENDBRANCH  27  29
ENDBRANCH   1  27
TORSDOF 6
ENDMDL
MODEL 2
REMARK VINA RESULT:      -8.4      1.627      3.204
REMARK  6 active torsions:
REMARK  status: ('A' for Active; 'I' for Inactive)
REMARK    1  A    between atoms: O_2  and  C_3 
REMARK    2  A    between atoms: C_3  and  C_4 
REMARK    3  A    between atoms: C_11  and  C_12 
REMARK    4  A    between atoms: C_12  and  S_13 
REMARK    5  A    between atoms: S_13  and  C_14 
REMARK    6  A    between atoms: C_16  and  C_17 
ROOT
HETATM    1  C   UNL     1      43.638 -17.618   6.791  1.00  0.00     0.041 A 
HETATM    2  C   UNL     1      42.707 -17.652   5.740  1.00  0.00     0.050 A 
HETATM    3  C   UNL     1      42.422 -16.497   5.006  1.00  0.00     0.075 A 
HETATM    4  C   UNL     1      43.083 -15.311   5.336  1.00  0.00     0.061 A 
HETATM    5  C   UNL     1      42.737 -14.105   4.566  1.00  0.00     0.259 A 
HETATM    6  O   UNL     1      43.249 -13.015   4.790  1.00  0.00    -0.267 OA
HETATM    7  N   UNL     1      41.794 -14.283   3.589  1.00  0.00    -0.310 N 
HETATM    8  C   UNL     1      41.169 -15.480   3.344  1.00  0.00     0.117 A 
HETATM    9  N   UNL     1      41.463 -16.571   3.981  1.00  0.00    -0.234 NA
HETATM   10  C   UNL     1      44.018 -15.259   6.372  1.00  0.00     0.020 A 
HETATM   11  C   UNL     1      44.294 -16.417   7.100  1.00  0.00     0.019 A 
HETATM   12  H   UNL     1      41.472 -13.436   3.139  1.00  0.00     0.170 HD
ENDROOT
BRANCH   8  13
HETATM   13  C   UNL     1      40.124 -15.459   2.248  1.00  0.00     0.161 C 
BRANCH  13  14
HETATM   14  S   UNL     1      40.848 -15.821   0.625  1.00  0.00    -0.083 SA
BRANCH  14  15
HETATM   15  C   UNL     1      42.127 -16.892   1.036  1.00  0.00     0.185 A 
HETATM   16  N   UNL     1      42.066 -18.146   1.404  1.00  0.00    -0.201 NA
HETATM   17  C   UNL     1      43.386 -18.450   1.694  1.00  0.00     0.182 A 
HETATM   18  N   UNL     1      44.240 -17.438   1.461  1.00  0.00    -0.152 NA
HETATM   19  N   UNL     1      43.413 -16.464   1.050  1.00  0.00    -0.253 N 
HETATM   20  H   UNL     1      43.779 -15.548   0.823  1.00  0.00     0.191 HD
BRANCH  17  21
HETATM   21  C   UNL     1      43.791 -19.743   2.244  1.00  0.00     0.013 A 
HETATM   22  C   UNL     1      44.483 -19.816   3.460  1.00  0.00     0.015 A 
HETATM   23  C   UNL     1      44.902 -21.047   3.971  1.00  0.00     0.001 A 
HETATM   24  C   UNL     1      44.628 -22.221   3.275  1.00  0.00     0.000 A 
HETATM   25  C   UNL     1      43.935 -22.167   2.067  1.00  0.00     0.001 A 
HETATM   26  C   UNL     1      43.520 -20.934   1.554  1.00  0.00     0.015 A 
ENDBRANCH  17  21
ENDBRANCH  14  15
ENDBRANCH  13  14
ENDBRANCH   8  13
BRANCH   1  27
HETATM   27  C   UNL     1      43.953 -18.818   7.613  1.00  0.00     0.293 C 
HETATM   28  O   UNL     1      44.331 -18.757   8.772  1.00  0.00    -0.259 OA
BRANCH  27  29
HETATM   29  O   UNL     1      43.758 -19.955   6.901  1.00  0.00    -0.323 OA
HETATM   30  C   UNL     1      43.514 -21.109   7.706  1.00  0.00     0.213 C 
ENDBRANCH  27  29
ENDBRANCH   1  27
TORSDOF 6
ENDMDL
MODEL 3
REMARK VINA RESULT:      -8.3      3.871      8.832
REMARK  6 active torsions:
REMARK  status: ('A' for Active; 'I' for Inactive)
REMARK    1  A    between atoms: O_2  and  C_3 
REMARK    2  A    between atoms: C_3  and  C_4 
REMARK    3  A    between atoms: C_11  and  C_12 
REMARK    4  A    between atoms: C_12  and  S_13 
REMARK    5  A    between atoms: S_13  and  C_14 
REMARK    6  A    between atoms: C_16  and  C_17 
ROOT
HETATM    1  C   UNL     1      43.802 -19.216   3.321  1.00  0.00     0.041 A 
HETATM    2  C   UNL     1      44.072 -18.258   4.311  1.00  0.00     0.050 A 
HETATM    3  C   UNL     1      43.432 -17.015   4.290  1.00  0.00     0.075 A 
HETATM    4  C   UNL     1      42.516 -16.748   3.269  1.00  0.00     0.061 A 
HETATM    5  C   UNL     1      41.883 -15.419   3.256  1.00  0.00     0.259 A 
HETATM    6  O   UNL     1      41.081 -15.084   2.393  1.00  0.00    -0.267 OA
HETATM    7  N   UNL     1      42.262 -14.579   4.268  1.00  0.00    -0.310 N 
HETATM    8  C   UNL     1      43.191 -14.908   5.222  1.00  0.00     0.117 A 
HETATM    9  N   UNL     1      43.753 -16.075   5.285  1.00  0.00    -0.234 NA
HETATM   10  C   UNL     1      42.229 -17.691   2.279  1.00  0.00     0.020 A 
HETATM   11  C   UNL     1      42.875 -18.927   2.308  1.00  0.00     0.019 A 
HETATM   12  H   UNL     1      41.918 -13.631   4.196  1.00  0.00     0.170 HD
ENDROOT
BRANCH   8  13
HETATM   13  C   UNL     1      43.504 -13.824   6.233  1.00  0.00     0.161 C 
BRANCH  13  14
HETATM   14  S   UNL     1      45.182 -13.993   6.899  1.00  0.00    -0.083 SA
BRANCH  14  15
HETATM   15  C   UNL     1      45.162 -12.875   8.204  1.00  0.00     0.185 A 
HETATM   16  N   UNL     1      44.349 -12.816   9.226  1.00  0.00    -0.201 NA
HETATM   17  C   UNL     1      44.754 -11.663   9.880  1.00  0.00     0.182 A 
HETATM   18  N   UNL     1      45.815 -11.062   9.313  1.00  0.00    -0.152 NA
HETATM   19  N   UNL     1      46.047 -11.849   8.252  1.00  0.00    -0.253 N 
HETATM   20  H   UNL     1      46.791 -11.623   7.604  1.00  0.00     0.191 HD
BRANCH  17  21
HETATM   21  C   UNL     1      44.054 -11.139  11.052  1.00  0.00     0.013 A 
HETATM   22  C   UNL     1      43.510 -12.009  12.007  1.00  0.00     0.015 A 
HETATM   23  C   UNL     1      42.811 -11.512  13.110  1.00  0.00     0.001 A 
HETATM   24  C   UNL     1      42.652 -10.139  13.275  1.00  0.00     0.000 A 
HETATM   25  C   UNL     1      43.192  -9.260  12.338  1.00  0.00     0.001 A 
HETATM   26  C   UNL     1      43.888  -9.757  11.232  1.00  0.00     0.015 A 
ENDBRANCH  17  21
ENDBRANCH  14  15
ENDBRANCH  13  14
ENDBRANCH   8  13
BRANCH   1  27
HETATM   27  C   UNL     1      44.480 -20.541   3.291  1.00  0.00     0.293 C 
HETATM   28  O   UNL     1      44.525 -21.249   2.298  1.00  0.00    -0.259 OA
BRANCH  27  29
HETATM   29  O   UNL     1      45.025 -20.830   4.498  1.00  0.00    -0.323 OA
HETATM   30  C   UNL     1      44.916 -22.205   4.869  1.00  0.00     0.213 C 
ENDBRANCH  27  29
ENDBRANCH   1  27
TORSDOF 6
ENDMDL
MODEL 4
REMARK VINA RESULT:      -8.2      4.392      9.557
REMARK  6 active torsions:
REMARK  status: ('A' for Active; 'I' for Inactive)
REMARK    1  A    between atoms: O_2  and  C_3 
REMARK    2  A    between atoms: C_3  and  C_4 
REMARK    3  A    between atoms: C_11  and  C_12 
REMARK    4  A    between atoms: C_12  and  S_13 
REMARK    5  A    between atoms: S_13  and  C_14 
REMARK    6  A    between atoms: C_16  and  C_17 
ROOT
HETATM    1  C   UNL     1      43.702 -18.874   3.914  1.00  0.00     0.041 A 
HETATM    2  C   UNL     1      43.783 -17.478   4.049  1.00  0.00     0.050 A 
HETATM    3  C   UNL     1      43.758 -16.884   5.314  1.00  0.00     0.075 A 
HETATM    4  C   UNL     1      43.654 -17.705   6.440  1.00  0.00     0.061 A 
HETATM    5  C   UNL     1      43.597 -17.048   7.756  1.00  0.00     0.259 A 
HETATM    6  O   UNL     1      43.489 -17.680   8.800  1.00  0.00    -0.267 OA
HETATM    7  N   UNL     1      43.660 -15.680   7.733  1.00  0.00    -0.310 N 
HETATM    8  C   UNL     1      43.736 -14.943   6.578  1.00  0.00     0.117 A 
HETATM    9  N   UNL     1      43.814 -15.482   5.401  1.00  0.00    -0.234 NA
HETATM   10  C   UNL     1      43.579 -19.095   6.327  1.00  0.00     0.020 A 
HETATM   11  C   UNL     1      43.604 -19.678   5.059  1.00  0.00     0.019 A 
HETATM   12  H   UNL     1      43.506 -15.225   8.622  1.00  0.00     0.170 HD
ENDROOT
BRANCH   8  13
HETATM   13  C   UNL     1      43.754 -13.439   6.763  1.00  0.00     0.161 C 
BRANCH  13  14
HETATM   14  S   UNL     1      44.976 -12.932   8.002  1.00  0.00    -0.083 SA
BRANCH  14  15
HETATM   15  C   UNL     1      44.052 -11.889   9.008  1.00  0.00     0.185 A 
HETATM   16  N   UNL     1      44.317 -11.461  10.216  1.00  0.00    -0.201 NA
HETATM   17  C   UNL     1      43.179 -10.743  10.548  1.00  0.00     0.182 A 
HETATM   18  N   UNL     1      42.268 -10.683   9.561  1.00  0.00    -0.152 NA
HETATM   19  N   UNL     1      42.846 -11.422   8.602  1.00  0.00    -0.253 N 
HETATM   20  H   UNL     1      42.367 -11.583   7.725  1.00  0.00     0.191 HD
BRANCH  17  21
HETATM   21  C   UNL     1      42.985 -10.149  11.869  1.00  0.00     0.013 A 
HETATM   22  C   UNL     1      42.757 -10.960  12.990  1.00  0.00     0.015 A 
HETATM   23  C   UNL     1      42.536 -10.394  14.248  1.00  0.00     0.001 A 
HETATM   24  C   UNL     1      42.546  -9.010  14.402  1.00  0.00     0.000 A 
HETATM   25  C   UNL     1      42.777  -8.190  13.300  1.00  0.00     0.001 A 
HETATM   26  C   UNL     1      42.994  -8.756  12.040  1.00  0.00     0.015 A 
ENDBRANCH  17  21
ENDBRANCH  14  15
ENDBRANCH  13  14
ENDBRANCH   8  13
BRANCH   1  27
HETATM   27  C   UNL     1      43.701 -19.545   2.586  1.00  0.00     0.293 C 
HETATM   28  O   UNL     1      43.197 -19.056   1.588  1.00  0.00    -0.259 OA
BRANCH  27  29
HETATM   29  O   UNL     1      44.328 -20.744   2.652  1.00  0.00    -0.323 OA
HETATM   30  C   UNL     1      43.811 -21.721   1.748  1.00  0.00     0.213 C 
ENDBRANCH  27  29
ENDBRANCH   1  27
TORSDOF 6
ENDMDL
MODEL 5
REMARK VINA RESULT:      -8.1      3.147      6.431
REMARK  6 active torsions:
REMARK  status: ('A' for Active; 'I' for Inactive)
REMARK    1  A    between atoms: O_2  and  C_3 
REMARK    2  A    between atoms: C_3  and  C_4 
REMARK    3  A    between atoms: C_11  and  C_12 
REMARK    4  A    between atoms: C_12  and  S_13 
REMARK    5  A    between atoms: S_13  and  C_14 
REMARK    6  A    between atoms: C_16  and  C_17 
ROOT
HETATM    1  C   UNL     1      44.316 -20.147   4.850  1.00  0.00     0.041 A 
HETATM    2  C   UNL     1      44.120 -18.837   4.385  1.00  0.00     0.050 A 
HETATM    3  C   UNL     1      43.835 -17.801   5.279  1.00  0.00     0.075 A 
HETATM    4  C   UNL     1      43.751 -18.094   6.643  1.00  0.00     0.061 A 
HETATM    5  C   UNL     1      43.416 -16.988   7.555  1.00  0.00     0.259 A 
HETATM    6  O   UNL     1      43.304 -17.147   8.764  1.00  0.00    -0.267 OA
HETATM    7  N   UNL     1      43.227 -15.771   6.957  1.00  0.00    -0.310 N 
HETATM    8  C   UNL     1      43.302 -15.570   5.602  1.00  0.00     0.117 A 
HETATM    9  N   UNL     1      43.619 -16.509   4.767  1.00  0.00    -0.234 NA
HETATM   10  C   UNL     1      43.950 -19.389   7.126  1.00  0.00     0.020 A 
HETATM   11  C   UNL     1      44.233 -20.416   6.224  1.00  0.00     0.019 A 
HETATM   12  H   UNL     1      42.886 -15.039   7.565  1.00  0.00     0.170 HD
ENDROOT
BRANCH   8  13
HETATM   13  C   UNL     1      43.018 -14.157   5.134  1.00  0.00     0.161 C 
BRANCH  13  14
HETATM   14  S   UNL     1      41.314 -13.977   4.542  1.00  0.00    -0.083 SA
BRANCH  14  15
HETATM   15  C   UNL     1      41.552 -13.597   2.883  1.00  0.00     0.185 A 
HETATM   16  N   UNL     1      41.160 -14.254   1.822  1.00  0.00    -0.201 NA
HETATM   17  C   UNL     1      41.719 -13.530   0.781  1.00  0.00     0.182 A 
HETATM   18  N   UNL     1      42.385 -12.432   1.181  1.00  0.00    -0.152 NA
HETATM   19  N   UNL     1      42.266 -12.505   2.516  1.00  0.00    -0.253 N 
HETATM   20  H   UNL     1      42.704 -11.808   3.104  1.00  0.00     0.191 HD
BRANCH  17  21
HETATM   21  C   UNL     1      41.620 -13.956  -0.613  1.00  0.00     0.013 A 
HETATM   22  C   UNL     1      42.051 -13.116  -1.649  1.00  0.00     0.015 A 
HETATM   23  C   UNL     1      41.926 -13.506  -2.984  1.00  0.00     0.001 A 
HETATM   24  C   UNL     1      41.375 -14.744  -3.301  1.00  0.00     0.000 A 
HETATM   25  C   UNL     1      40.947 -15.595  -2.284  1.00  0.00     0.001 A 
HETATM   26  C   UNL     1      41.068 -15.203  -0.947  1.00  0.00     0.015 A 
ENDBRANCH  17  21
ENDBRANCH  14  15
ENDBRANCH  13  14
ENDBRANCH   8  13
BRANCH   1  27
HETATM   27  C   UNL     1      44.598 -21.283   3.931  1.00  0.00     0.293 C 
HETATM   28  O   UNL     1      44.710 -22.439   4.308  1.00  0.00    -0.259 OA
BRANCH  27  29
HETATM   29  O   UNL     1      44.703 -20.852   2.650  1.00  0.00    -0.323 OA
HETATM   30  C   UNL     1      43.957 -21.630   1.713  1.00  0.00     0.213 C 
ENDBRANCH  27  29
ENDBRANCH   1  27
TORSDOF 6
ENDMDL
MODEL 6
REMARK VINA RESULT:      -8.0      4.916      6.598
REMARK  6 active torsions:
REMARK  status: ('A' for Active; 'I' for Inactive)
REMARK    1  A    between atoms: O_2  and  C_3 
REMARK    2  A    between atoms: C_3  and  C_4 
REMARK    3  A    between atoms: C_11  and  C_12 
REMARK    4  A    between atoms: C_12  and  S_13 
REMARK    5  A    between atoms: S_13  and  C_14 
REMARK    6  A    between atoms: C_16  and  C_17 
ROOT
HETATM    1  C   UNL     1      42.480 -11.103  -2.328  1.00  0.00     0.041 A 
HETATM    2  C   UNL     1      42.120 -11.746  -1.133  1.00  0.00     0.050 A 
HETATM    3  C   UNL     1      41.678 -13.073  -1.145  1.00  0.00     0.075 A 
HETATM    4  C   UNL     1      41.606 -13.745  -2.367  1.00  0.00     0.061 A 
HETATM    5  C   UNL     1      41.106 -15.130  -2.351  1.00  0.00     0.259 A 
HETATM    6  O   UNL     1      40.989 -15.797  -3.372  1.00  0.00    -0.267 OA
HETATM    7  N   UNL     1      40.768 -15.618  -1.117  1.00  0.00    -0.310 N 
HETATM    8  C   UNL     1      40.843 -14.881   0.038  1.00  0.00     0.117 A 
HETATM    9  N   UNL     1      41.302 -13.669   0.072  1.00  0.00    -0.234 NA
HETATM   10  C   UNL     1      41.966 -13.126  -3.566  1.00  0.00     0.020 A 
HETATM   11  C   UNL     1      42.403 -11.801  -3.543  1.00  0.00     0.019 A 
HETATM   12  H   UNL     1      40.318 -16.523  -1.117  1.00  0.00     0.170 HD
ENDROOT
BRANCH   8  13
HETATM   13  C   UNL     1      40.383 -15.588   1.296  1.00  0.00     0.161 C 
BRANCH  13  14
HETATM   14  S   UNL     1      41.223 -14.947   2.770  1.00  0.00    -0.083 SA
BRANCH  14  15
HETATM   15  C   UNL     1      42.274 -16.246   3.174  1.00  0.00     0.185 A 
HETATM   16  N   UNL     1      42.438 -17.393   2.568  1.00  0.00    -0.201 NA
HETATM   17  C   UNL     1      43.329 -18.058   3.394  1.00  0.00     0.182 A 
HETATM   18  N   UNL     1      43.745 -17.327   4.444  1.00  0.00    -0.152 NA
HETATM   19  N   UNL     1      43.055 -16.187   4.280  1.00  0.00    -0.253 N 
HETATM   20  H   UNL     1      43.144 -15.438   4.955  1.00  0.00     0.191 HD
BRANCH  17  21
HETATM   21  C   UNL     1      43.737 -19.441   3.156  1.00  0.00     0.013 A 
HETATM   22  C   UNL     1      43.352 -20.108   1.985  1.00  0.00     0.015 A 
HETATM   23  C   UNL     1      43.710 -21.441   1.771  1.00  0.00     0.001 A 
HETATM   24  C   UNL     1      44.465 -22.122   2.722  1.00  0.00     0.000 A 
HETATM   25  C   UNL     1      44.862 -21.473   3.889  1.00  0.00     0.001 A 
HETATM   26  C   UNL     1      44.499 -20.140   4.106  1.00  0.00     0.015 A 
ENDBRANCH  17  21
ENDBRANCH  14  15
ENDBRANCH  13  14
ENDBRANCH   8  13
BRANCH   1  27
HETATM   27  C   UNL     1      42.931  -9.686  -2.363  1.00  0.00     0.293 C 
HETATM   28  O   UNL     1      42.392  -8.827  -3.042  1.00  0.00    -0.259 OA
BRANCH  27  29
HETATM   29  O   UNL     1      43.997  -9.499  -1.547  1.00  0.00    -0.323 OA
HETATM   30  C   UNL     1      43.873  -8.372  -0.678  1.00  0.00     0.213 C 
ENDBRANCH  27  29
ENDBRANCH   1  27
TORSDOF 6
ENDMDL
MODEL 7
REMARK VINA RESULT:      -8.0      2.805      6.331
REMARK  6 active torsions:
REMARK  status: ('A' for Active; 'I' for Inactive)
REMARK    1  A    between atoms: O_2  and  C_3 
REMARK    2  A    between atoms: C_3  and  C_4 
REMARK    3  A    between atoms: C_11  and  C_12 
REMARK    4  A    between atoms: C_12  and  S_13 
REMARK    5  A    between atoms: S_13  and  C_14 
REMARK    6  A    between atoms: C_16  and  C_17 
ROOT
HETATM    1  C   UNL     1      44.196 -19.816   4.759  1.00  0.00     0.041 A 
HETATM    2  C   UNL     1      43.829 -18.532   4.325  1.00  0.00     0.050 A 
HETATM    3  C   UNL     1      43.579 -17.513   5.249  1.00  0.00     0.075 A 
HETATM    4  C   UNL     1      43.704 -17.797   6.611  1.00  0.00     0.061 A 
HETATM    5  C   UNL     1      43.402 -16.713   7.560  1.00  0.00     0.259 A 
HETATM    6  O   UNL     1      43.466 -16.867   8.774  1.00  0.00    -0.267 OA
HETATM    7  N   UNL     1      43.031 -15.522   6.993  1.00  0.00    -0.310 N 
HETATM    8  C   UNL     1      42.906 -15.332   5.640  1.00  0.00     0.117 A 
HETATM    9  N   UNL     1      43.187 -16.251   4.770  1.00  0.00    -0.234 NA
HETATM   10  C   UNL     1      44.075 -19.065   7.064  1.00  0.00     0.020 A 
HETATM   11  C   UNL     1      44.321 -20.075   6.133  1.00  0.00     0.019 A 
HETATM   12  H   UNL     1      42.713 -14.815   7.642  1.00  0.00     0.170 HD
ENDROOT
BRANCH   8  13
HETATM   13  C   UNL     1      42.444 -13.953   5.215  1.00  0.00     0.161 C 
BRANCH  13  14
HETATM   14  S   UNL     1      40.655 -13.908   4.920  1.00  0.00    -0.083 SA
BRANCH  14  15
HETATM   15  C   UNL     1      40.534 -14.613   3.357  1.00  0.00     0.185 A 
HETATM   16  N   UNL     1      40.658 -14.046   2.185  1.00  0.00    -0.201 NA
HETATM   17  C   UNL     1      40.364 -15.076   1.307  1.00  0.00     0.182 A 
HETATM   18  N   UNL     1      40.122 -16.253   1.913  1.00  0.00    -0.152 NA
HETATM   19  N   UNL     1      40.232 -15.926   3.209  1.00  0.00    -0.253 N 
HETATM   20  H   UNL     1      40.069 -16.623   3.925  1.00  0.00     0.191 HD
BRANCH  17  21
HETATM   21  C   UNL     1      40.286 -14.877  -0.139  1.00  0.00     0.013 A 
HETATM   22  C   UNL     1      39.359 -13.980  -0.687  1.00  0.00     0.015 A 
HETATM   23  C   UNL     1      39.258 -13.813  -2.070  1.00  0.00     0.001 A 
HETATM   24  C   UNL     1      40.088 -14.537  -2.923  1.00  0.00     0.000 A 
HETATM   25  C   UNL     1      41.019 -15.428  -2.395  1.00  0.00     0.001 A 
HETATM   26  C   UNL     1      41.117 -15.599  -1.010  1.00  0.00     0.015 A 
ENDBRANCH  17  21
ENDBRANCH  14  15
ENDBRANCH  13  14
ENDBRANCH   8  13
BRANCH   1  27
HETATM   27  C   UNL     1      44.448 -20.934   3.811  1.00  0.00     0.293 C 
HETATM   28  O   UNL     1      44.843 -22.035   4.162  1.00  0.00    -0.259 OA
BRANCH  27  29
HETATM   29  O   UNL     1      44.175 -20.557   2.538  1.00  0.00    -0.323 OA
HETATM   30  C   UNL     1      44.045 -21.648   1.625  1.00  0.00     0.213 C 
ENDBRANCH  27  29
ENDBRANCH   1  27
TORSDOF 6
ENDMDL
MODEL 8
REMARK VINA RESULT:      -7.9      3.590      5.158
REMARK  6 active torsions:
REMARK  status: ('A' for Active; 'I' for Inactive)
REMARK    1  A    between atoms: O_2  and  C_3 
REMARK    2  A    between atoms: C_3  and  C_4 
REMARK    3  A    between atoms: C_11  and  C_12 
REMARK    4  A    between atoms: C_12  and  S_13 
REMARK    5  A    between atoms: S_13  and  C_14 
REMARK    6  A    between atoms: C_16  and  C_17 
ROOT
HETATM    1  C   UNL     1      41.923 -12.934   0.254  1.00  0.00     0.041 A 
HETATM    2  C   UNL     1      42.085 -13.055   1.643  1.00  0.00     0.050 A 
HETATM    3  C   UNL     1      41.684 -14.218   2.307  1.00  0.00     0.075 A 
HETATM    4  C   UNL     1      41.123 -15.258   1.561  1.00  0.00     0.061 A 
HETATM    5  C   UNL     1      40.680 -16.456   2.292  1.00  0.00     0.259 A 
HETATM    6  O   UNL     1      40.160 -17.413   1.731  1.00  0.00    -0.267 OA
HETATM    7  N   UNL     1      40.878 -16.423   3.647  1.00  0.00    -0.310 N 
HETATM    8  C   UNL     1      41.415 -15.349   4.311  1.00  0.00     0.117 A 
HETATM    9  N   UNL     1      41.841 -14.286   3.703  1.00  0.00    -0.234 NA
HETATM   10  C   UNL     1      40.959 -15.159   0.177  1.00  0.00     0.020 A 
HETATM   11  C   UNL     1      41.361 -13.993  -0.475  1.00  0.00     0.019 A 
HETATM   12  H   UNL     1      40.472 -17.192   4.163  1.00  0.00     0.170 HD
ENDROOT
BRANCH   8  13
HETATM   13  C   UNL     1      41.512 -15.492   5.816  1.00  0.00     0.161 C 
BRANCH  13  14
HETATM   14  S   UNL     1      43.229 -15.386   6.389  1.00  0.00    -0.083 SA
BRANCH  14  15
HETATM   15  C   UNL     1      43.883 -16.874   5.831  1.00  0.00     0.185 A 
HETATM   16  N   UNL     1      43.565 -17.568   4.769  1.00  0.00    -0.201 NA
HETATM   17  C   UNL     1      44.347 -18.705   4.893  1.00  0.00     0.182 A 
HETATM   18  N   UNL     1      45.161 -18.690   5.964  1.00  0.00    -0.152 NA
HETATM   19  N   UNL     1      44.840 -17.521   6.541  1.00  0.00    -0.253 N 
HETATM   20  H   UNL     1      45.284 -17.243   7.407  1.00  0.00     0.191 HD
BRANCH  17  21
HETATM   21  C   UNL     1      44.253 -19.827   3.961  1.00  0.00     0.013 A 
HETATM   22  C   UNL     1      44.768 -21.085   4.304  1.00  0.00     0.015 A 
HETATM   23  C   UNL     1      44.711 -22.150   3.403  1.00  0.00     0.001 A 
HETATM   24  C   UNL     1      44.133 -21.973   2.149  1.00  0.00     0.000 A 
HETATM   25  C   UNL     1      43.610 -20.732   1.794  1.00  0.00     0.001 A 
HETATM   26  C   UNL     1      43.671 -19.664   2.695  1.00  0.00     0.015 A 
ENDBRANCH  17  21
ENDBRANCH  14  15
ENDBRANCH  13  14
ENDBRANCH   8  13
BRANCH   1  27
HETATM   27  C   UNL     1      42.313 -11.704  -0.488  1.00  0.00     0.293 C 
HETATM   28  O   UNL     1      43.325 -11.622  -1.165  1.00  0.00    -0.259 OA
BRANCH  27  29
HETATM   29  O   UNL     1      41.398 -10.721  -0.305  1.00  0.00    -0.323 OA
HETATM   30  C   UNL     1      41.947  -9.403  -0.346  1.00  0.00     0.213 C 
ENDBRANCH  27  29
ENDBRANCH   1  27
TORSDOF 6
ENDMDL
MODEL 9
REMARK VINA RESULT:      -7.9      2.969      6.224
REMARK  6 active torsions:
REMARK  status: ('A' for Active; 'I' for Inactive)
REMARK    1  A    between atoms: O_2  and  C_3 
REMARK    2  A    between atoms: C_3  and  C_4 
REMARK    3  A    between atoms: C_11  and  C_12 
REMARK    4  A    between atoms: C_12  and  S_13 
REMARK    5  A    between atoms: S_13  and  C_14 
REMARK    6  A    between atoms: C_16  and  C_17 
ROOT
HETATM    1  C   UNL     1      43.855 -18.810   3.802  1.00  0.00     0.041 A 
HETATM    2  C   UNL     1      43.387 -17.496   3.638  1.00  0.00     0.050 A 
HETATM    3  C   UNL     1      43.260 -16.645   4.740  1.00  0.00     0.075 A 
HETATM    4  C   UNL     1      43.611 -17.125   6.004  1.00  0.00     0.061 A 
HETATM    5  C   UNL     1      43.434 -16.215   7.148  1.00  0.00     0.259 A 
HETATM    6  O   UNL     1      43.697 -16.549   8.298  1.00  0.00    -0.267 OA
HETATM    7  N   UNL     1      42.944 -14.974   6.841  1.00  0.00    -0.310 N 
HETATM    8  C   UNL     1      42.598 -14.586   5.571  1.00  0.00     0.117 A 
HETATM    9  N   UNL     1      42.762 -15.346   4.533  1.00  0.00    -0.234 NA
HETATM   10  C   UNL     1      44.084 -18.426   6.187  1.00  0.00     0.020 A 
HETATM   11  C   UNL     1      44.206 -19.268   5.081  1.00  0.00     0.019 A 
HETATM   12  H   UNL     1      42.715 -14.391   7.634  1.00  0.00     0.170 HD
ENDROOT
BRANCH   8  13
HETATM   13  C   UNL     1      42.035 -13.185   5.446  1.00  0.00     0.161 C 
BRANCH  13  14
HETATM   14  S   UNL     1      40.503 -13.164   4.477  1.00  0.00    -0.083 SA
BRANCH  14  15
HETATM   15  C   UNL     1      41.100 -13.105   2.866  1.00  0.00     0.185 A 
HETATM   16  N   UNL     1      40.637 -13.692   1.793  1.00  0.00    -0.201 NA
HETATM   17  C   UNL     1      41.574 -13.361   0.827  1.00  0.00     0.182 A 
HETATM   18  N   UNL     1      42.550 -12.551   1.274  1.00  0.00    -0.152 NA
HETATM   19  N   UNL     1      42.226 -12.411   2.569  1.00  0.00    -0.253 N 
HETATM   20  H   UNL     1      42.813 -11.862   3.184  1.00  0.00     0.191 HD
BRANCH  17  21
HETATM   21  C   UNL     1      41.515 -13.886  -0.535  1.00  0.00     0.013 A 
HETATM   22  C   UNL     1      41.938 -13.105  -1.620  1.00  0.00     0.015 A 
HETATM   23  C   UNL     1      41.851 -13.591  -2.927  1.00  0.00     0.001 A 
HETATM   24  C   UNL     1      41.345 -14.866  -3.165  1.00  0.00     0.000 A 
HETATM   25  C   UNL     1      40.925 -15.657  -2.098  1.00  0.00     0.001 A 
HETATM   26  C   UNL     1      41.009 -15.170  -0.790  1.00  0.00     0.015 A 
ENDBRANCH  17  21
ENDBRANCH  14  15
ENDBRANCH  13  14
ENDBRANCH   8  13
BRANCH   1  27
HETATM   27  C   UNL     1      43.982 -19.757   2.661  1.00  0.00     0.293 C 
HETATM   28  O   UNL     1      43.432 -19.588   1.585  1.00  0.00    -0.259 OA
BRANCH  27  29
HETATM   29  O   UNL     1      44.781 -20.802   2.989  1.00  0.00    -0.323 OA
HETATM   30  C   UNL     1      44.531 -21.984   2.229  1.00  0.00     0.213 C 
ENDBRANCH  27  29
ENDBRANCH   1  27
TORSDOF 6
ENDMDL
MODEL 10
REMARK VINA RESULT:      -7.8      4.436      7.356
REMARK  6 active torsions:
REMARK  status: ('A' for Active; 'I' for Inactive)
REMARK    1  A    between atoms: O_2  and  C_3 
REMARK    2  A    between atoms: C_3  and  C_4 
REMARK    3  A    between atoms: C_11  and  C_12 
REMARK    4  A    between atoms: C_12  and  S_13 
REMARK    5  A    between atoms: S_13  and  C_14 
REMARK    6  A    between atoms: C_16  and  C_17 
ROOT
HETATM    1  C   UNL     1      40.022 -14.280  -2.537  1.00  0.00     0.041 A 
HETATM    2  C   UNL     1      39.840 -14.271  -1.145  1.00  0.00     0.050 A 
HETATM    3  C   UNL     1      40.619 -13.444  -0.331  1.00  0.00     0.075 A 
HETATM    4  C   UNL     1      41.580 -12.625  -0.930  1.00  0.00     0.061 A 
HETATM    5  C   UNL     1      42.408 -11.791  -0.044  1.00  0.00     0.259 A 
HETATM    6  O   UNL     1      43.287 -11.052  -0.471  1.00  0.00    -0.267 OA
HETATM    7  N   UNL     1      42.136 -11.905   1.293  1.00  0.00    -0.310 N 
HETATM    8  C   UNL     1      41.189 -12.756   1.806  1.00  0.00     0.117 A 
HETATM    9  N   UNL     1      40.422 -13.488   1.060  1.00  0.00    -0.234 NA
HETATM   10  C   UNL     1      41.772 -12.614  -2.314  1.00  0.00     0.020 A 
HETATM   11  C   UNL     1      40.989 -13.445  -3.117  1.00  0.00     0.019 A 
HETATM   12  H   UNL     1      42.777 -11.423   1.908  1.00  0.00     0.170 HD
ENDROOT
BRANCH   8  13
HETATM   13  C   UNL     1      41.069 -12.767   3.316  1.00  0.00     0.161 C 
BRANCH  13  14
HETATM   14  S   UNL     1      42.605 -13.320   4.106  1.00  0.00    -0.083 SA
BRANCH  14  15
HETATM   15  C   UNL     1      42.441 -15.029   4.047  1.00  0.00     0.185 A 
HETATM   16  N   UNL     1      43.350 -15.937   3.802  1.00  0.00    -0.201 NA
HETATM   17  C   UNL     1      42.621 -17.115   3.792  1.00  0.00     0.182 A 
HETATM   18  N   UNL     1      41.317 -16.948   4.077  1.00  0.00    -0.152 NA
HETATM   19  N   UNL     1      41.233 -15.617   4.228  1.00  0.00    -0.253 N 
HETATM   20  H   UNL     1      40.340 -15.183   4.425  1.00  0.00     0.191 HD
BRANCH  17  21
HETATM   21  C   UNL     1      43.220 -18.406   3.459  1.00  0.00     0.013 A 
HETATM   22  C   UNL     1      44.079 -19.048   4.362  1.00  0.00     0.015 A 
HETATM   23  C   UNL     1      44.680 -20.266   4.032  1.00  0.00     0.001 A 
HETATM   24  C   UNL     1      44.425 -20.859   2.799  1.00  0.00     0.000 A 
HETATM   25  C   UNL     1      43.569 -20.237   1.893  1.00  0.00     0.001 A 
HETATM   26  C   UNL     1      42.970 -19.017   2.221  1.00  0.00     0.015 A 
ENDBRANCH  17  21
ENDBRANCH  14  15
ENDBRANCH  13  14
ENDBRANCH   8  13
BRANCH   1  27
HETATM   27  C   UNL     1      39.231 -15.162  -3.437  1.00  0.00     0.293 C 
HETATM   28  O   UNL     1      39.726 -15.813  -4.343  1.00  0.00    -0.259 OA
BRANCH  27  29
HETATM   29  O   UNL     1      37.917 -15.135  -3.105  1.00  0.00    -0.323 OA
HETATM   30  C   UNL     1      37.062 -14.679  -4.155  1.00  0.00     0.213 C 
ENDBRANCH  27  29
ENDBRANCH   1  27
TORSDOF 6
ENDMDL
