MODEL 1
REMARK VINA RESULT:      -8.2      0.000      0.000
REMARK  7 active torsions:
REMARK  status: ('A' for Active; 'I' for Inactive)
REMARK    1  A    between atoms: C_2  and  C_3 
REMARK       I    between atoms: C_3  and  N_4 
REMARK    2  A    between atoms: N_4  and  C_5 
REMARK    3  A    between atoms: C_7  and  C_8 
REMARK       I    between atoms: C_8  and  N_9 
REMARK    4  A    between atoms: N_9  and  C_10 
REMARK    5  A    between atoms: C_10  and  C_11 
REMARK    6  A    between atoms: C_13  and  O_14 
REMARK    7  A    between atoms: O_14  and  C_15 
ROOT
HETATM    1  C   UNL     1      43.901 -14.458   6.114  1.00  0.00     0.252 C 
HETATM    2  N   UNL     1      44.066 -14.235   7.464  1.00  0.00    -0.353 N 
HETATM    3  O   UNL     1      44.411 -13.746   5.255  1.00  0.00    -0.268 OA
HETATM    4  H   UNL     1      43.593 -14.808   8.149  1.00  0.00     0.163 HD
ENDROOT
BRANCH   1   5
HETATM    5  C   UNL     1      43.046 -15.610   5.704  1.00  0.00     0.034 A 
HETATM    6  C   UNL     1      43.367 -16.451   4.627  1.00  0.00     0.046 A 
HETATM    7  C   UNL     1      42.527 -17.515   4.283  1.00  0.00     0.035 A 
HETATM    8  C   UNL     1      41.346 -17.716   5.008  1.00  0.00     0.029 A 
HETATM    9  C   UNL     1      41.010 -16.874   6.069  1.00  0.00     0.003 A 
HETATM   10  C   UNL     1      41.859 -15.826   6.415  1.00  0.00     0.017 A 
BRANCH   7  11
HETATM   11  N   UNL     1      42.786 -18.413   3.225  1.00  0.00    -0.327 N 
HETATM   12  C   UNL     1      43.661 -19.489   3.226  1.00  0.00     0.221 C 
HETATM   13  O   UNL     1      44.342 -19.869   4.170  1.00  0.00    -0.273 OA
HETATM   14  H   UNL     1      42.241 -18.275   2.383  1.00  0.00     0.169 HD
BRANCH  12  15
HETATM   15  C   UNL     1      43.668 -20.194   1.878  1.00  0.00     0.098 C 
HETATM   16  C   UNL     1      43.997 -21.672   1.991  1.00  0.00     0.014 C 
ENDBRANCH  12  15
ENDBRANCH   7  11
ENDBRANCH   1   5
BRANCH   2  17
HETATM   17  C   UNL     1      44.909 -13.170   7.964  1.00  0.00     0.161 C 
BRANCH  17  18
HETATM   18  C   UNL     1      44.104 -12.106   8.662  1.00  0.00    -0.035 A 
HETATM   19  C   UNL     1      44.473 -11.635   9.926  1.00  0.00     0.066 A 
HETATM   20  C   UNL     1      43.705 -10.649  10.520  1.00  0.00     0.164 A 
HETATM   21  N   UNL     1      42.625 -10.081   9.945  1.00  0.00    -0.237 NA
HETATM   22  C   UNL     1      42.301 -10.528   8.713  1.00  0.00     0.120 A 
HETATM   23  C   UNL     1      42.996 -11.522   8.041  1.00  0.00     0.028 A 
BRANCH  20  24
HETATM   24  O   UNL     1      44.088 -10.244  11.786  1.00  0.00    -0.329 OA
BRANCH  24  25
HETATM   25  C   UNL     1      43.027  -9.805  12.660  1.00  0.00     0.130 C 
HETATM   26  C   UNL     1      42.359 -10.884  13.554  1.00  0.00     0.032 C 
HETATM   27  C   UNL     1      42.336  -9.843  14.687  1.00  0.00     0.005 C 
HETATM   28  C   UNL     1      43.509  -9.145  13.979  1.00  0.00     0.032 C 
ENDBRANCH  24  25
ENDBRANCH  20  24
ENDBRANCH  17  18
ENDBRANCH   2  17
TORSDOF 7
ENDMDL
MODEL 2
REMARK VINA RESULT:      -8.0      2.308     10.028
REMARK  7 active torsions:
REMARK  status: ('A' for Active; 'I' for Inactive)
REMARK    1  A    between atoms: C_2  and  C_3 
REMARK       I    between atoms: C_3  and  N_4 
REMARK    2  A    between atoms: N_4  and  C_5 
REMARK    3  A    between atoms: C_7  and  C_8 
REMARK       I    between atoms: C_8  and  N_9 
REMARK    4  A    between atoms: N_9  and  C_10 
REMARK    5  A    between atoms: C_10  and  C_11 
REMARK    6  A    between atoms: C_13  and  O_14 
REMARK    7  A    between atoms: O_14  and  C_15 
ROOT
HETATM    1  C   UNL     1      44.842 -12.670   8.440  1.00  0.00     0.252 C 
HETATM    2  N   UNL     1      43.996 -13.308   7.558  1.00  0.00    -0.353 N 
HETATM    3  O   UNL     1      46.056 -12.848   8.445  1.00  0.00    -0.268 OA
HETATM    4  H   UNL     1      42.996 -13.180   7.610  1.00  0.00     0.163 HD
ENDROOT
BRANCH   1   5
HETATM    5  C   UNL     1      44.229 -11.742   9.435  1.00  0.00     0.034 A 
HETATM    6  C   UNL     1      42.974 -11.142   9.245  1.00  0.00     0.046 A 
HETATM    7  C   UNL     1      42.449 -10.276  10.210  1.00  0.00     0.035 A 
HETATM    8  C   UNL     1      43.202  -9.991  11.356  1.00  0.00     0.029 A 
HETATM    9  C   UNL     1      44.458 -10.569  11.544  1.00  0.00     0.003 A 
HETATM   10  C   UNL     1      44.968 -11.442  10.587  1.00  0.00     0.017 A 
BRANCH   7  11
HETATM   11  N   UNL     1      41.191  -9.645  10.101  1.00  0.00    -0.327 N 
HETATM   12  C   UNL     1      40.040  -9.928  10.821  1.00  0.00     0.221 C 
HETATM   13  O   UNL     1      39.927 -10.762  11.710  1.00  0.00    -0.273 OA
HETATM   14  H   UNL     1      41.136  -8.874   9.448  1.00  0.00     0.169 HD
BRANCH  12  15
HETATM   15  C   UNL     1      38.886  -9.036  10.387  1.00  0.00     0.098 C 
HETATM   16  C   UNL     1      37.721  -9.070  11.360  1.00  0.00     0.014 C 
ENDBRANCH  12  15
ENDBRANCH   7  11
ENDBRANCH   1   5
BRANCH   2  17
HETATM   17  C   UNL     1      44.495 -14.194   6.528  1.00  0.00     0.161 C 
BRANCH  17  18
HETATM   18  C   UNL     1      43.885 -15.567   6.633  1.00  0.00    -0.035 A 
HETATM   19  C   UNL     1      43.560 -16.301   5.488  1.00  0.00     0.066 A 
HETATM   20  C   UNL     1      43.010 -17.563   5.639  1.00  0.00     0.164 A 
HETATM   21  N   UNL     1      42.788 -18.153   6.832  1.00  0.00    -0.237 NA
HETATM   22  C   UNL     1      43.133 -17.441   7.925  1.00  0.00     0.120 A 
HETATM   23  C   UNL     1      43.675 -16.165   7.879  1.00  0.00     0.028 A 
BRANCH  20  24
HETATM   24  O   UNL     1      42.671 -18.233   4.479  1.00  0.00    -0.329 OA
BRANCH  24  25
HETATM   25  C   UNL     1      43.772 -18.692   3.667  1.00  0.00     0.130 C 
HETATM   26  C   UNL     1      44.505 -19.977   4.137  1.00  0.00     0.032 C 
HETATM   27  C   UNL     1      44.576 -20.404   2.660  1.00  0.00     0.005 C 
HETATM   28  C   UNL     1      43.355 -19.502   2.411  1.00  0.00     0.032 C 
ENDBRANCH  24  25
ENDBRANCH  20  24
ENDBRANCH  17  18
ENDBRANCH   2  17
TORSDOF 7
ENDMDL
MODEL 3
REMARK VINA RESULT:      -8.0      1.840     10.368
REMARK  7 active torsions:
REMARK  status: ('A' for Active; 'I' for Inactive)
REMARK    1  A    between atoms: C_2  and  C_3 
REMARK       I    between atoms: C_3  and  N_4 
REMARK    2  A    between atoms: N_4  and  C_5 
REMARK    3  A    between atoms: C_7  and  C_8 
REMARK       I    between atoms: C_8  and  N_9 
REMARK    4  A    between atoms: N_9  and  C_10 
REMARK    5  A    between atoms: C_10  and  C_11 
REMARK    6  A    between atoms: C_13  and  O_14 
REMARK    7  A    between atoms: O_14  and  C_15 
ROOT
HETATM    1  C   UNL     1      44.568 -12.637   8.692  1.00  0.00     0.252 C 
HETATM    2  N   UNL     1      44.009 -13.308   7.626  1.00  0.00    -0.353 N 
HETATM    3  O   UNL     1      45.697 -12.876   9.111  1.00  0.00    -0.268 OA
HETATM    4  H   UNL     1      43.059 -13.125   7.336  1.00  0.00     0.163 HD
ENDROOT
BRANCH   1   5
HETATM    5  C   UNL     1      43.740 -11.592   9.362  1.00  0.00     0.034 A 
HETATM    6  C   UNL     1      43.797 -11.345  10.743  1.00  0.00     0.046 A 
HETATM    7  C   UNL     1      42.995 -10.354  11.320  1.00  0.00     0.035 A 
HETATM    8  C   UNL     1      42.112  -9.631  10.508  1.00  0.00     0.029 A 
HETATM    9  C   UNL     1      42.036  -9.883   9.138  1.00  0.00     0.003 A 
HETATM   10  C   UNL     1      42.848 -10.860   8.568  1.00  0.00     0.017 A 
BRANCH   7  11
HETATM   11  N   UNL     1      43.005 -10.034  12.694  1.00  0.00    -0.327 N 
HETATM   12  C   UNL     1      42.078 -10.410  13.655  1.00  0.00     0.221 C 
HETATM   13  O   UNL     1      41.098 -11.123  13.477  1.00  0.00    -0.273 OA
HETATM   14  H   UNL     1      43.801  -9.500  13.020  1.00  0.00     0.169 HD
BRANCH  12  15
HETATM   15  C   UNL     1      42.437  -9.840  15.019  1.00  0.00     0.098 C 
HETATM   16  C   UNL     1      41.263  -9.152  15.694  1.00  0.00     0.014 C 
ENDBRANCH  12  15
ENDBRANCH   7  11
ENDBRANCH   1   5
BRANCH   2  17
HETATM   17  C   UNL     1      44.745 -14.308   6.883  1.00  0.00     0.161 C 
BRANCH  17  18
HETATM   18  C   UNL     1      43.958 -15.585   6.741  1.00  0.00    -0.035 A 
HETATM   19  C   UNL     1      43.608 -16.079   5.480  1.00  0.00     0.066 A 
HETATM   20  C   UNL     1      42.892 -17.261   5.403  1.00  0.00     0.164 A 
HETATM   21  N   UNL     1      42.527 -17.996   6.474  1.00  0.00    -0.237 NA
HETATM   22  C   UNL     1      42.898 -17.518   7.681  1.00  0.00     0.120 A 
HETATM   23  C   UNL     1      43.601 -16.336   7.864  1.00  0.00     0.028 A 
BRANCH  20  24
HETATM   24  O   UNL     1      42.537 -17.689   4.137  1.00  0.00    -0.329 OA
BRANCH  24  25
HETATM   25  C   UNL     1      43.601 -18.238   3.332  1.00  0.00     0.130 C 
HETATM   26  C   UNL     1      44.235 -19.570   3.816  1.00  0.00     0.032 C 
HETATM   27  C   UNL     1      44.274 -20.017   2.344  1.00  0.00     0.005 C 
HETATM   28  C   UNL     1      43.125 -19.028   2.084  1.00  0.00     0.032 C 
ENDBRANCH  24  25
ENDBRANCH  20  24
ENDBRANCH  17  18
ENDBRANCH   2  17
TORSDOF 7
ENDMDL
MODEL 4
REMARK VINA RESULT:      -7.9      3.451      8.692
REMARK  7 active torsions:
REMARK  status: ('A' for Active; 'I' for Inactive)
REMARK    1  A    between atoms: C_2  and  C_3 
REMARK       I    between atoms: C_3  and  N_4 
REMARK    2  A    between atoms: N_4  and  C_5 
REMARK    3  A    between atoms: C_7  and  C_8 
REMARK       I    between atoms: C_8  and  N_9 
REMARK    4  A    between atoms: N_9  and  C_10 
REMARK    5  A    between atoms: C_10  and  C_11 
REMARK    6  A    between atoms: C_13  and  O_14 
REMARK    7  A    between atoms: O_14  and  C_15 
ROOT
HETATM    1  C   UNL     1      41.962 -16.506   2.695  1.00  0.00     0.252 C 
HETATM    2  N   UNL     1      43.068 -16.987   2.028  1.00  0.00    -0.353 N 
HETATM    3  O   UNL     1      40.896 -17.113   2.740  1.00  0.00    -0.268 OA
HETATM    4  H   UNL     1      43.916 -16.443   1.966  1.00  0.00     0.163 HD
ENDROOT
BRANCH   1   5
HETATM    5  C   UNL     1      42.084 -15.180   3.369  1.00  0.00     0.034 A 
HETATM    6  C   UNL     1      42.604 -15.029   4.664  1.00  0.00     0.046 A 
HETATM    7  C   UNL     1      42.692 -13.761   5.250  1.00  0.00     0.035 A 
HETATM    8  C   UNL     1      42.228 -12.647   4.539  1.00  0.00     0.029 A 
HETATM    9  C   UNL     1      41.693 -12.790   3.259  1.00  0.00     0.003 A 
HETATM   10  C   UNL     1      41.623 -14.053   2.677  1.00  0.00     0.017 A 
BRANCH   7  11
HETATM   11  N   UNL     1      43.215 -13.524   6.538  1.00  0.00    -0.327 N 
HETATM   12  C   UNL     1      44.548 -13.514   6.920  1.00  0.00     0.221 C 
HETATM   13  O   UNL     1      45.514 -13.677   6.185  1.00  0.00    -0.273 OA
HETATM   14  H   UNL     1      42.539 -13.299   7.257  1.00  0.00     0.169 HD
BRANCH  12  15
HETATM   15  C   UNL     1      44.693 -13.241   8.410  1.00  0.00     0.098 C 
HETATM   16  C   UNL     1      45.851 -12.311   8.726  1.00  0.00     0.014 C 
ENDBRANCH  12  15
ENDBRANCH   7  11
ENDBRANCH   1   5
BRANCH   2  17
HETATM   17  C   UNL     1      43.065 -18.280   1.379  1.00  0.00     0.161 C 
BRANCH  17  18
HETATM   18  C   UNL     1      43.656 -19.346   2.263  1.00  0.00    -0.035 A 
HETATM   19  C   UNL     1      43.983 -19.078   3.596  1.00  0.00     0.066 A 
HETATM   20  C   UNL     1      44.515 -20.096   4.369  1.00  0.00     0.164 A 
HETATM   21  N   UNL     1      44.718 -21.354   3.928  1.00  0.00    -0.237 NA
HETATM   22  C   UNL     1      44.372 -21.601   2.648  1.00  0.00     0.120 A 
HETATM   23  C   UNL     1      43.847 -20.647   1.789  1.00  0.00     0.028 A 
BRANCH  20  24
HETATM   24  O   UNL     1      44.857 -19.771   5.669  1.00  0.00    -0.329 OA
BRANCH  24  25
HETATM   25  C   UNL     1      43.977 -18.847   6.345  1.00  0.00     0.130 C 
HETATM   26  C   UNL     1      43.792 -19.043   7.873  1.00  0.00     0.032 C 
HETATM   27  C   UNL     1      43.832 -17.511   8.012  1.00  0.00     0.005 C 
HETATM   28  C   UNL     1      44.621 -17.479   6.692  1.00  0.00     0.032 C 
ENDBRANCH  24  25
ENDBRANCH  20  24
ENDBRANCH  17  18
ENDBRANCH   2  17
TORSDOF 7
ENDMDL
MODEL 5
REMARK VINA RESULT:      -7.8      5.479      8.757
REMARK  7 active torsions:
REMARK  status: ('A' for Active; 'I' for Inactive)
REMARK    1  A    between atoms: C_2  and  C_3 
REMARK       I    between atoms: C_3  and  N_4 
REMARK    2  A    between atoms: N_4  and  C_5 
REMARK    3  A    between atoms: C_7  and  C_8 
REMARK       I    between atoms: C_8  and  N_9 
REMARK    4  A    between atoms: N_9  and  C_10 
REMARK    5  A    between atoms: C_10  and  C_11 
REMARK    6  A    between atoms: C_13  and  O_14 
REMARK    7  A    between atoms: O_14  and  C_15 
ROOT
HETATM    1  C   UNL     1      40.401 -14.699   4.782  1.00  0.00     0.252 C 
HETATM    2  N   UNL     1      40.272 -16.048   5.032  1.00  0.00    -0.353 N 
HETATM    3  O   UNL     1      40.798 -13.900   5.625  1.00  0.00    -0.268 OA
HETATM    4  H   UNL     1      39.895 -16.673   4.335  1.00  0.00     0.163 HD
ENDROOT
BRANCH   1   5
HETATM    5  C   UNL     1      40.017 -14.208   3.426  1.00  0.00     0.034 A 
HETATM    6  C   UNL     1      40.280 -14.931   2.252  1.00  0.00     0.046 A 
HETATM    7  C   UNL     1      39.901 -14.421   1.005  1.00  0.00     0.035 A 
HETATM    8  C   UNL     1      39.280 -13.167   0.939  1.00  0.00     0.029 A 
HETATM    9  C   UNL     1      39.032 -12.434   2.100  1.00  0.00     0.003 A 
HETATM   10  C   UNL     1      39.398 -12.954   3.338  1.00  0.00     0.017 A 
BRANCH   7  11
HETATM   11  N   UNL     1      40.115 -15.092  -0.218  1.00  0.00    -0.327 N 
HETATM   12  C   UNL     1      41.039 -14.777  -1.203  1.00  0.00     0.221 C 
HETATM   13  O   UNL     1      41.861 -13.870  -1.162  1.00  0.00    -0.273 OA
HETATM   14  H   UNL     1      39.554 -15.920  -0.375  1.00  0.00     0.169 HD
BRANCH  12  15
HETATM   15  C   UNL     1      40.936 -15.734  -2.381  1.00  0.00     0.098 C 
HETATM   16  C   UNL     1      39.854 -15.334  -3.368  1.00  0.00     0.014 C 
ENDBRANCH  12  15
ENDBRANCH   7  11
ENDBRANCH   1   5
BRANCH   2  17
HETATM   17  C   UNL     1      40.658 -16.628   6.301  1.00  0.00     0.161 C 
BRANCH  17  18
HETATM   18  C   UNL     1      42.051 -17.197   6.250  1.00  0.00    -0.035 A 
HETATM   19  C   UNL     1      42.597 -17.662   5.049  1.00  0.00     0.066 A 
HETATM   20  C   UNL     1      43.886 -18.167   5.055  1.00  0.00     0.164 A 
HETATM   21  N   UNL     1      44.675 -18.217   6.148  1.00  0.00    -0.237 NA
HETATM   22  C   UNL     1      44.141 -17.738   7.292  1.00  0.00     0.120 A 
HETATM   23  C   UNL     1      42.855 -17.227   7.393  1.00  0.00     0.028 A 
BRANCH  20  24
HETATM   24  O   UNL     1      44.367 -18.650   3.852  1.00  0.00    -0.329 OA
BRANCH  24  25
HETATM   25  C   UNL     1      43.778 -19.880   3.381  1.00  0.00     0.130 C 
HETATM   26  C   UNL     1      43.237 -19.890   1.926  1.00  0.00     0.032 C 
HETATM   27  C   UNL     1      43.814 -21.309   1.785  1.00  0.00     0.005 C 
HETATM   28  C   UNL     1      44.802 -20.946   2.907  1.00  0.00     0.032 C 
ENDBRANCH  24  25
ENDBRANCH  20  24
ENDBRANCH  17  18
ENDBRANCH   2  17
TORSDOF 7
ENDMDL
MODEL 6
REMARK VINA RESULT:      -7.6      2.235      3.103
REMARK  7 active torsions:
REMARK  status: ('A' for Active; 'I' for Inactive)
REMARK    1  A    between atoms: C_2  and  C_3 
REMARK       I    between atoms: C_3  and  N_4 
REMARK    2  A    between atoms: N_4  and  C_5 
REMARK    3  A    between atoms: C_7  and  C_8 
REMARK       I    between atoms: C_8  and  N_9 
REMARK    4  A    between atoms: N_9  and  C_10 
REMARK    5  A    between atoms: C_10  and  C_11 
REMARK    6  A    between atoms: C_13  and  O_14 
REMARK    7  A    between atoms: O_14  and  C_15 
ROOT
HETATM    1  C   UNL     1      41.377 -14.920   5.513  1.00  0.00     0.252 C 
HETATM    2  N   UNL     1      41.819 -13.646   5.228  1.00  0.00    -0.353 N 
HETATM    3  O   UNL     1      40.210 -15.173   5.796  1.00  0.00    -0.268 OA
HETATM    4  H   UNL     1      42.794 -13.461   5.047  1.00  0.00     0.163 HD
ENDROOT
BRANCH   1   5
HETATM    5  C   UNL     1      42.384 -16.022   5.487  1.00  0.00     0.034 A 
HETATM    6  C   UNL     1      42.314 -17.097   4.588  1.00  0.00     0.046 A 
HETATM    7  C   UNL     1      43.284 -18.105   4.611  1.00  0.00     0.035 A 
HETATM    8  C   UNL     1      44.311 -18.044   5.561  1.00  0.00     0.029 A 
HETATM    9  C   UNL     1      44.378 -16.988   6.470  1.00  0.00     0.003 A 
HETATM   10  C   UNL     1      43.418 -15.981   6.432  1.00  0.00     0.017 A 
BRANCH   7  11
HETATM   11  N   UNL     1      43.293 -19.210   3.732  1.00  0.00    -0.327 N 
HETATM   12  C   UNL     1      43.750 -19.244   2.424  1.00  0.00     0.221 C 
HETATM   13  O   UNL     1      44.264 -18.316   1.811  1.00  0.00    -0.273 OA
HETATM   14  H   UNL     1      42.960 -20.085   4.117  1.00  0.00     0.169 HD
BRANCH  12  15
HETATM   15  C   UNL     1      43.562 -20.623   1.810  1.00  0.00     0.098 C 
HETATM   16  C   UNL     1      44.577 -21.633   2.315  1.00  0.00     0.014 C 
ENDBRANCH  12  15
ENDBRANCH   7  11
ENDBRANCH   1   5
BRANCH   2  17
HETATM   17  C   UNL     1      40.914 -12.518   5.185  1.00  0.00     0.161 C 
BRANCH  17  18
HETATM   18  C   UNL     1      40.839 -11.815   6.515  1.00  0.00    -0.035 A 
HETATM   19  C   UNL     1      41.993 -11.340   7.145  1.00  0.00     0.066 A 
HETATM   20  C   UNL     1      41.868 -10.692   8.363  1.00  0.00     0.164 A 
HETATM   21  N   UNL     1      40.691 -10.461   8.980  1.00  0.00    -0.237 NA
HETATM   22  C   UNL     1      39.586 -10.902   8.344  1.00  0.00     0.120 A 
HETATM   23  C   UNL     1      39.607 -11.575   7.131  1.00  0.00     0.028 A 
BRANCH  20  24
HETATM   24  O   UNL     1      43.041 -10.274   8.964  1.00  0.00    -0.329 OA
BRANCH  24  25
HETATM   25  C   UNL     1      43.935 -11.318   9.405  1.00  0.00     0.130 C 
HETATM   26  C   UNL     1      45.400 -10.907   9.711  1.00  0.00     0.032 C 
HETATM   27  C   UNL     1      45.347 -11.850  10.926  1.00  0.00     0.005 C 
HETATM   28  C   UNL     1      43.819 -11.672  10.911  1.00  0.00     0.032 C 
ENDBRANCH  24  25
ENDBRANCH  20  24
ENDBRANCH  17  18
ENDBRANCH   2  17
TORSDOF 7
ENDMDL
MODEL 7
REMARK VINA RESULT:      -7.6      5.045      7.453
REMARK  7 active torsions:
REMARK  status: ('A' for Active; 'I' for Inactive)
REMARK    1  A    between atoms: C_2  and  C_3 
REMARK       I    between atoms: C_3  and  N_4 
REMARK    2  A    between atoms: N_4  and  C_5 
REMARK    3  A    between atoms: C_7  and  C_8 
REMARK       I    between atoms: C_8  and  N_9 
REMARK    4  A    between atoms: N_9  and  C_10 
REMARK    5  A    between atoms: C_10  and  C_11 
REMARK    6  A    between atoms: C_13  and  O_14 
REMARK    7  A    between atoms: O_14  and  C_15 
ROOT
HETATM    1  C   UNL     1      41.482 -16.249   6.199  1.00  0.00     0.252 C 
HETATM    2  N   UNL     1      41.595 -14.886   6.029  1.00  0.00    -0.353 N 
HETATM    3  O   UNL     1      40.435 -16.794   6.535  1.00  0.00    -0.268 OA
HETATM    4  H   UNL     1      42.482 -14.461   5.801  1.00  0.00     0.163 HD
ENDROOT
BRANCH   1   5
HETATM    5  C   UNL     1      42.704 -17.077   5.978  1.00  0.00     0.034 A 
HETATM    6  C   UNL     1      42.782 -18.071   4.990  1.00  0.00     0.046 A 
HETATM    7  C   UNL     1      43.952 -18.820   4.828  1.00  0.00     0.035 A 
HETATM    8  C   UNL     1      45.037 -18.586   5.682  1.00  0.00     0.029 A 
HETATM    9  C   UNL     1      44.962 -17.612   6.678  1.00  0.00     0.003 A 
HETATM   10  C   UNL     1      43.799 -16.860   6.824  1.00  0.00     0.017 A 
BRANCH   7  11
HETATM   11  N   UNL     1      44.115 -19.825   3.851  1.00  0.00    -0.327 N 
HETATM   12  C   UNL     1      44.575 -21.120   4.041  1.00  0.00     0.221 C 
HETATM   13  O   UNL     1      44.890 -21.629   5.109  1.00  0.00    -0.273 OA
HETATM   14  H   UNL     1      43.827 -19.582   2.912  1.00  0.00     0.169 HD
BRANCH  12  15
HETATM   15  C   UNL     1      44.626 -21.884   2.726  1.00  0.00     0.098 C 
HETATM   16  C   UNL     1      43.619 -21.371   1.711  1.00  0.00     0.014 C 
ENDBRANCH  12  15
ENDBRANCH   7  11
ENDBRANCH   1   5
BRANCH   2  17
HETATM   17  C   UNL     1      40.459 -14.002   6.179  1.00  0.00     0.161 C 
BRANCH  17  18
HETATM   18  C   UNL     1      39.964 -13.503   4.847  1.00  0.00    -0.035 A 
HETATM   19  C   UNL     1      40.161 -14.248   3.680  1.00  0.00     0.066 A 
HETATM   20  C   UNL     1      39.678 -13.749   2.482  1.00  0.00     0.164 A 
HETATM   21  N   UNL     1      38.998 -12.590   2.364  1.00  0.00    -0.237 NA
HETATM   22  C   UNL     1      38.794 -11.898   3.505  1.00  0.00     0.120 A 
HETATM   23  C   UNL     1      39.250 -12.305   4.750  1.00  0.00     0.028 A 
BRANCH  20  24
HETATM   24  O   UNL     1      39.930 -14.503   1.351  1.00  0.00    -0.329 OA
BRANCH  24  25
HETATM   25  C   UNL     1      40.915 -15.549   1.493  1.00  0.00     0.130 C 
HETATM   26  C   UNL     1      40.389 -16.970   1.831  1.00  0.00     0.032 C 
HETATM   27  C   UNL     1      41.436 -17.525   0.850  1.00  0.00     0.005 C 
HETATM   28  C   UNL     1      41.411 -16.154   0.153  1.00  0.00     0.032 C 
ENDBRANCH  24  25
ENDBRANCH  20  24
ENDBRANCH  17  18
ENDBRANCH   2  17
TORSDOF 7
ENDMDL
MODEL 8
REMARK VINA RESULT:      -7.6      6.174      9.919
REMARK  7 active torsions:
REMARK  status: ('A' for Active; 'I' for Inactive)
REMARK    1  A    between atoms: C_2  and  C_3 
REMARK       I    between atoms: C_3  and  N_4 
REMARK    2  A    between atoms: N_4  and  C_5 
REMARK    3  A    between atoms: C_7  and  C_8 
REMARK       I    between atoms: C_8  and  N_9 
REMARK    4  A    between atoms: N_9  and  C_10 
REMARK    5  A    between atoms: C_10  and  C_11 
REMARK    6  A    between atoms: C_13  and  O_14 
REMARK    7  A    between atoms: O_14  and  C_15 
ROOT
HETATM    1  C   UNL     1      42.708 -14.250   2.725  1.00  0.00     0.252 C 
HETATM    2  N   UNL     1      41.842 -13.804   1.750  1.00  0.00    -0.353 N 
HETATM    3  O   UNL     1      43.695 -13.614   3.081  1.00  0.00    -0.268 OA
HETATM    4  H   UNL     1      41.067 -14.372   1.442  1.00  0.00     0.163 HD
ENDROOT
BRANCH   1   5
HETATM    5  C   UNL     1      42.423 -15.577   3.346  1.00  0.00     0.034 A 
HETATM    6  C   UNL     1      42.989 -16.774   2.879  1.00  0.00     0.046 A 
HETATM    7  C   UNL     1      42.684 -17.992   3.498  1.00  0.00     0.035 A 
HETATM    8  C   UNL     1      41.785 -18.006   4.572  1.00  0.00     0.029 A 
HETATM    9  C   UNL     1      41.205 -16.823   5.031  1.00  0.00     0.003 A 
HETATM   10  C   UNL     1      41.524 -15.614   4.420  1.00  0.00     0.017 A 
BRANCH   7  11
HETATM   11  N   UNL     1      43.221 -19.234   3.099  1.00  0.00    -0.327 N 
HETATM   12  C   UNL     1      44.293 -19.910   3.662  1.00  0.00     0.221 C 
HETATM   13  O   UNL     1      44.943 -19.555   4.637  1.00  0.00    -0.273 OA
HETATM   14  H   UNL     1      42.743 -19.700   2.338  1.00  0.00     0.169 HD
BRANCH  12  15
HETATM   15  C   UNL     1      44.573 -21.210   2.923  1.00  0.00     0.098 C 
HETATM   16  C   UNL     1      43.677 -21.401   1.711  1.00  0.00     0.014 C 
ENDBRANCH  12  15
ENDBRANCH   7  11
ENDBRANCH   1   5
BRANCH   2  17
HETATM   17  C   UNL     1      42.007 -12.513   1.117  1.00  0.00     0.161 C 
BRANCH  17  18
HETATM   18  C   UNL     1      42.090 -12.636  -0.382  1.00  0.00    -0.035 A 
HETATM   19  C   UNL     1      41.609 -13.773  -1.039  1.00  0.00     0.066 A 
HETATM   20  C   UNL     1      41.700 -13.833  -2.420  1.00  0.00     0.164 A 
HETATM   21  N   UNL     1      42.203 -12.845  -3.188  1.00  0.00    -0.237 NA
HETATM   22  C   UNL     1      42.636 -11.744  -2.538  1.00  0.00     0.120 A 
HETATM   23  C   UNL     1      42.603 -11.595  -1.160  1.00  0.00     0.028 A 
BRANCH  20  24
HETATM   24  O   UNL     1      41.246 -14.993  -3.020  1.00  0.00    -0.329 OA
BRANCH  24  25
HETATM   25  C   UNL     1      39.833 -15.261  -2.894  1.00  0.00     0.130 C 
HETATM   26  C   UNL     1      38.861 -14.174  -3.427  1.00  0.00     0.032 C 
HETATM   27  C   UNL     1      37.986 -15.313  -3.977  1.00  0.00     0.005 C 
HETATM   28  C   UNL     1      39.252 -16.186  -3.995  1.00  0.00     0.032 C 
ENDBRANCH  24  25
ENDBRANCH  20  24
ENDBRANCH  17  18
ENDBRANCH   2  17
TORSDOF 7
ENDMDL
MODEL 9
REMARK VINA RESULT:      -7.6      5.814      8.784
REMARK  7 active torsions:
REMARK  status: ('A' for Active; 'I' for Inactive)
REMARK    1  A    between atoms: C_2  and  C_3 
REMARK       I    between atoms: C_3  and  N_4 
REMARK    2  A    between atoms: N_4  and  C_5 
REMARK    3  A    between atoms: C_7  and  C_8 
REMARK       I    between atoms: C_8  and  N_9 
REMARK    4  A    between atoms: N_9  and  C_10 
REMARK    5  A    between atoms: C_10  and  C_11 
REMARK    6  A    between atoms: C_13  and  O_14 
REMARK    7  A    between atoms: O_14  and  C_15 
ROOT
HETATM    1  C   UNL     1      43.463 -17.486   1.580  1.00  0.00     0.252 C 
HETATM    2  N   UNL     1      42.962 -18.743   1.840  1.00  0.00    -0.353 N 
HETATM    3  O   UNL     1      44.628 -17.289   1.250  1.00  0.00    -0.268 OA
HETATM    4  H   UNL     1      42.012 -18.870   2.158  1.00  0.00     0.163 HD
ENDROOT
BRANCH   1   5
HETATM    5  C   UNL     1      42.533 -16.328   1.730  1.00  0.00     0.034 A 
HETATM    6  C   UNL     1      41.465 -16.089   0.852  1.00  0.00     0.046 A 
HETATM    7  C   UNL     1      40.627 -14.984   1.038  1.00  0.00     0.035 A 
HETATM    8  C   UNL     1      40.883 -14.102   2.096  1.00  0.00     0.029 A 
HETATM    9  C   UNL     1      41.954 -14.322   2.963  1.00  0.00     0.003 A 
HETATM   10  C   UNL     1      42.775 -15.432   2.781  1.00  0.00     0.017 A 
BRANCH   7  11
HETATM   11  N   UNL     1      39.525 -14.683   0.210  1.00  0.00    -0.327 N 
HETATM   12  C   UNL     1      39.543 -14.040  -1.018  1.00  0.00     0.221 C 
HETATM   13  O   UNL     1      40.537 -13.648  -1.618  1.00  0.00    -0.273 OA
HETATM   14  H   UNL     1      38.623 -15.009   0.535  1.00  0.00     0.169 HD
BRANCH  12  15
HETATM   15  C   UNL     1      38.138 -13.887  -1.581  1.00  0.00     0.098 C 
HETATM   16  C   UNL     1      38.104 -13.944  -3.098  1.00  0.00     0.014 C 
ENDBRANCH  12  15
ENDBRANCH   7  11
ENDBRANCH   1   5
BRANCH   2  17
HETATM   17  C   UNL     1      43.769 -19.934   1.681  1.00  0.00     0.161 C 
BRANCH  17  18
HETATM   18  C   UNL     1      44.134 -20.538   3.012  1.00  0.00    -0.035 A 
HETATM   19  C   UNL     1      44.086 -19.779   4.185  1.00  0.00     0.066 A 
HETATM   20  C   UNL     1      44.423 -20.384   5.384  1.00  0.00     0.164 A 
HETATM   21  N   UNL     1      44.773 -21.681   5.505  1.00  0.00    -0.237 NA
HETATM   22  C   UNL     1      44.787 -22.405   4.366  1.00  0.00     0.120 A 
HETATM   23  C   UNL     1      44.482 -21.888   3.115  1.00  0.00     0.028 A 
BRANCH  20  24
HETATM   24  O   UNL     1      44.397 -19.582   6.511  1.00  0.00    -0.329 OA
BRANCH  24  25
HETATM   25  C   UNL     1      43.793 -18.281   6.349  1.00  0.00     0.130 C 
HETATM   26  C   UNL     1      42.965 -17.737   7.544  1.00  0.00     0.032 C 
HETATM   27  C   UNL     1      43.580 -16.355   7.261  1.00  0.00     0.005 C 
HETATM   28  C   UNL     1      44.755 -17.089   6.594  1.00  0.00     0.032 C 
ENDBRANCH  24  25
ENDBRANCH  20  24
ENDBRANCH  17  18
ENDBRANCH   2  17
TORSDOF 7
ENDMDL
MODEL 10
REMARK VINA RESULT:      -7.5      5.521      9.114
REMARK  7 active torsions:
REMARK  status: ('A' for Active; 'I' for Inactive)
REMARK    1  A    between atoms: C_2  and  C_3 
REMARK       I    between atoms: C_3  and  N_4 
REMARK    2  A    between atoms: N_4  and  C_5 
REMARK    3  A    between atoms: C_7  and  C_8 
REMARK       I    between atoms: C_8  and  N_9 
REMARK    4  A    between atoms: N_9  and  C_10 
REMARK    5  A    between atoms: C_10  and  C_11 
REMARK    6  A    between atoms: C_13  and  O_14 
REMARK    7  A    between atoms: O_14  and  C_15 
ROOT
HETATM    1  C   UNL     1      40.739 -14.384   2.926  1.00  0.00     0.252 C 
HETATM    2  N   UNL     1      41.885 -14.362   3.690  1.00  0.00    -0.353 N 
HETATM    3  O   UNL     1      39.642 -14.698   3.379  1.00  0.00    -0.268 OA
HETATM    4  H   UNL     1      42.782 -14.148   3.279  1.00  0.00     0.163 HD
ENDROOT
BRANCH   1   5
HETATM    5  C   UNL     1      40.864 -14.026   1.483  1.00  0.00     0.034 A 
HETATM    6  C   UNL     1      40.181 -14.711   0.466  1.00  0.00     0.046 A 
HETATM    7  C   UNL     1      40.338 -14.334  -0.873  1.00  0.00     0.035 A 
HETATM    8  C   UNL     1      41.207 -13.283  -1.189  1.00  0.00     0.029 A 
HETATM    9  C   UNL     1      41.904 -12.608  -0.187  1.00  0.00     0.003 A 
HETATM   10  C   UNL     1      41.731 -12.979   1.145  1.00  0.00     0.017 A 
BRANCH   7  11
HETATM   11  N   UNL     1      39.676 -14.962  -1.950  1.00  0.00    -0.327 N 
HETATM   12  C   UNL     1      40.251 -15.541  -3.071  1.00  0.00     0.221 C 
HETATM   13  O   UNL     1      41.449 -15.639  -3.303  1.00  0.00    -0.273 OA
HETATM   14  H   UNL     1      38.669 -15.028  -1.874  1.00  0.00     0.169 HD
BRANCH  12  15
HETATM   15  C   UNL     1      39.189 -16.090  -4.013  1.00  0.00     0.098 C 
HETATM   16  C   UNL     1      37.859 -15.370  -3.879  1.00  0.00     0.014 C 
ENDBRANCH  12  15
ENDBRANCH   7  11
ENDBRANCH   1   5
BRANCH   2  17
HETATM   17  C   UNL     1      41.862 -14.652   5.108  1.00  0.00     0.161 C 
BRANCH  17  18
HETATM   18  C   UNL     1      42.508 -15.978   5.414  1.00  0.00    -0.035 A 
HETATM   19  C   UNL     1      43.185 -16.696   4.423  1.00  0.00     0.066 A 
HETATM   20  C   UNL     1      43.769 -17.905   4.758  1.00  0.00     0.164 A 
HETATM   21  N   UNL     1      43.755 -18.434   5.999  1.00  0.00    -0.237 NA
HETATM   22  C   UNL     1      43.122 -17.714   6.948  1.00  0.00     0.120 A 
HETATM   23  C   UNL     1      42.492 -16.501   6.710  1.00  0.00     0.028 A 
BRANCH  20  24
HETATM   24  O   UNL     1      44.394 -18.595   3.735  1.00  0.00    -0.329 OA
BRANCH  24  25
HETATM   25  C   UNL     1      43.742 -19.806   3.297  1.00  0.00     0.130 C 
HETATM   26  C   UNL     1      43.628 -20.028   1.764  1.00  0.00     0.032 C 
HETATM   27  C   UNL     1      43.954 -21.511   2.017  1.00  0.00     0.005 C 
HETATM   28  C   UNL     1      44.645 -21.068   3.317  1.00  0.00     0.032 C 
ENDBRANCH  24  25
ENDBRANCH  20  24
ENDBRANCH  17  18
ENDBRANCH   2  17
TORSDOF 7
ENDMDL
