MODEL 1
REMARK VINA RESULT:      -9.0      0.000      0.000
REMARK  7 active torsions:
REMARK  status: ('A' for Active; 'I' for Inactive)
REMARK    1  A    between atoms: N_3  and  N_4 
REMARK       I    between atoms: N_4  and  C_5 
REMARK    2  A    between atoms: C_5  and  C_6 
REMARK    3  A    between atoms: C_9  and  O_10 
REMARK    4  A    between atoms: O_10  and  C_11 
REMARK    5  A    between atoms: C_11  and  C_12 
REMARK       I    between atoms: C_12  and  N_13 
REMARK    6  A    between atoms: N_13  and  C_14 
REMARK    7  A    between atoms: C_15  and  O_16 
ROOT
HETATM    1  C   UNL     1      43.349 -16.675   5.377  1.00  0.00     0.033 A 
HETATM    2  C   UNL     1      44.107 -16.533   6.544  1.00  0.00     0.020 A 
HETATM    3  C   UNL     1      44.317 -15.260   7.082  1.00  0.00     0.038 A 
HETATM    4  C   UNL     1      43.791 -14.127   6.455  1.00  0.00     0.069 A 
HETATM    5  C   UNL     1      43.009 -14.276   5.308  1.00  0.00     0.038 A 
HETATM    6  C   UNL     1      42.783 -15.549   4.773  1.00  0.00     0.020 A 
ENDROOT
BRANCH   4   7
HETATM    7  O   UNL     1      44.094 -12.936   7.060  1.00  0.00    -0.342 OA
BRANCH   7   8
HETATM    8  C   UNL     1      44.885 -13.010   8.243  1.00  0.00     0.278 C 
BRANCH   8   9
HETATM    9  C   UNL     1      44.836 -11.739   9.099  1.00  0.00     0.246 C 
HETATM   10  N   UNL     1      43.657 -11.635   9.811  1.00  0.00    -0.323 N 
HETATM   11  H   UNL     1      42.932 -12.323   9.626  1.00  0.00     0.169 HD
HETATM   12  O   UNL     1      45.763 -10.935   9.093  1.00  0.00    -0.271 OA
BRANCH  10  13
HETATM   13  C   UNL     1      43.309 -10.684  10.793  1.00  0.00     0.068 A 
HETATM   14  C   UNL     1      42.325  -9.735  10.449  1.00  0.00     0.095 A 
HETATM   15  C   UNL     1      41.900  -8.798  11.396  1.00  0.00     0.039 A 
HETATM   16  C   UNL     1      42.459  -8.794  12.675  1.00  0.00     0.003 A 
HETATM   17  C   UNL     1      43.441  -9.723  13.011  1.00  0.00     0.002 A 
HETATM   18  C   UNL     1      43.867 -10.667  12.073  1.00  0.00     0.032 A 
BRANCH  14  19
HETATM   19  O   UNL     1      41.835  -9.822   9.165  1.00  0.00    -0.354 OA
HETATM   20  C   UNL     1      40.446 -10.114   9.041  1.00  0.00     0.210 C 
ENDBRANCH  14  19
ENDBRANCH  10  13
ENDBRANCH   8   9
ENDBRANCH   7   8
ENDBRANCH   4   7
BRANCH   1  21
HETATM   21  C   UNL     1      43.112 -18.007   4.762  1.00  0.00     0.270 C 
HETATM   22  N   UNL     1      44.190 -18.528   4.088  1.00  0.00    -0.259 N 
HETATM   23  H   UNL     1      45.014 -17.992   3.866  1.00  0.00     0.191 HD
HETATM   24  O   UNL     1      42.007 -18.526   4.856  1.00  0.00    -0.266 OA
BRANCH  22  25
HETATM   25  N   UNL     1      44.062 -19.685   3.415  1.00  0.00    -0.263 N 
HETATM   26  C   UNL     1      44.456 -20.891   3.925  1.00  0.00     0.030 A 
HETATM   27  C   UNL     1      44.870 -21.085   5.337  1.00  0.00     0.070 C 
HETATM   28  C   UNL     1      44.359 -21.804   2.891  1.00  0.00     0.028 A 
HETATM   29  C   UNL     1      43.927 -21.104   1.735  1.00  0.00     0.028 A 
HETATM   30  C   UNL     1      43.771 -19.773   2.082  1.00  0.00     0.030 A 
HETATM   31  C   UNL     1      43.331 -18.620   1.256  1.00  0.00     0.070 C 
ENDBRANCH  22  25
ENDBRANCH   1  21
TORSDOF 7
ENDMDL
MODEL 2
REMARK VINA RESULT:      -8.7      1.781      3.189
REMARK  7 active torsions:
REMARK  status: ('A' for Active; 'I' for Inactive)
REMARK    1  A    between atoms: N_3  and  N_4 
REMARK       I    between atoms: N_4  and  C_5 
REMARK    2  A    between atoms: C_5  and  C_6 
REMARK    3  A    between atoms: C_9  and  O_10 
REMARK    4  A    between atoms: O_10  and  C_11 
REMARK    5  A    between atoms: C_11  and  C_12 
REMARK       I    between atoms: C_12  and  N_13 
REMARK    6  A    between atoms: N_13  and  C_14 
REMARK    7  A    between atoms: C_15  and  O_16 
ROOT
HETATM    1  C   UNL     1      41.755 -15.447   5.014  1.00  0.00     0.033 A 
HETATM    2  C   UNL     1      42.555 -14.423   4.497  1.00  0.00     0.020 A 
HETATM    3  C   UNL     1      42.151 -13.091   4.636  1.00  0.00     0.038 A 
HETATM    4  C   UNL     1      40.948 -12.775   5.271  1.00  0.00     0.069 A 
HETATM    5  C   UNL     1      40.168 -13.798   5.814  1.00  0.00     0.038 A 
HETATM    6  C   UNL     1      40.573 -15.131   5.691  1.00  0.00     0.020 A 
ENDROOT
BRANCH   4   7
HETATM    7  O   UNL     1      40.648 -11.439   5.315  1.00  0.00    -0.342 OA
BRANCH   7   8
HETATM    8  C   UNL     1      40.337 -10.902   6.596  1.00  0.00     0.278 C 
BRANCH   8   9
HETATM    9  C   UNL     1      41.561 -10.394   7.367  1.00  0.00     0.246 C 
HETATM   10  N   UNL     1      41.984 -11.293   8.326  1.00  0.00    -0.323 N 
HETATM   11  H   UNL     1      41.408 -12.116   8.488  1.00  0.00     0.169 HD
HETATM   12  O   UNL     1      42.051  -9.294   7.126  1.00  0.00    -0.271 OA
BRANCH  10  13
HETATM   13  C   UNL     1      43.140 -11.235   9.131  1.00  0.00     0.068 A 
HETATM   14  C   UNL     1      44.258 -11.982   8.705  1.00  0.00     0.095 A 
HETATM   15  C   UNL     1      45.451 -11.926   9.432  1.00  0.00     0.039 A 
HETATM   16  C   UNL     1      45.530 -11.143  10.585  1.00  0.00     0.003 A 
HETATM   17  C   UNL     1      44.423 -10.416  11.014  1.00  0.00     0.002 A 
HETATM   18  C   UNL     1      43.229 -10.461  10.290  1.00  0.00     0.032 A 
BRANCH  14  19
HETATM   19  O   UNL     1      44.080 -12.721   7.557  1.00  0.00    -0.354 OA
HETATM   20  C   UNL     1      44.910 -13.870   7.414  1.00  0.00     0.210 C 
ENDBRANCH  14  19
ENDBRANCH  10  13
ENDBRANCH   8   9
ENDBRANCH   7   8
ENDBRANCH   4   7
BRANCH   1  21
HETATM   21  C   UNL     1      42.137 -16.875   4.877  1.00  0.00     0.270 C 
HETATM   22  N   UNL     1      43.410 -17.086   4.405  1.00  0.00    -0.259 N 
HETATM   23  H   UNL     1      43.981 -16.354   4.011  1.00  0.00     0.191 HD
HETATM   24  O   UNL     1      41.321 -17.747   5.147  1.00  0.00    -0.266 OA
BRANCH  22  25
HETATM   25  N   UNL     1      43.832 -18.338   4.155  1.00  0.00    -0.263 N 
HETATM   26  C   UNL     1      44.577 -19.065   5.042  1.00  0.00     0.030 A 
HETATM   27  C   UNL     1      44.823 -18.639   6.443  1.00  0.00     0.070 C 
HETATM   28  C   UNL     1      44.986 -20.202   4.370  1.00  0.00     0.028 A 
HETATM   29  C   UNL     1      44.494 -20.120   3.042  1.00  0.00     0.028 A 
HETATM   30  C   UNL     1      43.794 -18.932   2.923  1.00  0.00     0.030 A 
HETATM   31  C   UNL     1      43.073 -18.364   1.756  1.00  0.00     0.070 C 
ENDBRANCH  22  25
ENDBRANCH   1  21
TORSDOF 7
ENDMDL
MODEL 3
REMARK VINA RESULT:      -8.4      1.703      3.110
REMARK  7 active torsions:
REMARK  status: ('A' for Active; 'I' for Inactive)
REMARK    1  A    between atoms: N_3  and  N_4 
REMARK       I    between atoms: N_4  and  C_5 
REMARK    2  A    between atoms: C_5  and  C_6 
REMARK    3  A    between atoms: C_9  and  O_10 
REMARK    4  A    between atoms: O_10  and  C_11 
REMARK    5  A    between atoms: C_11  and  C_12 
REMARK       I    between atoms: C_12  and  N_13 
REMARK    6  A    between atoms: N_13  and  C_14 
REMARK    7  A    between atoms: C_15  and  O_16 
ROOT
HETATM    1  C   UNL     1      41.785 -15.637   5.063  1.00  0.00     0.033 A 
HETATM    2  C   UNL     1      40.450 -15.364   5.377  1.00  0.00     0.020 A 
HETATM    3  C   UNL     1      40.081 -14.074   5.768  1.00  0.00     0.038 A 
HETATM    4  C   UNL     1      41.036 -13.058   5.866  1.00  0.00     0.069 A 
HETATM    5  C   UNL     1      42.362 -13.328   5.521  1.00  0.00     0.038 A 
HETATM    6  C   UNL     1      42.735 -14.613   5.115  1.00  0.00     0.020 A 
ENDROOT
BRANCH   4   7
HETATM    7  O   UNL     1      40.556 -11.848   6.291  1.00  0.00    -0.342 OA
BRANCH   7   8
HETATM    8  C   UNL     1      41.432 -10.735   6.150  1.00  0.00     0.278 C 
BRANCH   8   9
HETATM    9  C   UNL     1      41.780 -10.050   7.477  1.00  0.00     0.246 C 
HETATM   10  N   UNL     1      42.057 -10.961   8.477  1.00  0.00    -0.323 N 
HETATM   11  H   UNL     1      41.910 -11.946   8.273  1.00  0.00     0.169 HD
HETATM   12  O   UNL     1      41.774  -8.827   7.580  1.00  0.00    -0.271 OA
BRANCH  10  13
HETATM   13  C   UNL     1      42.538 -10.712   9.780  1.00  0.00     0.068 A 
HETATM   14  C   UNL     1      43.933 -10.789   9.975  1.00  0.00     0.095 A 
HETATM   15  C   UNL     1      44.476 -10.503  11.231  1.00  0.00     0.039 A 
HETATM   16  C   UNL     1      43.639 -10.156  12.292  1.00  0.00     0.003 A 
HETATM   17  C   UNL     1      42.261 -10.092  12.103  1.00  0.00     0.002 A 
HETATM   18  C   UNL     1      41.709 -10.371  10.850  1.00  0.00     0.032 A 
BRANCH  14  19
HETATM   19  O   UNL     1      44.673 -11.138   8.868  1.00  0.00    -0.354 OA
HETATM   20  C   UNL     1      45.253 -12.439   8.884  1.00  0.00     0.210 C 
ENDBRANCH  14  19
ENDBRANCH  10  13
ENDBRANCH   8   9
ENDBRANCH   7   8
ENDBRANCH   4   7
BRANCH   1  21
HETATM   21  C   UNL     1      42.225 -16.996   4.656  1.00  0.00     0.270 C 
HETATM   22  N   UNL     1      43.551 -17.089   4.305  1.00  0.00    -0.259 N 
HETATM   23  H   UNL     1      44.140 -16.285   4.158  1.00  0.00     0.191 HD
HETATM   24  O   UNL     1      41.410 -17.909   4.622  1.00  0.00    -0.266 OA
BRANCH  22  25
HETATM   25  N   UNL     1      44.037 -18.250   3.833  1.00  0.00    -0.263 N 
HETATM   26  C   UNL     1      43.993 -18.594   2.510  1.00  0.00     0.030 A 
HETATM   27  C   UNL     1      43.599 -17.650   1.434  1.00  0.00     0.070 C 
HETATM   28  C   UNL     1      44.394 -19.915   2.435  1.00  0.00     0.028 A 
HETATM   29  C   UNL     1      44.647 -20.366   3.756  1.00  0.00     0.028 A 
HETATM   30  C   UNL     1      44.393 -19.312   4.617  1.00  0.00     0.030 A 
HETATM   31  C   UNL     1      44.509 -19.243   6.097  1.00  0.00     0.070 C 
ENDBRANCH  22  25
ENDBRANCH   1  21
TORSDOF 7
ENDMDL
MODEL 4
REMARK VINA RESULT:      -8.4      1.749      2.918
REMARK  7 active torsions:
REMARK  status: ('A' for Active; 'I' for Inactive)
REMARK    1  A    between atoms: N_3  and  N_4 
REMARK       I    between atoms: N_4  and  C_5 
REMARK    2  A    between atoms: C_5  and  C_6 
REMARK    3  A    between atoms: C_9  and  O_10 
REMARK    4  A    between atoms: O_10  and  C_11 
REMARK    5  A    between atoms: C_11  and  C_12 
REMARK       I    between atoms: C_12  and  N_13 
REMARK    6  A    between atoms: N_13  and  C_14 
REMARK    7  A    between atoms: C_15  and  O_16 
ROOT
HETATM    1  C   UNL     1      41.569 -15.246   5.242  1.00  0.00     0.033 A 
HETATM    2  C   UNL     1      40.282 -14.777   5.528  1.00  0.00     0.020 A 
HETATM    3  C   UNL     1      40.100 -13.445   5.910  1.00  0.00     0.038 A 
HETATM    4  C   UNL     1      41.192 -12.581   6.025  1.00  0.00     0.069 A 
HETATM    5  C   UNL     1      42.471 -13.044   5.708  1.00  0.00     0.038 A 
HETATM    6  C   UNL     1      42.658 -14.373   5.312  1.00  0.00     0.020 A 
ENDROOT
BRANCH   4   7
HETATM    7  O   UNL     1      40.887 -11.311   6.439  1.00  0.00    -0.342 OA
BRANCH   7   8
HETATM    8  C   UNL     1      39.878 -11.196   7.437  1.00  0.00     0.278 C 
BRANCH   8   9
HETATM    9  C   UNL     1      40.338 -10.454   8.697  1.00  0.00     0.246 C 
HETATM   10  N   UNL     1      41.119 -11.247   9.514  1.00  0.00    -0.323 N 
HETATM   11  H   UNL     1      41.222 -12.227   9.262  1.00  0.00     0.169 HD
HETATM   12  O   UNL     1      39.998  -9.294   8.909  1.00  0.00    -0.271 OA
BRANCH  10  13
HETATM   13  C   UNL     1      41.824 -10.877  10.679  1.00  0.00     0.068 A 
HETATM   14  C   UNL     1      43.189 -10.557  10.529  1.00  0.00     0.095 A 
HETATM   15  C   UNL     1      43.930 -10.134  11.637  1.00  0.00     0.039 A 
HETATM   16  C   UNL     1      43.323 -10.043  12.891  1.00  0.00     0.003 A 
HETATM   17  C   UNL     1      41.978 -10.372  13.041  1.00  0.00     0.002 A 
HETATM   18  C   UNL     1      41.228 -10.789  11.938  1.00  0.00     0.032 A 
BRANCH  14  19
HETATM   19  O   UNL     1      43.695 -10.677   9.254  1.00  0.00    -0.354 OA
HETATM   20  C   UNL     1      44.539 -11.800   9.016  1.00  0.00     0.210 C 
ENDBRANCH  14  19
ENDBRANCH  10  13
ENDBRANCH   8   9
ENDBRANCH   7   8
ENDBRANCH   4   7
BRANCH   1  21
HETATM   21  C   UNL     1      41.811 -16.657   4.846  1.00  0.00     0.270 C 
HETATM   22  N   UNL     1      42.906 -16.845   4.038  1.00  0.00    -0.259 N 
HETATM   23  H   UNL     1      43.404 -16.088   3.597  1.00  0.00     0.191 HD
HETATM   24  O   UNL     1      41.036 -17.529   5.216  1.00  0.00    -0.266 OA
BRANCH  22  25
HETATM   25  N   UNL     1      43.170 -18.068   3.544  1.00  0.00    -0.263 N 
HETATM   26  C   UNL     1      44.094 -18.912   4.095  1.00  0.00     0.030 A 
HETATM   27  C   UNL     1      44.751 -18.662   5.402  1.00  0.00     0.070 C 
HETATM   28  C   UNL     1      44.232 -19.969   3.215  1.00  0.00     0.028 A 
HETATM   29  C   UNL     1      43.389 -19.719   2.102  1.00  0.00     0.028 A 
HETATM   30  C   UNL     1      42.751 -18.510   2.319  1.00  0.00     0.030 A 
HETATM   31  C   UNL     1      41.761 -17.791   1.477  1.00  0.00     0.070 C 
ENDBRANCH  22  25
ENDBRANCH   1  21
TORSDOF 7
ENDMDL
MODEL 5
REMARK VINA RESULT:      -8.3      1.918      2.777
REMARK  7 active torsions:
REMARK  status: ('A' for Active; 'I' for Inactive)
REMARK    1  A    between atoms: N_3  and  N_4 
REMARK       I    between atoms: N_4  and  C_5 
REMARK    2  A    between atoms: C_5  and  C_6 
REMARK    3  A    between atoms: C_9  and  O_10 
REMARK    4  A    between atoms: O_10  and  C_11 
REMARK    5  A    between atoms: C_11  and  C_12 
REMARK       I    between atoms: C_12  and  N_13 
REMARK    6  A    between atoms: N_13  and  C_14 
REMARK    7  A    between atoms: C_15  and  O_16 
ROOT
HETATM    1  C   UNL     1      41.964 -15.535   4.803  1.00  0.00     0.033 A 
HETATM    2  C   UNL     1      40.758 -15.103   5.366  1.00  0.00     0.020 A 
HETATM    3  C   UNL     1      40.478 -13.735   5.436  1.00  0.00     0.038 A 
HETATM    4  C   UNL     1      41.399 -12.795   4.965  1.00  0.00     0.069 A 
HETATM    5  C   UNL     1      42.586 -13.232   4.375  1.00  0.00     0.038 A 
HETATM    6  C   UNL     1      42.866 -14.600   4.289  1.00  0.00     0.020 A 
ENDROOT
BRANCH   4   7
HETATM    7  O   UNL     1      41.023 -11.487   5.120  1.00  0.00    -0.342 OA
BRANCH   7   8
HETATM    8  C   UNL     1      40.562 -11.110   6.413  1.00  0.00     0.278 C 
BRANCH   8   9
HETATM    9  C   UNL     1      41.650 -10.501   7.304  1.00  0.00     0.246 C 
HETATM   10  N   UNL     1      42.096 -11.389   8.264  1.00  0.00    -0.323 N 
HETATM   11  H   UNL     1      41.610 -12.279   8.346  1.00  0.00     0.169 HD
HETATM   12  O   UNL     1      42.025  -9.343   7.146  1.00  0.00    -0.271 OA
BRANCH  10  13
HETATM   13  C   UNL     1      43.168 -11.236   9.168  1.00  0.00     0.068 A 
HETATM   14  C   UNL     1      42.860 -10.740  10.451  1.00  0.00     0.095 A 
HETATM   15  C   UNL     1      43.870 -10.613  11.409  1.00  0.00     0.039 A 
HETATM   16  C   UNL     1      45.183 -10.965  11.091  1.00  0.00     0.003 A 
HETATM   17  C   UNL     1      45.490 -11.443   9.819  1.00  0.00     0.002 A 
HETATM   18  C   UNL     1      44.485 -11.578   8.858  1.00  0.00     0.032 A 
BRANCH  14  19
HETATM   19  O   UNL     1      41.538 -10.423  10.668  1.00  0.00    -0.354 OA
HETATM   20  C   UNL     1      40.900 -11.092  11.752  1.00  0.00     0.210 C 
ENDBRANCH  14  19
ENDBRANCH  10  13
ENDBRANCH   8   9
ENDBRANCH   7   8
ENDBRANCH   4   7
BRANCH   1  21
HETATM   21  C   UNL     1      42.309 -16.978   4.720  1.00  0.00     0.270 C 
HETATM   22  N   UNL     1      43.582 -17.238   4.271  1.00  0.00    -0.259 N 
HETATM   23  H   UNL     1      44.176 -16.536   3.860  1.00  0.00     0.191 HD
HETATM   24  O   UNL     1      41.466 -17.817   5.010  1.00  0.00    -0.266 OA
BRANCH  22  25
HETATM   25  N   UNL     1      43.973 -18.508   4.070  1.00  0.00    -0.263 N 
HETATM   26  C   UNL     1      44.618 -19.250   5.020  1.00  0.00     0.030 A 
HETATM   27  C   UNL     1      44.772 -18.813   6.431  1.00  0.00     0.070 C 
HETATM   28  C   UNL     1      45.034 -20.411   4.396  1.00  0.00     0.028 A 
HETATM   29  C   UNL     1      44.649 -20.331   3.033  1.00  0.00     0.028 A 
HETATM   30  C   UNL     1      44.007 -19.119   2.846  1.00  0.00     0.030 A 
HETATM   31  C   UNL     1      43.400 -18.542   1.620  1.00  0.00     0.070 C 
ENDBRANCH  22  25
ENDBRANCH   1  21
TORSDOF 7
ENDMDL
MODEL 6
REMARK VINA RESULT:      -8.1      1.812      2.872
REMARK  7 active torsions:
REMARK  status: ('A' for Active; 'I' for Inactive)
REMARK    1  A    between atoms: N_3  and  N_4 
REMARK       I    between atoms: N_4  and  C_5 
REMARK    2  A    between atoms: C_5  and  C_6 
REMARK    3  A    between atoms: C_9  and  O_10 
REMARK    4  A    between atoms: O_10  and  C_11 
REMARK    5  A    between atoms: C_11  and  C_12 
REMARK       I    between atoms: C_12  and  N_13 
REMARK    6  A    between atoms: N_13  and  C_14 
REMARK    7  A    between atoms: C_15  and  O_16 
ROOT
HETATM    1  C   UNL     1      42.052 -15.379   4.620  1.00  0.00     0.033 A 
HETATM    2  C   UNL     1      42.816 -14.633   5.524  1.00  0.00     0.020 A 
HETATM    3  C   UNL     1      42.497 -13.293   5.759  1.00  0.00     0.038 A 
HETATM    4  C   UNL     1      41.431 -12.686   5.088  1.00  0.00     0.069 A 
HETATM    5  C   UNL     1      40.651 -13.443   4.211  1.00  0.00     0.038 A 
HETATM    6  C   UNL     1      40.958 -14.788   3.982  1.00  0.00     0.020 A 
ENDROOT
BRANCH   4   7
HETATM    7  O   UNL     1      41.240 -11.362   5.380  1.00  0.00    -0.342 OA
BRANCH   7   8
HETATM    8  C   UNL     1      40.577 -11.073   6.607  1.00  0.00     0.278 C 
BRANCH   8   9
HETATM    9  C   UNL     1      41.457 -10.343   7.628  1.00  0.00     0.246 C 
HETATM   10  N   UNL     1      41.542 -11.025   8.826  1.00  0.00    -0.323 N 
HETATM   11  H   UNL     1      40.959 -11.850   8.942  1.00  0.00     0.169 HD
HETATM   12  O   UNL     1      41.981  -9.267   7.358  1.00  0.00    -0.271 OA
BRANCH  10  13
HETATM   13  C   UNL     1      42.354 -10.736   9.942  1.00  0.00     0.068 A 
HETATM   14  C   UNL     1      41.704 -10.274  11.107  1.00  0.00     0.095 A 
HETATM   15  C   UNL     1      42.448 -10.018  12.262  1.00  0.00     0.039 A 
HETATM   16  C   UNL     1      43.831 -10.205  12.260  1.00  0.00     0.003 A 
HETATM   17  C   UNL     1      44.474 -10.648  11.107  1.00  0.00     0.002 A 
HETATM   18  C   UNL     1      43.738 -10.913   9.949  1.00  0.00     0.032 A 
BRANCH  14  19
HETATM   19  O   UNL     1      40.339 -10.123  11.009  1.00  0.00    -0.354 OA
HETATM   20  C   UNL     1      39.651  -9.829  12.221  1.00  0.00     0.210 C 
ENDBRANCH  14  19
ENDBRANCH  10  13
ENDBRANCH   8   9
ENDBRANCH   7   8
ENDBRANCH   4   7
BRANCH   1  21
HETATM   21  C   UNL     1      42.364 -16.802   4.329  1.00  0.00     0.270 C 
HETATM   22  N   UNL     1      43.664 -17.039   3.954  1.00  0.00    -0.259 N 
HETATM   23  H   UNL     1      44.313 -16.305   3.718  1.00  0.00     0.191 HD
HETATM   24  O   UNL     1      41.475 -17.641   4.400  1.00  0.00    -0.266 OA
BRANCH  22  25
HETATM   25  N   UNL     1      44.037 -18.275   3.578  1.00  0.00    -0.263 N 
HETATM   26  C   UNL     1      43.898 -18.739   2.299  1.00  0.00     0.030 A 
HETATM   27  C   UNL     1      43.521 -17.874   1.153  1.00  0.00     0.070 C 
HETATM   28  C   UNL     1      44.193 -20.089   2.337  1.00  0.00     0.028 A 
HETATM   29  C   UNL     1      44.479 -20.430   3.684  1.00  0.00     0.028 A 
HETATM   30  C   UNL     1      44.351 -19.283   4.447  1.00  0.00     0.030 A 
HETATM   31  C   UNL     1      44.549 -19.082   5.905  1.00  0.00     0.070 C 
ENDBRANCH  22  25
ENDBRANCH   1  21
TORSDOF 7
ENDMDL
MODEL 7
REMARK VINA RESULT:      -8.0      5.027      9.294
REMARK  7 active torsions:
REMARK  status: ('A' for Active; 'I' for Inactive)
REMARK    1  A    between atoms: N_3  and  N_4 
REMARK       I    between atoms: N_4  and  C_5 
REMARK    2  A    between atoms: C_5  and  C_6 
REMARK    3  A    between atoms: C_9  and  O_10 
REMARK    4  A    between atoms: O_10  and  C_11 
REMARK    5  A    between atoms: C_11  and  C_12 
REMARK       I    between atoms: C_12  and  N_13 
REMARK    6  A    between atoms: N_13  and  C_14 
REMARK    7  A    between atoms: C_15  and  O_16 
ROOT
HETATM    1  C   UNL     1      41.558 -14.077   2.110  1.00  0.00     0.033 A 
HETATM    2  C   UNL     1      42.853 -13.892   2.604  1.00  0.00     0.020 A 
HETATM    3  C   UNL     1      43.173 -14.333   3.891  1.00  0.00     0.038 A 
HETATM    4  C   UNL     1      42.206 -14.942   4.696  1.00  0.00     0.069 A 
HETATM    5  C   UNL     1      40.923 -15.154   4.187  1.00  0.00     0.038 A 
HETATM    6  C   UNL     1      40.601 -14.727   2.894  1.00  0.00     0.020 A 
ENDROOT
BRANCH   4   7
HETATM    7  O   UNL     1      42.633 -15.300   5.947  1.00  0.00    -0.342 OA
BRANCH   7   8
HETATM    8  C   UNL     1      43.671 -16.274   6.007  1.00  0.00     0.278 C 
BRANCH   8   9
HETATM    9  C   UNL     1      43.264 -17.646   5.458  1.00  0.00     0.246 C 
HETATM   10  N   UNL     1      44.110 -18.079   4.456  1.00  0.00    -0.323 N 
HETATM   11  H   UNL     1      44.822 -17.432   4.126  1.00  0.00     0.169 HD
HETATM   12  O   UNL     1      42.276 -18.233   5.888  1.00  0.00    -0.271 OA
BRANCH  10  13
HETATM   13  C   UNL     1      44.133 -19.333   3.810  1.00  0.00     0.068 A 
HETATM   14  C   UNL     1      43.540 -19.408   2.533  1.00  0.00     0.095 A 
HETATM   15  C   UNL     1      43.575 -20.611   1.820  1.00  0.00     0.039 A 
HETATM   16  C   UNL     1      44.183 -21.737   2.378  1.00  0.00     0.003 A 
HETATM   17  C   UNL     1      44.756 -21.666   3.645  1.00  0.00     0.002 A 
HETATM   18  C   UNL     1      44.732 -20.467   4.361  1.00  0.00     0.032 A 
BRANCH  14  19
HETATM   19  O   UNL     1      42.968 -18.245   2.070  1.00  0.00    -0.354 OA
HETATM   20  C   UNL     1      43.626 -17.613   0.975  1.00  0.00     0.210 C 
ENDBRANCH  14  19
ENDBRANCH  10  13
ENDBRANCH   8   9
ENDBRANCH   7   8
ENDBRANCH   4   7
BRANCH   1  21
HETATM   21  C   UNL     1      41.170 -13.611   0.754  1.00  0.00     0.270 C 
HETATM   22  N   UNL     1      42.099 -13.864  -0.227  1.00  0.00    -0.259 N 
HETATM   23  H   UNL     1      43.038 -14.172  -0.031  1.00  0.00     0.191 HD
HETATM   24  O   UNL     1      40.107 -13.023   0.599  1.00  0.00    -0.266 OA
BRANCH  22  25
HETATM   25  N   UNL     1      41.895 -13.406  -1.475  1.00  0.00    -0.263 N 
HETATM   26  C   UNL     1      41.367 -14.176  -2.474  1.00  0.00     0.030 A 
HETATM   27  C   UNL     1      40.775 -15.518  -2.245  1.00  0.00     0.070 C 
HETATM   28  C   UNL     1      41.494 -13.444  -3.641  1.00  0.00     0.028 A 
HETATM   29  C   UNL     1      42.145 -12.226  -3.318  1.00  0.00     0.028 A 
HETATM   30  C   UNL     1      42.408 -12.235  -1.959  1.00  0.00     0.030 A 
HETATM   31  C   UNL     1      43.059 -11.206  -1.109  1.00  0.00     0.070 C 
ENDBRANCH  22  25
ENDBRANCH   1  21
TORSDOF 7
ENDMDL
MODEL 8
REMARK VINA RESULT:      -7.9      4.544      9.423
REMARK  7 active torsions:
REMARK  status: ('A' for Active; 'I' for Inactive)
REMARK    1  A    between atoms: N_3  and  N_4 
REMARK       I    between atoms: N_4  and  C_5 
REMARK    2  A    between atoms: C_5  and  C_6 
REMARK    3  A    between atoms: C_9  and  O_10 
REMARK    4  A    between atoms: O_10  and  C_11 
REMARK    5  A    between atoms: C_11  and  C_12 
REMARK       I    between atoms: C_12  and  N_13 
REMARK    6  A    between atoms: N_13  and  C_14 
REMARK    7  A    between atoms: C_15  and  O_16 
ROOT
HETATM    1  C   UNL     1      41.984 -14.641   5.019  1.00  0.00     0.033 A 
HETATM    2  C   UNL     1      43.357 -14.534   5.265  1.00  0.00     0.020 A 
HETATM    3  C   UNL     1      43.969 -15.412   6.164  1.00  0.00     0.038 A 
HETATM    4  C   UNL     1      43.220 -16.385   6.832  1.00  0.00     0.069 A 
HETATM    5  C   UNL     1      41.857 -16.510   6.558  1.00  0.00     0.038 A 
HETATM    6  C   UNL     1      41.241 -15.643   5.649  1.00  0.00     0.020 A 
ENDROOT
BRANCH   4   7
HETATM    7  O   UNL     1      43.929 -17.161   7.710  1.00  0.00    -0.342 OA
BRANCH   7   8
HETATM    8  C   UNL     1      44.883 -18.051   7.141  1.00  0.00     0.278 C 
BRANCH   8   9
HETATM    9  C   UNL     1      44.259 -19.176   6.307  1.00  0.00     0.246 C 
HETATM   10  N   UNL     1      44.676 -19.143   4.991  1.00  0.00    -0.323 N 
HETATM   11  H   UNL     1      45.246 -18.355   4.696  1.00  0.00     0.169 HD
HETATM   12  O   UNL     1      43.469 -19.972   6.807  1.00  0.00    -0.271 OA
BRANCH  10  13
HETATM   13  C   UNL     1      44.423 -20.082   3.969  1.00  0.00     0.068 A 
HETATM   14  C   UNL     1      43.901 -19.586   2.756  1.00  0.00     0.095 A 
HETATM   15  C   UNL     1      43.676 -20.458   1.687  1.00  0.00     0.039 A 
HETATM   16  C   UNL     1      43.955 -21.819   1.824  1.00  0.00     0.003 A 
HETATM   17  C   UNL     1      44.458 -22.311   3.026  1.00  0.00     0.002 A 
HETATM   18  C   UNL     1      44.692 -21.446   4.098  1.00  0.00     0.032 A 
BRANCH  14  19
HETATM   19  O   UNL     1      43.661 -18.230   2.719  1.00  0.00    -0.354 OA
HETATM   20  C   UNL     1      42.294 -17.836   2.634  1.00  0.00     0.210 C 
ENDBRANCH  14  19
ENDBRANCH  10  13
ENDBRANCH   8   9
ENDBRANCH   7   8
ENDBRANCH   4   7
BRANCH   1  21
HETATM   21  C   UNL     1      41.289 -13.722   4.082  1.00  0.00     0.270 C 
HETATM   22  N   UNL     1      39.925 -13.664   4.242  1.00  0.00    -0.259 N 
HETATM   23  H   UNL     1      39.408 -14.313   4.814  1.00  0.00     0.191 HD
HETATM   24  O   UNL     1      41.936 -13.120   3.235  1.00  0.00    -0.266 OA
BRANCH  22  25
HETATM   25  N   UNL     1      39.183 -12.935   3.391  1.00  0.00    -0.263 N 
HETATM   26  C   UNL     1      38.842 -13.368   2.139  1.00  0.00     0.030 A 
HETATM   27  C   UNL     1      39.073 -14.755   1.664  1.00  0.00     0.070 C 
HETATM   28  C   UNL     1      38.262 -12.290   1.496  1.00  0.00     0.028 A 
HETATM   29  C   UNL     1      38.295 -11.186   2.386  1.00  0.00     0.028 A 
HETATM   30  C   UNL     1      38.899 -11.607   3.559  1.00  0.00     0.030 A 
HETATM   31  C   UNL     1      39.173 -10.858   4.811  1.00  0.00     0.070 C 
ENDBRANCH  22  25
ENDBRANCH   1  21
TORSDOF 7
ENDMDL
MODEL 9
REMARK VINA RESULT:      -7.9      1.961     10.387
REMARK  7 active torsions:
REMARK  status: ('A' for Active; 'I' for Inactive)
REMARK    1  A    between atoms: N_3  and  N_4 
REMARK       I    between atoms: N_4  and  C_5 
REMARK    2  A    between atoms: C_5  and  C_6 
REMARK    3  A    between atoms: C_9  and  O_10 
REMARK    4  A    between atoms: O_10  and  C_11 
REMARK    5  A    between atoms: C_11  and  C_12 
REMARK       I    between atoms: C_12  and  N_13 
REMARK    6  A    between atoms: N_13  and  C_14 
REMARK    7  A    between atoms: C_15  and  O_16 
ROOT
HETATM    1  C   UNL     1      41.780 -11.718   6.866  1.00  0.00     0.033 A 
HETATM    2  C   UNL     1      42.748 -12.559   6.308  1.00  0.00     0.020 A 
HETATM    3  C   UNL     1      42.390 -13.447   5.289  1.00  0.00     0.038 A 
HETATM    4  C   UNL     1      41.071 -13.514   4.834  1.00  0.00     0.069 A 
HETATM    5  C   UNL     1      40.114 -12.649   5.371  1.00  0.00     0.038 A 
HETATM    6  C   UNL     1      40.469 -11.749   6.381  1.00  0.00     0.020 A 
ENDROOT
BRANCH   4   7
HETATM    7  O   UNL     1      40.840 -14.445   3.857  1.00  0.00    -0.342 OA
BRANCH   7   8
HETATM    8  C   UNL     1      41.991 -14.995   3.223  1.00  0.00     0.278 C 
BRANCH   8   9
HETATM    9  C   UNL     1      42.014 -16.528   3.207  1.00  0.00     0.246 C 
HETATM   10  N   UNL     1      43.293 -17.029   3.062  1.00  0.00    -0.323 N 
HETATM   11  H   UNL     1      44.043 -16.365   2.885  1.00  0.00     0.169 HD
HETATM   12  O   UNL     1      40.977 -17.179   3.296  1.00  0.00    -0.271 OA
BRANCH  10  13
HETATM   13  C   UNL     1      43.721 -18.371   3.135  1.00  0.00     0.068 A 
HETATM   14  C   UNL     1      44.194 -18.827   4.383  1.00  0.00     0.095 A 
HETATM   15  C   UNL     1      44.585 -20.161   4.533  1.00  0.00     0.039 A 
HETATM   16  C   UNL     1      44.521 -21.035   3.446  1.00  0.00     0.003 A 
HETATM   17  C   UNL     1      44.066 -20.581   2.210  1.00  0.00     0.002 A 
HETATM   18  C   UNL     1      43.668 -19.251   2.053  1.00  0.00     0.032 A 
BRANCH  14  19
HETATM   19  O   UNL     1      44.218 -17.891   5.391  1.00  0.00    -0.354 OA
HETATM   20  C   UNL     1      45.230 -18.058   6.381  1.00  0.00     0.210 C 
ENDBRANCH  14  19
ENDBRANCH  10  13
ENDBRANCH   8   9
ENDBRANCH   7   8
ENDBRANCH   4   7
BRANCH   1  21
HETATM   21  C   UNL     1      42.112 -10.769   7.959  1.00  0.00     0.270 C 
HETATM   22  N   UNL     1      42.289 -11.353   9.191  1.00  0.00    -0.259 N 
HETATM   23  H   UNL     1      42.044 -12.310   9.389  1.00  0.00     0.191 HD
HETATM   24  O   UNL     1      42.170  -9.570   7.720  1.00  0.00    -0.266 OA
BRANCH  22  25
HETATM   25  N   UNL     1      42.503 -10.581  10.271  1.00  0.00    -0.263 N 
HETATM   26  C   UNL     1      43.747 -10.361  10.796  1.00  0.00     0.030 A 
HETATM   27  C   UNL     1      45.003 -10.772  10.119  1.00  0.00     0.070 C 
HETATM   28  C   UNL     1      43.555  -9.701  11.995  1.00  0.00     0.028 A 
HETATM   29  C   UNL     1      42.157  -9.561  12.193  1.00  0.00     0.028 A 
HETATM   30  C   UNL     1      41.517 -10.142  11.111  1.00  0.00     0.030 A 
HETATM   31  C   UNL     1      40.067 -10.261  10.814  1.00  0.00     0.070 C 
ENDBRANCH  22  25
ENDBRANCH   1  21
TORSDOF 7
ENDMDL
MODEL 10
REMARK VINA RESULT:      -7.8      2.952     11.041
REMARK  7 active torsions:
REMARK  status: ('A' for Active; 'I' for Inactive)
REMARK    1  A    between atoms: N_3  and  N_4 
REMARK       I    between atoms: N_4  and  C_5 
REMARK    2  A    between atoms: C_5  and  C_6 
REMARK    3  A    between atoms: C_9  and  O_10 
REMARK    4  A    between atoms: O_10  and  C_11 
REMARK    5  A    between atoms: C_11  and  C_12 
REMARK       I    between atoms: C_12  and  N_13 
REMARK    6  A    between atoms: N_13  and  C_14 
REMARK    7  A    between atoms: C_15  and  O_16 
ROOT
HETATM    1  C   UNL     1      43.029 -10.338  11.447  1.00  0.00     0.033 A 
HETATM    2  C   UNL     1      43.688 -11.416  12.048  1.00  0.00     0.020 A 
HETATM    3  C   UNL     1      44.263 -12.408  11.249  1.00  0.00     0.038 A 
HETATM    4  C   UNL     1      44.171 -12.344   9.856  1.00  0.00     0.069 A 
HETATM    5  C   UNL     1      43.540 -11.250   9.259  1.00  0.00     0.038 A 
HETATM    6  C   UNL     1      42.975 -10.247  10.053  1.00  0.00     0.020 A 
ENDROOT
BRANCH   4   7
HETATM    7  O   UNL     1      44.745 -13.392   9.187  1.00  0.00    -0.342 OA
BRANCH   7   8
HETATM    8  C   UNL     1      45.285 -13.103   7.901  1.00  0.00     0.278 C 
BRANCH   8   9
HETATM    9  C   UNL     1      44.652 -13.918   6.768  1.00  0.00     0.246 C 
HETATM   10  N   UNL     1      43.791 -14.889   7.241  1.00  0.00    -0.323 N 
HETATM   11  H   UNL     1      43.743 -15.028   8.247  1.00  0.00     0.169 HD
HETATM   12  O   UNL     1      44.936 -13.698   5.594  1.00  0.00    -0.271 OA
BRANCH  10  13
HETATM   13  C   UNL     1      42.936 -15.734   6.504  1.00  0.00     0.068 A 
HETATM   14  C   UNL     1      43.314 -17.088   6.389  1.00  0.00     0.095 A 
HETATM   15  C   UNL     1      42.484 -17.988   5.714  1.00  0.00     0.039 A 
HETATM   16  C   UNL     1      41.289 -17.544   5.145  1.00  0.00     0.003 A 
HETATM   17  C   UNL     1      40.921 -16.205   5.247  1.00  0.00     0.002 A 
HETATM   18  C   UNL     1      41.742 -15.300   5.924  1.00  0.00     0.032 A 
BRANCH  14  19
HETATM   19  O   UNL     1      44.508 -17.427   6.985  1.00  0.00    -0.354 OA
HETATM   20  C   UNL     1      45.380 -18.255   6.220  1.00  0.00     0.210 C 
ENDBRANCH  14  19
ENDBRANCH  10  13
ENDBRANCH   8   9
ENDBRANCH   7   8
ENDBRANCH   4   7
BRANCH   1  21
HETATM   21  C   UNL     1      42.392  -9.268  12.256  1.00  0.00     0.270 C 
HETATM   22  N   UNL     1      41.382  -9.699  13.083  1.00  0.00    -0.259 N 
HETATM   23  H   UNL     1      40.977 -10.620  13.026  1.00  0.00     0.191 HD
HETATM   24  O   UNL     1      42.761  -8.109  12.120  1.00  0.00    -0.266 OA
BRANCH  22  25
HETATM   25  N   UNL     1      40.673  -8.804  13.794  1.00  0.00    -0.263 N 
HETATM   26  C   UNL     1      40.921  -8.534  15.111  1.00  0.00     0.030 A 
HETATM   27  C   UNL     1      42.115  -9.036  15.837  1.00  0.00     0.070 C 
HETATM   28  C   UNL     1      39.884  -7.731  15.549  1.00  0.00     0.028 A 
HETATM   29  C   UNL     1      38.987  -7.555  14.464  1.00  0.00     0.028 A 
HETATM   30  C   UNL     1      39.490  -8.257  13.382  1.00  0.00     0.030 A 
HETATM   31  C   UNL     1      38.952  -8.397  12.005  1.00  0.00     0.070 C 
ENDBRANCH  22  25
ENDBRANCH   1  21
TORSDOF 7
ENDMDL
