MODEL 1
REMARK VINA RESULT:      -7.7      0.000      0.000
REMARK  8 active torsions:
REMARK  status: ('A' for Active; 'I' for Inactive)
REMARK    1  A    between atoms: C_4  and  C_5 
REMARK    2  A    between atoms: C_11  and  C_12 
REMARK    3  A    between atoms: C_12  and  C_13 
REMARK       I    between atoms: C_13  and  N_14 
REMARK    4  A    between atoms: N_14  and  C_15 
REMARK    5  A    between atoms: C_20  and  C_21 
REMARK       I    between atoms: C_21  and  N_22 
REMARK    6  A    between atoms: N_22  and  C_23 
REMARK    7  A    between atoms: C_23  and  C_24 
REMARK    8  A    between atoms: C_24  and  O_25 
ROOT
HETATM    1  C   UNL     1      43.633 -18.301   1.525  1.00  0.00     0.228 C 
HETATM    2  N   UNL     1      42.285 -18.111   1.773  1.00  0.00    -0.325 N 
HETATM    3  O   UNL     1      44.420 -17.451   1.112  1.00  0.00    -0.273 OA
HETATM    4  H   UNL     1      41.771 -18.925   2.116  1.00  0.00     0.169 HD
ENDROOT
BRANCH   2   5
HETATM    5  C   UNL     1      41.506 -16.949   1.571  1.00  0.00     0.057 A 
HETATM    6  C   UNL     1      40.873 -16.365   2.684  1.00  0.00     0.060 A 
HETATM    7 CL   UNL     1      41.035 -17.048   4.267  1.00  0.00    -0.082 Cl
HETATM    8  C   UNL     1      40.100 -15.212   2.544  1.00  0.00     0.027 A 
HETATM    9  C   UNL     1      39.949 -14.628   1.287  1.00  0.00     0.019 A 
HETATM   10  C   UNL     1      40.564 -15.194   0.160  1.00  0.00     0.034 A 
HETATM   11  C   UNL     1      41.331 -16.359   0.312  1.00  0.00     0.048 A 
BRANCH  10  12
HETATM   12  C   UNL     1      40.342 -14.529  -1.162  1.00  0.00     0.251 C 
HETATM   13  N   UNL     1      39.556 -15.185  -2.085  1.00  0.00    -0.355 N 
HETATM   14  H   UNL     1      39.342 -16.167  -1.971  1.00  0.00     0.162 HD
HETATM   15  O   UNL     1      40.865 -13.443  -1.395  1.00  0.00    -0.268 OA
BRANCH  13  16
HETATM   16  C   UNL     1      39.383 -14.675  -3.435  1.00  0.00     0.149 C 
BRANCH  16  17
HETATM   17  C   UNL     1      38.494 -15.598  -4.269  1.00  0.00     0.186 C 
BRANCH  17  18
HETATM   18  O   UNL     1      37.140 -15.450  -3.823  1.00  0.00    -0.394 OA
HETATM   19  C   UNL     1      36.493 -14.364  -4.472  1.00  0.00     0.201 C 
ENDBRANCH  17  18
ENDBRANCH  16  17
ENDBRANCH  13  16
ENDBRANCH  10  12
ENDBRANCH   2   5
BRANCH   1  20
HETATM   20  C   UNL     1      44.122 -19.694   1.890  1.00  0.00     0.165 C 
BRANCH  20  21
HETATM   21  C   UNL     1      44.204 -19.866   3.361  1.00  0.00     0.075 A 
HETATM   22  C   UNL     1      44.442 -20.997   4.109  1.00  0.00     0.077 A 
HETATM   23  C   UNL     1      44.718 -22.411   3.806  1.00  0.00     0.079 C 
HETATM   24  O   UNL     1      44.384 -20.644   5.426  1.00  0.00    -0.292 OA
HETATM   25  C   UNL     1      44.102 -19.299   5.424  1.00  0.00     0.204 A 
HETATM   26  N   UNL     1      43.993 -18.792   4.203  1.00  0.00    -0.224 NA
BRANCH  25  27
HETATM   27  C   UNL     1      43.925 -18.532   6.622  1.00  0.00     0.128 A 
HETATM   28  O   UNL     1      44.142 -19.043   7.879  1.00  0.00    -0.318 OA
HETATM   29  C   UNL     1      43.869 -18.064   8.777  1.00  0.00     0.142 A 
HETATM   30  C   UNL     1      43.478 -16.916   8.134  1.00  0.00     0.027 A 
HETATM   31  C   UNL     1      43.515 -17.213   6.751  1.00  0.00     0.043 A 
ENDBRANCH  25  27
ENDBRANCH  20  21
ENDBRANCH   1  20
TORSDOF 8
ENDMDL
MODEL 2
REMARK VINA RESULT:      -7.6      5.422      9.236
REMARK  8 active torsions:
REMARK  status: ('A' for Active; 'I' for Inactive)
REMARK    1  A    between atoms: C_4  and  C_5 
REMARK    2  A    between atoms: C_11  and  C_12 
REMARK    3  A    between atoms: C_12  and  C_13 
REMARK       I    between atoms: C_13  and  N_14 
REMARK    4  A    between atoms: N_14  and  C_15 
REMARK    5  A    between atoms: C_20  and  C_21 
REMARK       I    between atoms: C_21  and  N_22 
REMARK    6  A    between atoms: N_22  and  C_23 
REMARK    7  A    between atoms: C_23  and  C_24 
REMARK    8  A    between atoms: C_24  and  O_25 
ROOT
HETATM    1  C   UNL     1      45.431 -13.313   7.668  1.00  0.00     0.228 C 
HETATM    2  N   UNL     1      44.309 -14.118   7.760  1.00  0.00    -0.325 N 
HETATM    3  O   UNL     1      46.160 -13.198   6.685  1.00  0.00    -0.273 OA
HETATM    4  H   UNL     1      43.811 -14.096   8.653  1.00  0.00     0.169 HD
ENDROOT
BRANCH   2   5
HETATM    5  C   UNL     1      43.780 -15.008   6.797  1.00  0.00     0.057 A 
HETATM    6  C   UNL     1      42.820 -14.520   5.891  1.00  0.00     0.060 A 
HETATM    7 CL   UNL     1      42.289 -12.873   5.948  1.00  0.00    -0.082 Cl
HETATM    8  C   UNL     1      42.272 -15.352   4.914  1.00  0.00     0.027 A 
HETATM    9  C   UNL     1      42.676 -16.684   4.831  1.00  0.00     0.019 A 
HETATM   10  C   UNL     1      43.626 -17.196   5.727  1.00  0.00     0.034 A 
HETATM   11  C   UNL     1      44.164 -16.352   6.712  1.00  0.00     0.048 A 
BRANCH  10  12
HETATM   12  C   UNL     1      43.999 -18.640   5.597  1.00  0.00     0.251 C 
HETATM   13  N   UNL     1      44.707 -19.021   4.478  1.00  0.00    -0.355 N 
HETATM   14  H   UNL     1      44.760 -18.411   3.673  1.00  0.00     0.162 HD
HETATM   15  O   UNL     1      43.660 -19.438   6.467  1.00  0.00    -0.268 OA
BRANCH  13  16
HETATM   16  C   UNL     1      45.007 -20.417   4.207  1.00  0.00     0.149 C 
BRANCH  16  17
HETATM   17  C   UNL     1      44.473 -20.846   2.841  1.00  0.00     0.186 C 
BRANCH  17  18
HETATM   18  O   UNL     1      44.307 -22.270   2.843  1.00  0.00    -0.394 OA
HETATM   19  C   UNL     1      44.655 -22.834   4.100  1.00  0.00     0.201 C 
ENDBRANCH  17  18
ENDBRANCH  16  17
ENDBRANCH  13  16
ENDBRANCH  10  12
ENDBRANCH   2   5
BRANCH   1  20
HETATM   20  C   UNL     1      45.673 -12.472   8.912  1.00  0.00     0.165 C 
BRANCH  20  21
HETATM   21  C   UNL     1      44.425 -11.811   9.365  1.00  0.00     0.075 A 
HETATM   22  C   UNL     1      43.780 -11.870  10.579  1.00  0.00     0.077 A 
HETATM   23  C   UNL     1      44.033 -12.544  11.864  1.00  0.00     0.079 C 
HETATM   24  O   UNL     1      42.650 -11.110  10.488  1.00  0.00    -0.292 OA
HETATM   25  C   UNL     1      42.652 -10.620   9.204  1.00  0.00     0.204 A 
HETATM   26  N   UNL     1      43.704 -11.012   8.498  1.00  0.00    -0.224 NA
BRANCH  25  27
HETATM   27  C   UNL     1      41.608  -9.789   8.680  1.00  0.00     0.128 A 
HETATM   28  O   UNL     1      41.781  -8.957   7.600  1.00  0.00    -0.318 OA
HETATM   29  C   UNL     1      40.609  -8.311   7.382  1.00  0.00     0.142 A 
HETATM   30  C   UNL     1      39.664  -8.705   8.297  1.00  0.00     0.027 A 
HETATM   31  C   UNL     1      40.303  -9.655   9.130  1.00  0.00     0.043 A 
ENDBRANCH  25  27
ENDBRANCH  20  21
ENDBRANCH   1  20
TORSDOF 8
ENDMDL
MODEL 3
REMARK VINA RESULT:      -7.5      2.370      4.070
REMARK  8 active torsions:
REMARK  status: ('A' for Active; 'I' for Inactive)
REMARK    1  A    between atoms: C_4  and  C_5 
REMARK    2  A    between atoms: C_11  and  C_12 
REMARK    3  A    between atoms: C_12  and  C_13 
REMARK       I    between atoms: C_13  and  N_14 
REMARK    4  A    between atoms: N_14  and  C_15 
REMARK    5  A    between atoms: C_20  and  C_21 
REMARK       I    between atoms: C_21  and  N_22 
REMARK    6  A    between atoms: N_22  and  C_23 
REMARK    7  A    between atoms: C_23  and  C_24 
REMARK    8  A    between atoms: C_24  and  O_25 
ROOT
HETATM    1  C   UNL     1      40.672 -15.341   4.965  1.00  0.00     0.228 C 
HETATM    2  N   UNL     1      41.132 -15.557   3.678  1.00  0.00    -0.325 N 
HETATM    3  O   UNL     1      40.012 -14.375   5.345  1.00  0.00    -0.273 OA
HETATM    4  H   UNL     1      41.667 -16.415   3.529  1.00  0.00     0.169 HD
ENDROOT
BRANCH   2   5
HETATM    5  C   UNL     1      41.001 -14.724   2.543  1.00  0.00     0.057 A 
HETATM    6  C   UNL     1      42.035 -13.812   2.259  1.00  0.00     0.060 A 
HETATM    7 CL   UNL     1      43.436 -13.702   3.272  1.00  0.00    -0.082 Cl
HETATM    8  C   UNL     1      41.963 -12.973   1.147  1.00  0.00     0.027 A 
HETATM    9  C   UNL     1      40.854 -13.034   0.304  1.00  0.00     0.019 A 
HETATM   10  C   UNL     1      39.807 -13.929   0.568  1.00  0.00     0.034 A 
HETATM   11  C   UNL     1      39.886 -14.762   1.696  1.00  0.00     0.048 A 
BRANCH  10  12
HETATM   12  C   UNL     1      38.637 -13.927  -0.364  1.00  0.00     0.251 C 
HETATM   13  N   UNL     1      38.895 -13.861  -1.717  1.00  0.00    -0.355 N 
HETATM   14  H   UNL     1      39.808 -13.583  -2.051  1.00  0.00     0.162 HD
HETATM   15  O   UNL     1      37.496 -13.970   0.088  1.00  0.00    -0.268 OA
BRANCH  13  16
HETATM   16  C   UNL     1      37.823 -13.733  -2.690  1.00  0.00     0.149 C 
BRANCH  16  17
HETATM   17  C   UNL     1      37.342 -15.101  -3.172  1.00  0.00     0.186 C 
BRANCH  17  18
HETATM   18  O   UNL     1      37.898 -15.347  -4.471  1.00  0.00    -0.394 OA
HETATM   19  C   UNL     1      38.963 -16.286  -4.414  1.00  0.00     0.201 C 
ENDBRANCH  17  18
ENDBRANCH  16  17
ENDBRANCH  13  16
ENDBRANCH  10  12
ENDBRANCH   2   5
BRANCH   1  20
HETATM   20  C   UNL     1      40.992 -16.482   5.918  1.00  0.00     0.165 C 
BRANCH  20  21
HETATM   21  C   UNL     1      42.195 -17.229   5.478  1.00  0.00     0.075 A 
HETATM   22  C   UNL     1      43.522 -17.036   5.788  1.00  0.00     0.077 A 
HETATM   23  C   UNL     1      44.268 -16.094   6.639  1.00  0.00     0.079 C 
HETATM   24  O   UNL     1      44.249 -17.965   5.104  1.00  0.00    -0.292 OA
HETATM   25  C   UNL     1      43.324 -18.689   4.391  1.00  0.00     0.204 A 
HETATM   26  N   UNL     1      42.078 -18.283   4.593  1.00  0.00    -0.224 NA
BRANCH  25  27
HETATM   27  C   UNL     1      43.678 -19.759   3.504  1.00  0.00     0.128 A 
HETATM   28  O   UNL     1      44.460 -20.822   3.886  1.00  0.00    -0.318 OA
HETATM   29  C   UNL     1      44.610 -21.633   2.810  1.00  0.00     0.142 A 
HETATM   30  C   UNL     1      43.938 -21.125   1.725  1.00  0.00     0.027 A 
HETATM   31  C   UNL     1      43.338 -19.923   2.169  1.00  0.00     0.043 A 
ENDBRANCH  25  27
ENDBRANCH  20  21
ENDBRANCH   1  20
TORSDOF 8
ENDMDL
MODEL 4
REMARK VINA RESULT:      -7.5      2.014      3.835
REMARK  8 active torsions:
REMARK  status: ('A' for Active; 'I' for Inactive)
REMARK    1  A    between atoms: C_4  and  C_5 
REMARK    2  A    between atoms: C_11  and  C_12 
REMARK    3  A    between atoms: C_12  and  C_13 
REMARK       I    between atoms: C_13  and  N_14 
REMARK    4  A    between atoms: N_14  and  C_15 
REMARK    5  A    between atoms: C_20  and  C_21 
REMARK       I    between atoms: C_21  and  N_22 
REMARK    6  A    between atoms: N_22  and  C_23 
REMARK    7  A    between atoms: C_23  and  C_24 
REMARK    8  A    between atoms: C_24  and  O_25 
ROOT
HETATM    1  C   UNL     1      43.328 -15.110   5.468  1.00  0.00     0.228 C 
HETATM    2  N   UNL     1      42.117 -15.522   4.941  1.00  0.00    -0.325 N 
HETATM    3  O   UNL     1      43.990 -14.144   5.091  1.00  0.00    -0.273 OA
HETATM    4  H   UNL     1      41.696 -16.348   5.372  1.00  0.00     0.169 HD
ENDROOT
BRANCH   2   5
HETATM    5  C   UNL     1      41.400 -14.982   3.849  1.00  0.00     0.057 A 
HETATM    6  C   UNL     1      40.356 -14.076   4.116  1.00  0.00     0.060 A 
HETATM    7 CL   UNL     1      39.950 -13.631   5.739  1.00  0.00    -0.082 Cl
HETATM    8  C   UNL     1      39.622 -13.504   3.076  1.00  0.00     0.027 A 
HETATM    9  C   UNL     1      39.921 -13.833   1.755  1.00  0.00     0.019 A 
HETATM   10  C   UNL     1      40.951 -14.738   1.462  1.00  0.00     0.034 A 
HETATM   11  C   UNL     1      41.677 -15.314   2.516  1.00  0.00     0.048 A 
BRANCH  10  12
HETATM   12  C   UNL     1      41.205 -15.064   0.023  1.00  0.00     0.251 C 
HETATM   13  N   UNL     1      41.113 -14.038  -0.892  1.00  0.00    -0.355 N 
HETATM   14  H   UNL     1      40.661 -13.168  -0.642  1.00  0.00     0.162 HD
HETATM   15  O   UNL     1      41.470 -16.217  -0.304  1.00  0.00    -0.268 OA
BRANCH  13  16
HETATM   16  C   UNL     1      41.223 -14.281  -2.321  1.00  0.00     0.149 C 
BRANCH  16  17
HETATM   17  C   UNL     1      39.856 -14.562  -2.945  1.00  0.00     0.186 C 
BRANCH  17  18
HETATM   18  O   UNL     1      40.041 -15.417  -4.080  1.00  0.00    -0.394 OA
HETATM   19  C   UNL     1      38.892 -16.218  -4.323  1.00  0.00     0.201 C 
ENDBRANCH  17  18
ENDBRANCH  16  17
ENDBRANCH  13  16
ENDBRANCH  10  12
ENDBRANCH   2   5
BRANCH   1  20
HETATM   20  C   UNL     1      43.776 -15.934   6.664  1.00  0.00     0.165 C 
BRANCH  20  21
HETATM   21  C   UNL     1      43.920 -17.366   6.307  1.00  0.00     0.075 A 
HETATM   22  C   UNL     1      44.157 -18.461   7.107  1.00  0.00     0.077 A 
HETATM   23  C   UNL     1      44.337 -18.678   8.553  1.00  0.00     0.079 C 
HETATM   24  O   UNL     1      44.239 -19.557   6.300  1.00  0.00    -0.292 OA
HETATM   25  C   UNL     1      44.053 -19.077   5.025  1.00  0.00     0.204 A 
HETATM   26  N   UNL     1      43.852 -17.767   4.987  1.00  0.00    -0.224 NA
BRANCH  25  27
HETATM   27  C   UNL     1      44.096 -19.910   3.859  1.00  0.00     0.128 A 
HETATM   28  O   UNL     1      44.641 -21.172   3.857  1.00  0.00    -0.318 OA
HETATM   29  C   UNL     1      44.531 -21.669   2.601  1.00  0.00     0.142 A 
HETATM   30  C   UNL     1      43.920 -20.759   1.774  1.00  0.00     0.027 A 
HETATM   31  C   UNL     1      43.639 -19.630   2.580  1.00  0.00     0.043 A 
ENDBRANCH  25  27
ENDBRANCH  20  21
ENDBRANCH   1  20
TORSDOF 8
ENDMDL
MODEL 5
REMARK VINA RESULT:      -7.4      2.471      9.013
REMARK  8 active torsions:
REMARK  status: ('A' for Active; 'I' for Inactive)
REMARK    1  A    between atoms: C_4  and  C_5 
REMARK    2  A    between atoms: C_11  and  C_12 
REMARK    3  A    between atoms: C_12  and  C_13 
REMARK       I    between atoms: C_13  and  N_14 
REMARK    4  A    between atoms: N_14  and  C_15 
REMARK    5  A    between atoms: C_20  and  C_21 
REMARK       I    between atoms: C_21  and  N_22 
REMARK    6  A    between atoms: N_22  and  C_23 
REMARK    7  A    between atoms: C_23  and  C_24 
REMARK    8  A    between atoms: C_24  and  O_25 
ROOT
HETATM    1  C   UNL     1      41.957 -13.357   2.284  1.00  0.00     0.228 C 
HETATM    2  N   UNL     1      41.094 -14.395   2.590  1.00  0.00    -0.325 N 
HETATM    3  O   UNL     1      43.147 -13.293   2.587  1.00  0.00    -0.273 OA
HETATM    4  H   UNL     1      40.131 -14.292   2.261  1.00  0.00     0.169 HD
ENDROOT
BRANCH   2   5
HETATM    5  C   UNL     1      41.351 -15.565   3.341  1.00  0.00     0.057 A 
HETATM    6  C   UNL     1      40.820 -15.656   4.641  1.00  0.00     0.060 A 
HETATM    7 CL   UNL     1      39.877 -14.370   5.316  1.00  0.00    -0.082 Cl
HETATM    8  C   UNL     1      41.035 -16.791   5.423  1.00  0.00     0.027 A 
HETATM    9  C   UNL     1      41.785 -17.851   4.915  1.00  0.00     0.019 A 
HETATM   10  C   UNL     1      42.331 -17.782   3.625  1.00  0.00     0.034 A 
HETATM   11  C   UNL     1      42.117 -16.631   2.851  1.00  0.00     0.048 A 
BRANCH  10  12
HETATM   12  C   UNL     1      43.145 -18.945   3.150  1.00  0.00     0.251 C 
HETATM   13  N   UNL     1      44.140 -19.413   3.981  1.00  0.00    -0.355 N 
HETATM   14  H   UNL     1      44.465 -18.852   4.757  1.00  0.00     0.162 HD
HETATM   15  O   UNL     1      42.920 -19.437   2.048  1.00  0.00    -0.268 OA
BRANCH  13  16
HETATM   16  C   UNL     1      45.058 -20.456   3.555  1.00  0.00     0.149 C 
BRANCH  16  17
HETATM   17  C   UNL     1      44.721 -21.795   4.211  1.00  0.00     0.186 C 
BRANCH  17  18
HETATM   18  O   UNL     1      44.312 -22.713   3.189  1.00  0.00    -0.394 OA
HETATM   19  C   UNL     1      44.649 -22.236   1.893  1.00  0.00     0.201 C 
ENDBRANCH  17  18
ENDBRANCH  16  17
ENDBRANCH  13  16
ENDBRANCH  10  12
ENDBRANCH   2   5
BRANCH   1  20
HETATM   20  C   UNL     1      41.316 -12.273   1.432  1.00  0.00     0.165 C 
BRANCH  20  21
HETATM   21  C   UNL     1      41.273 -12.667   0.003  1.00  0.00     0.075 A 
HETATM   22  C   UNL     1      41.985 -12.183  -1.072  1.00  0.00     0.077 A 
HETATM   23  C   UNL     1      43.029 -11.162  -1.259  1.00  0.00     0.079 C 
HETATM   24  O   UNL     1      41.561 -12.848  -2.185  1.00  0.00    -0.292 OA
HETATM   25  C   UNL     1      40.592 -13.715  -1.737  1.00  0.00     0.204 A 
HETATM   26  N   UNL     1      40.394 -13.641  -0.427  1.00  0.00    -0.224 NA
BRANCH  25  27
HETATM   27  C   UNL     1      39.858 -14.589  -2.604  1.00  0.00     0.128 A 
HETATM   28  O   UNL     1      38.553 -14.364  -2.967  1.00  0.00    -0.318 OA
HETATM   29  C   UNL     1      38.166 -15.382  -3.775  1.00  0.00     0.142 A 
HETATM   30  C   UNL     1      39.195 -16.273  -3.954  1.00  0.00     0.027 A 
HETATM   31  C   UNL     1      40.283 -15.765  -3.204  1.00  0.00     0.043 A 
ENDBRANCH  25  27
ENDBRANCH  20  21
ENDBRANCH   1  20
TORSDOF 8
ENDMDL
MODEL 6
REMARK VINA RESULT:      -7.2      2.984      4.739
REMARK  8 active torsions:
REMARK  status: ('A' for Active; 'I' for Inactive)
REMARK    1  A    between atoms: C_4  and  C_5 
REMARK    2  A    between atoms: C_11  and  C_12 
REMARK    3  A    between atoms: C_12  and  C_13 
REMARK       I    between atoms: C_13  and  N_14 
REMARK    4  A    between atoms: N_14  and  C_15 
REMARK    5  A    between atoms: C_20  and  C_21 
REMARK       I    between atoms: C_21  and  N_22 
REMARK    6  A    between atoms: N_22  and  C_23 
REMARK    7  A    between atoms: C_23  and  C_24 
REMARK    8  A    between atoms: C_24  and  O_25 
ROOT
HETATM    1  C   UNL     1      40.861 -15.353   4.141  1.00  0.00     0.228 C 
HETATM    2  N   UNL     1      41.740 -15.547   3.089  1.00  0.00    -0.325 N 
HETATM    3  O   UNL     1      39.820 -14.701   4.102  1.00  0.00    -0.273 OA
HETATM    4  H   UNL     1      42.562 -16.120   3.289  1.00  0.00     0.169 HD
ENDROOT
BRANCH   2   5
HETATM    5  C   UNL     1      41.678 -15.018   1.779  1.00  0.00     0.057 A 
HETATM    6  C   UNL     1      41.302 -15.875   0.728  1.00  0.00     0.060 A 
HETATM    7 CL   UNL     1      40.925 -17.540   1.021  1.00  0.00    -0.082 Cl
HETATM    8  C   UNL     1      41.215 -15.405  -0.582  1.00  0.00     0.027 A 
HETATM    9  C   UNL     1      41.506 -14.070  -0.860  1.00  0.00     0.019 A 
HETATM   10  C   UNL     1      41.890 -13.196   0.169  1.00  0.00     0.034 A 
HETATM   11  C   UNL     1      41.983 -13.683   1.482  1.00  0.00     0.048 A 
BRANCH  10  12
HETATM   12  C   UNL     1      42.209 -11.782  -0.201  1.00  0.00     0.251 C 
HETATM   13  N   UNL     1      42.754 -11.552  -1.446  1.00  0.00    -0.355 N 
HETATM   14  H   UNL     1      43.143 -12.316  -1.984  1.00  0.00     0.162 HD
HETATM   15  O   UNL     1      41.995 -10.878   0.602  1.00  0.00    -0.268 OA
BRANCH  13  16
HETATM   16  C   UNL     1      43.207 -10.231  -1.846  1.00  0.00     0.149 C 
BRANCH  16  17
HETATM   17  C   UNL     1      42.441  -9.725  -3.068  1.00  0.00     0.186 C 
BRANCH  17  18
HETATM   18  O   UNL     1      42.664 -10.635  -4.154  1.00  0.00    -0.394 OA
HETATM   19  C   UNL     1      41.706 -10.459  -5.188  1.00  0.00     0.201 C 
ENDBRANCH  17  18
ENDBRANCH  16  17
ENDBRANCH  13  16
ENDBRANCH  10  12
ENDBRANCH   2   5
BRANCH   1  20
HETATM   20  C   UNL     1      41.255 -16.108   5.400  1.00  0.00     0.165 C 
BRANCH  20  21
HETATM   21  C   UNL     1      42.381 -17.037   5.141  1.00  0.00     0.075 A 
HETATM   22  C   UNL     1      43.666 -17.034   5.636  1.00  0.00     0.077 A 
HETATM   23  C   UNL     1      44.419 -16.190   6.579  1.00  0.00     0.079 C 
HETATM   24  O   UNL     1      44.334 -18.079   5.068  1.00  0.00    -0.292 OA
HETATM   25  C   UNL     1      43.419 -18.678   4.235  1.00  0.00     0.204 A 
HETATM   26  N   UNL     1      42.232 -18.086   4.255  1.00  0.00    -0.224 NA
BRANCH  25  27
HETATM   27  C   UNL     1      43.729 -19.812   3.415  1.00  0.00     0.128 A 
HETATM   28  O   UNL     1      44.499 -20.864   3.848  1.00  0.00    -0.318 OA
HETATM   29  C   UNL     1      44.605 -21.749   2.827  1.00  0.00     0.142 A 
HETATM   30  C   UNL     1      43.915 -21.301   1.727  1.00  0.00     0.027 A 
HETATM   31  C   UNL     1      43.351 -20.058   2.103  1.00  0.00     0.043 A 
ENDBRANCH  25  27
ENDBRANCH  20  21
ENDBRANCH   1  20
TORSDOF 8
ENDMDL
MODEL 7
REMARK VINA RESULT:      -7.1      4.013      9.592
REMARK  8 active torsions:
REMARK  status: ('A' for Active; 'I' for Inactive)
REMARK    1  A    between atoms: C_4  and  C_5 
REMARK    2  A    between atoms: C_11  and  C_12 
REMARK    3  A    between atoms: C_12  and  C_13 
REMARK       I    between atoms: C_13  and  N_14 
REMARK    4  A    between atoms: N_14  and  C_15 
REMARK    5  A    between atoms: C_20  and  C_21 
REMARK       I    between atoms: C_21  and  N_22 
REMARK    6  A    between atoms: N_22  and  C_23 
REMARK    7  A    between atoms: C_23  and  C_24 
REMARK    8  A    between atoms: C_24  and  O_25 
ROOT
HETATM    1  C   UNL     1      40.248 -14.813   3.879  1.00  0.00     0.228 C 
HETATM    2  N   UNL     1      41.492 -15.417   3.825  1.00  0.00    -0.325 N 
HETATM    3  O   UNL     1      39.737 -14.296   4.871  1.00  0.00    -0.273 OA
HETATM    4  H   UNL     1      41.769 -15.798   2.918  1.00  0.00     0.169 HD
ENDROOT
BRANCH   2   5
HETATM    5  C   UNL     1      42.419 -15.622   4.873  1.00  0.00     0.057 A 
HETATM    6  C   UNL     1      42.566 -16.923   5.391  1.00  0.00     0.060 A 
HETATM    7 CL   UNL     1      41.636 -18.245   4.771  1.00  0.00    -0.082 Cl
HETATM    8  C   UNL     1      43.474 -17.185   6.418  1.00  0.00     0.027 A 
HETATM    9  C   UNL     1      44.245 -16.148   6.942  1.00  0.00     0.019 A 
HETATM   10  C   UNL     1      44.113 -14.842   6.447  1.00  0.00     0.034 A 
HETATM   11  C   UNL     1      43.190 -14.589   5.420  1.00  0.00     0.048 A 
BRANCH  10  12
HETATM   12  C   UNL     1      44.955 -13.773   7.069  1.00  0.00     0.251 C 
HETATM   13  N   UNL     1      44.548 -13.259   8.281  1.00  0.00    -0.355 N 
HETATM   14  H   UNL     1      43.606 -13.419   8.614  1.00  0.00     0.162 HD
HETATM   15  O   UNL     1      45.963 -13.376   6.490  1.00  0.00    -0.268 OA
BRANCH  13  16
HETATM   16  C   UNL     1      45.233 -12.138   8.901  1.00  0.00     0.149 C 
BRANCH  16  17
HETATM   17  C   UNL     1      44.317 -11.394   9.873  1.00  0.00     0.186 C 
BRANCH  17  18
HETATM   18  O   UNL     1      43.967 -12.285  10.940  1.00  0.00    -0.394 OA
HETATM   19  C   UNL     1      43.299 -11.602  11.993  1.00  0.00     0.201 C 
ENDBRANCH  17  18
ENDBRANCH  16  17
ENDBRANCH  13  16
ENDBRANCH  10  12
ENDBRANCH   2   5
BRANCH   1  20
HETATM   20  C   UNL     1      39.546 -14.761   2.531  1.00  0.00     0.165 C 
BRANCH  20  21
HETATM   21  C   UNL     1      40.478 -14.347   1.454  1.00  0.00     0.075 A 
HETATM   22  C   UNL     1      41.184 -15.109   0.551  1.00  0.00     0.077 A 
HETATM   23  C   UNL     1      41.299 -16.549   0.264  1.00  0.00     0.079 C 
HETATM   24  O   UNL     1      41.931 -14.262  -0.215  1.00  0.00    -0.292 OA
HETATM   25  C   UNL     1      41.651 -13.004   0.266  1.00  0.00     0.204 A 
HETATM   26  N   UNL     1      40.778 -13.012   1.265  1.00  0.00    -0.224 NA
BRANCH  25  27
HETATM   27  C   UNL     1      42.261 -11.813  -0.249  1.00  0.00     0.128 A 
HETATM   28  O   UNL     1      42.196 -10.600   0.392  1.00  0.00    -0.318 OA
HETATM   29  C   UNL     1      42.859  -9.694  -0.368  1.00  0.00     0.142 A 
HETATM   30  C   UNL     1      43.363 -10.289  -1.498  1.00  0.00     0.027 A 
HETATM   31  C   UNL     1      42.981 -11.650  -1.422  1.00  0.00     0.043 A 
ENDBRANCH  25  27
ENDBRANCH  20  21
ENDBRANCH   1  20
TORSDOF 8
ENDMDL
MODEL 8
REMARK VINA RESULT:      -6.9      2.855      4.476
REMARK  8 active torsions:
REMARK  status: ('A' for Active; 'I' for Inactive)
REMARK    1  A    between atoms: C_4  and  C_5 
REMARK    2  A    between atoms: C_11  and  C_12 
REMARK    3  A    between atoms: C_12  and  C_13 
REMARK       I    between atoms: C_13  and  N_14 
REMARK    4  A    between atoms: N_14  and  C_15 
REMARK    5  A    between atoms: C_20  and  C_21 
REMARK       I    between atoms: C_21  and  N_22 
REMARK    6  A    between atoms: N_22  and  C_23 
REMARK    7  A    between atoms: C_23  and  C_24 
REMARK    8  A    between atoms: C_24  and  O_25 
ROOT
HETATM    1  C   UNL     1      41.889 -15.117   3.396  1.00  0.00     0.228 C 
HETATM    2  N   UNL     1      40.937 -15.626   2.530  1.00  0.00    -0.325 N 
HETATM    3  O   UNL     1      42.632 -14.163   3.173  1.00  0.00    -0.273 OA
HETATM    4  H   UNL     1      40.399 -16.426   2.872  1.00  0.00     0.169 HD
ENDROOT
BRANCH   2   5
HETATM    5  C   UNL     1      40.635 -15.219   1.210  1.00  0.00     0.057 A 
HETATM    6  C   UNL     1      41.351 -15.805   0.149  1.00  0.00     0.060 A 
HETATM    7 CL   UNL     1      42.575 -16.994   0.443  1.00  0.00    -0.082 Cl
HETATM    8  C   UNL     1      41.088 -15.448  -1.174  1.00  0.00     0.027 A 
HETATM    9  C   UNL     1      40.107 -14.497  -1.453  1.00  0.00     0.019 A 
HETATM   10  C   UNL     1      39.384 -13.893  -0.413  1.00  0.00     0.034 A 
HETATM   11  C   UNL     1      39.664 -14.254   0.915  1.00  0.00     0.048 A 
BRANCH  10  12
HETATM   12  C   UNL     1      38.361 -12.865  -0.781  1.00  0.00     0.251 C 
HETATM   13  N   UNL     1      38.207 -11.783   0.060  1.00  0.00    -0.355 N 
HETATM   14  H   UNL     1      38.589 -11.805   0.996  1.00  0.00     0.162 HD
HETATM   15  O   UNL     1      37.686 -13.012  -1.796  1.00  0.00    -0.268 OA
BRANCH  13  16
HETATM   16  C   UNL     1      37.159 -10.800  -0.151  1.00  0.00     0.149 C 
BRANCH  16  17
HETATM   17  C   UNL     1      36.001 -11.002   0.826  1.00  0.00     0.186 C 
BRANCH  17  18
HETATM   18  O   UNL     1      34.798 -11.197   0.072  1.00  0.00    -0.394 OA
HETATM   19  C   UNL     1      34.940 -10.739  -1.266  1.00  0.00     0.201 C 
ENDBRANCH  17  18
ENDBRANCH  16  17
ENDBRANCH  13  16
ENDBRANCH  10  12
ENDBRANCH   2   5
BRANCH   1  20
HETATM   20  C   UNL     1      41.903 -15.808   4.750  1.00  0.00     0.165 C 
BRANCH  20  21
HETATM   21  C   UNL     1      42.794 -16.994   4.738  1.00  0.00     0.075 A 
HETATM   22  C   UNL     1      43.855 -17.313   5.555  1.00  0.00     0.077 A 
HETATM   23  C   UNL     1      44.507 -16.683   6.715  1.00  0.00     0.079 C 
HETATM   24  O   UNL     1      44.375 -18.497   5.118  1.00  0.00    -0.292 OA
HETATM   25  C   UNL     1      43.603 -18.849   4.036  1.00  0.00     0.204 A 
HETATM   26  N   UNL     1      42.639 -17.976   3.779  1.00  0.00    -0.224 NA
BRANCH  25  27
HETATM   27  C   UNL     1      43.837 -20.029   3.256  1.00  0.00     0.128 A 
HETATM   28  O   UNL     1      44.522 -21.120   3.732  1.00  0.00    -0.318 OA
HETATM   29  C   UNL     1      44.573 -22.043   2.740  1.00  0.00     0.142 A 
HETATM   30  C   UNL     1      43.929 -21.581   1.619  1.00  0.00     0.027 A 
HETATM   31  C   UNL     1      43.455 -20.289   1.948  1.00  0.00     0.043 A 
ENDBRANCH  25  27
ENDBRANCH  20  21
ENDBRANCH   1  20
TORSDOF 8
ENDMDL
MODEL 9
REMARK VINA RESULT:      -6.9      3.000      9.446
REMARK  8 active torsions:
REMARK  status: ('A' for Active; 'I' for Inactive)
REMARK    1  A    between atoms: C_4  and  C_5 
REMARK    2  A    between atoms: C_11  and  C_12 
REMARK    3  A    between atoms: C_12  and  C_13 
REMARK       I    between atoms: C_13  and  N_14 
REMARK    4  A    between atoms: N_14  and  C_15 
REMARK    5  A    between atoms: C_20  and  C_21 
REMARK       I    between atoms: C_21  and  N_22 
REMARK    6  A    between atoms: N_22  and  C_23 
REMARK    7  A    between atoms: C_23  and  C_24 
REMARK    8  A    between atoms: C_24  and  O_25 
ROOT
HETATM    1  C   UNL     1      42.595 -17.049   1.685  1.00  0.00     0.228 C 
HETATM    2  N   UNL     1      42.299 -17.452   2.975  1.00  0.00    -0.325 N 
HETATM    3  O   UNL     1      43.704 -16.719   1.267  1.00  0.00    -0.273 OA
HETATM    4  H   UNL     1      41.323 -17.695   3.158  1.00  0.00     0.169 HD
ENDROOT
BRANCH   2   5
HETATM    5  C   UNL     1      43.158 -17.531   4.095  1.00  0.00     0.057 A 
HETATM    6  C   UNL     1      43.974 -18.670   4.234  1.00  0.00     0.060 A 
HETATM    7 CL   UNL     1      43.929 -19.952   3.070  1.00  0.00    -0.082 Cl
HETATM    8  C   UNL     1      44.848 -18.796   5.314  1.00  0.00     0.027 A 
HETATM    9  C   UNL     1      44.917 -17.784   6.271  1.00  0.00     0.019 A 
HETATM   10  C   UNL     1      44.110 -16.642   6.159  1.00  0.00     0.034 A 
HETATM   11  C   UNL     1      43.228 -16.531   5.073  1.00  0.00     0.048 A 
BRANCH  10  12
HETATM   12  C   UNL     1      44.218 -15.605   7.232  1.00  0.00     0.251 C 
HETATM   13  N   UNL     1      44.787 -14.394   6.899  1.00  0.00    -0.355 N 
HETATM   14  H   UNL     1      45.322 -14.298   6.046  1.00  0.00     0.162 HD
HETATM   15  O   UNL     1      43.818 -15.856   8.366  1.00  0.00    -0.268 OA
BRANCH  13  16
HETATM   16  C   UNL     1      45.043 -13.374   7.901  1.00  0.00     0.149 C 
BRANCH  16  17
HETATM   17  C   UNL     1      43.907 -12.353   7.960  1.00  0.00     0.186 C 
BRANCH  17  18
HETATM   18  O   UNL     1      44.289 -11.297   8.851  1.00  0.00    -0.394 OA
HETATM   19  C   UNL     1      43.912 -11.583  10.191  1.00  0.00     0.201 C 
ENDBRANCH  17  18
ENDBRANCH  16  17
ENDBRANCH  13  16
ENDBRANCH  10  12
ENDBRANCH   2   5
BRANCH   1  20
HETATM   20  C   UNL     1      41.403 -17.117   0.744  1.00  0.00     0.165 C 
BRANCH  20  21
HETATM   21  C   UNL     1      41.001 -15.764   0.287  1.00  0.00     0.075 A 
HETATM   22  C   UNL     1      40.092 -14.881   0.825  1.00  0.00     0.077 A 
HETATM   23  C   UNL     1      39.207 -14.880   2.002  1.00  0.00     0.079 C 
HETATM   24  O   UNL     1      40.053 -13.782   0.018  1.00  0.00    -0.292 OA
HETATM   25  C   UNL     1      40.946 -14.048  -0.993  1.00  0.00     0.204 A 
HETATM   26  N   UNL     1      41.541 -15.226  -0.864  1.00  0.00    -0.224 NA
BRANCH  25  27
HETATM   27  C   UNL     1      41.187 -13.150  -2.084  1.00  0.00     0.128 A 
HETATM   28  O   UNL     1      40.225 -12.312  -2.593  1.00  0.00    -0.318 OA
HETATM   29  C   UNL     1      40.780 -11.617  -3.617  1.00  0.00     0.142 A 
HETATM   30  C   UNL     1      42.093 -11.979  -3.789  1.00  0.00     0.027 A 
HETATM   31  C   UNL     1      42.357 -12.962  -2.805  1.00  0.00     0.043 A 
ENDBRANCH  25  27
ENDBRANCH  20  21
ENDBRANCH   1  20
TORSDOF 8
ENDMDL
MODEL 10
REMARK VINA RESULT:      -6.9      3.168      4.832
REMARK  8 active torsions:
REMARK  status: ('A' for Active; 'I' for Inactive)
REMARK    1  A    between atoms: C_4  and  C_5 
REMARK    2  A    between atoms: C_11  and  C_12 
REMARK    3  A    between atoms: C_12  and  C_13 
REMARK       I    between atoms: C_13  and  N_14 
REMARK    4  A    between atoms: N_14  and  C_15 
REMARK    5  A    between atoms: C_20  and  C_21 
REMARK       I    between atoms: C_21  and  N_22 
REMARK    6  A    between atoms: N_22  and  C_23 
REMARK    7  A    between atoms: C_23  and  C_24 
REMARK    8  A    between atoms: C_24  and  O_25 
ROOT
HETATM    1  C   UNL     1      42.052 -17.126   0.870  1.00  0.00     0.228 C 
HETATM    2  N   UNL     1      42.122 -15.778   0.566  1.00  0.00    -0.325 N 
HETATM    3  O   UNL     1      41.024 -17.793   0.968  1.00  0.00    -0.273 OA
HETATM    4  H   UNL     1      43.060 -15.374   0.521  1.00  0.00     0.169 HD
ENDROOT
BRANCH   2   5
HETATM    5  C   UNL     1      41.064 -14.865   0.352  1.00  0.00     0.057 A 
HETATM    6  C   UNL     1      40.538 -14.741  -0.948  1.00  0.00     0.060 A 
HETATM    7 CL   UNL     1      41.168 -15.676  -2.262  1.00  0.00    -0.082 Cl
HETATM    8  C   UNL     1      39.486 -13.864  -1.213  1.00  0.00     0.027 A 
HETATM    9  C   UNL     1      38.948 -13.096  -0.181  1.00  0.00     0.019 A 
HETATM   10  C   UNL     1      39.458 -13.196   1.122  1.00  0.00     0.034 A 
HETATM   11  C   UNL     1      40.522 -14.075   1.375  1.00  0.00     0.048 A 
BRANCH  10  12
HETATM   12  C   UNL     1      38.848 -12.327   2.177  1.00  0.00     0.251 C 
HETATM   13  N   UNL     1      39.375 -12.398   3.449  1.00  0.00    -0.355 N 
HETATM   14  H   UNL     1      39.975 -13.169   3.712  1.00  0.00     0.162 HD
HETATM   15  O   UNL     1      37.904 -11.595   1.894  1.00  0.00    -0.268 OA
BRANCH  13  16
HETATM   16  C   UNL     1      38.772 -11.684   4.562  1.00  0.00     0.149 C 
BRANCH  16  17
HETATM   17  C   UNL     1      39.828 -10.956   5.393  1.00  0.00     0.186 C 
BRANCH  17  18
HETATM   18  O   UNL     1      40.866 -10.503   4.514  1.00  0.00    -0.394 OA
HETATM   19  C   UNL     1      41.488  -9.323   5.005  1.00  0.00     0.201 C 
ENDBRANCH  17  18
ENDBRANCH  16  17
ENDBRANCH  13  16
ENDBRANCH  10  12
ENDBRANCH   2   5
BRANCH   1  20
HETATM   20  C   UNL     1      43.417 -17.783   1.008  1.00  0.00     0.165 C 
BRANCH  20  21
HETATM   21  C   UNL     1      43.676 -18.193   2.409  1.00  0.00     0.075 A 
HETATM   22  C   UNL     1      44.071 -19.410   2.918  1.00  0.00     0.077 A 
HETATM   23  C   UNL     1      44.401 -20.725   2.344  1.00  0.00     0.079 C 
HETATM   24  O   UNL     1      44.141 -19.291   4.275  1.00  0.00    -0.292 OA
HETATM   25  C   UNL     1      43.774 -17.992   4.539  1.00  0.00     0.204 A 
HETATM   26  N   UNL     1      43.494 -17.298   3.445  1.00  0.00    -0.224 NA
BRANCH  25  27
HETATM   27  C   UNL     1      43.685 -17.456   5.866  1.00  0.00     0.128 A 
HETATM   28  O   UNL     1      43.214 -18.176   6.937  1.00  0.00    -0.318 OA
HETATM   29  C   UNL     1      43.250 -17.371   8.027  1.00  0.00     0.142 A 
HETATM   30  C   UNL     1      43.741 -16.132   7.695  1.00  0.00     0.027 A 
HETATM   31  C   UNL     1      44.022 -16.185   6.308  1.00  0.00     0.043 A 
ENDBRANCH  25  27
ENDBRANCH  20  21
ENDBRANCH   1  20
TORSDOF 8
ENDMDL
