MODEL 1
REMARK VINA RESULT:      -9.7      0.000      0.000
REMARK  6 active torsions:
REMARK  status: ('A' for Active; 'I' for Inactive)
REMARK    1  A    between atoms: C_4  and  C_5 
REMARK    2  A    between atoms: C_5  and  N_6 
REMARK    3  A    between atoms: C_9  and  C_10 
REMARK       I    between atoms: C_10  and  N_11 
REMARK    4  A    between atoms: N_11  and  N_12 
REMARK    5  A    between atoms: C_13  and  C_14 
REMARK    6  A    between atoms: C_15  and  O_16 
ROOT
HETATM    1  C   UNL     1      44.826 -13.673   7.648  1.00  0.00     0.271 C 
HETATM    2  N   UNL     1      44.000 -14.784   7.585  1.00  0.00    -0.243 N 
HETATM    3  O   UNL     1      45.826 -13.515   6.953  1.00  0.00    -0.266 OA
HETATM    4  H   UNL     1      43.134 -14.877   8.099  1.00  0.00     0.192 HD
ENDROOT
BRANCH   2   5
HETATM    5  N   UNL     1      44.375 -15.796   6.754  1.00  0.00    -0.183 NA
HETATM    6  C   UNL     1      43.439 -16.523   6.227  1.00  0.00     0.153 C 
BRANCH   6   7
HETATM    7  C   UNL     1      43.773 -17.659   5.326  1.00  0.00     0.027 A 
HETATM    8  C   UNL     1      44.207 -18.874   5.889  1.00  0.00     0.078 A 
HETATM    9  C   UNL     1      44.529 -19.956   5.083  1.00  0.00     0.038 A 
HETATM   10  C   UNL     1      44.418 -19.845   3.702  1.00  0.00     0.015 A 
HETATM   11  C   UNL     1      43.984 -18.653   3.106  1.00  0.00    -0.025 A 
HETATM   12  C   UNL     1      43.650 -17.527   3.908  1.00  0.00    -0.012 A 
HETATM   13  C   UNL     1      43.880 -18.587   1.708  1.00  0.00     0.012 A 
HETATM   14  C   UNL     1      43.214 -16.362   3.220  1.00  0.00     0.013 A 
HETATM   15  C   UNL     1      43.116 -16.315   1.826  1.00  0.00     0.001 A 
HETATM   16  C   UNL     1      43.449 -17.428   1.070  1.00  0.00     0.001 A 
BRANCH   8  17
HETATM   17  O   UNL     1      44.348 -19.093   7.235  1.00  0.00    -0.360 OA
HETATM   18  H   UNL     1      44.020 -19.994   7.449  1.00  0.00     0.217 HD
ENDBRANCH   8  17
ENDBRANCH   6   7
ENDBRANCH   2   5
BRANCH   1  19
HETATM   19  C   UNL     1      44.496 -12.601   8.631  1.00  0.00     0.036 A 
HETATM   20  C   UNL     1      45.267 -12.299   9.752  1.00  0.00     0.034 A 
HETATM   21  C   UNL     1      44.909 -11.215  10.554  1.00  0.00     0.091 A 
HETATM   22  N   UNL     1      43.834 -10.450  10.253  1.00  0.00    -0.362 N 
HETATM   23  C   UNL     1      43.067 -10.734   9.176  1.00  0.00     0.091 A 
HETATM   24  C   UNL     1      43.378 -11.807   8.355  1.00  0.00     0.034 A 
BRANCH  22  25
HETATM   25  C   UNL     1      43.525  -9.251  11.077  1.00  0.00     0.166 C 
BRANCH  25  26
HETATM   26  C   UNL     1      42.902  -9.614  12.398  1.00  0.00    -0.040 A 
HETATM   27  C   UNL     1      43.426  -9.077  13.585  1.00  0.00     0.009 A 
HETATM   28  C   UNL     1      42.831  -9.359  14.817  1.00  0.00     0.001 A 
HETATM   29  C   UNL     1      41.704 -10.173  14.876  1.00  0.00     0.000 A 
HETATM   30  C   UNL     1      41.166 -10.705  13.707  1.00  0.00     0.001 A 
HETATM   31  C   UNL     1      41.757 -10.424  12.473  1.00  0.00     0.009 A 
ENDBRANCH  25  26
ENDBRANCH  22  25
ENDBRANCH   1  19
TORSDOF 6
ENDMDL
MODEL 2
REMARK VINA RESULT:      -8.9      2.644      3.730
REMARK  6 active torsions:
REMARK  status: ('A' for Active; 'I' for Inactive)
REMARK    1  A    between atoms: C_4  and  C_5 
REMARK    2  A    between atoms: C_5  and  N_6 
REMARK    3  A    between atoms: C_9  and  C_10 
REMARK       I    between atoms: C_10  and  N_11 
REMARK    4  A    between atoms: N_11  and  N_12 
REMARK    5  A    between atoms: C_13  and  C_14 
REMARK    6  A    between atoms: C_15  and  O_16 
ROOT
HETATM    1  C   UNL     1      40.703 -13.250   5.585  1.00  0.00     0.271 C 
HETATM    2  N   UNL     1      41.500 -14.351   5.860  1.00  0.00    -0.243 N 
HETATM    3  O   UNL     1      40.095 -13.084   4.532  1.00  0.00    -0.266 OA
HETATM    4  H   UNL     1      41.935 -14.526   6.756  1.00  0.00     0.192 HD
ENDROOT
BRANCH   2   5
HETATM    5  N   UNL     1      41.678 -15.260   4.862  1.00  0.00    -0.183 NA
HETATM    6  C   UNL     1      42.892 -15.629   4.591  1.00  0.00     0.153 C 
BRANCH   6   7
HETATM    7  C   UNL     1      43.166 -16.601   3.499  1.00  0.00     0.027 A 
HETATM    8  C   UNL     1      42.881 -16.236   2.169  1.00  0.00     0.078 A 
HETATM    9  C   UNL     1      43.122 -17.116   1.124  1.00  0.00     0.038 A 
HETATM   10  C   UNL     1      43.656 -18.372   1.388  1.00  0.00     0.015 A 
HETATM   11  C   UNL     1      43.957 -18.768   2.698  1.00  0.00    -0.025 A 
HETATM   12  C   UNL     1      43.718 -17.888   3.790  1.00  0.00    -0.012 A 
HETATM   13  C   UNL     1      44.501 -20.043   2.917  1.00  0.00     0.012 A 
HETATM   14  C   UNL     1      44.058 -18.370   5.083  1.00  0.00     0.013 A 
HETATM   15  C   UNL     1      44.599 -19.643   5.282  1.00  0.00     0.001 A 
HETATM   16  C   UNL     1      44.821 -20.479   4.200  1.00  0.00     0.001 A 
BRANCH   8  17
HETATM   17  O   UNL     1      42.359 -15.025   1.798  1.00  0.00    -0.360 OA
HETATM   18  H   UNL     1      41.465 -15.166   1.415  1.00  0.00     0.217 HD
ENDBRANCH   8  17
ENDBRANCH   6   7
ENDBRANCH   2   5
BRANCH   1  19
HETATM   19  C   UNL     1      40.583 -12.187   6.623  1.00  0.00     0.036 A 
HETATM   20  C   UNL     1      39.456 -11.990   7.419  1.00  0.00     0.034 A 
HETATM   21  C   UNL     1      39.490 -11.020   8.421  1.00  0.00     0.091 A 
HETATM   22  N   UNL     1      40.601 -10.277   8.635  1.00  0.00    -0.362 N 
HETATM   23  C   UNL     1      41.701 -10.445   7.866  1.00  0.00     0.091 A 
HETATM   24  C   UNL     1      41.711 -11.392   6.852  1.00  0.00     0.034 A 
BRANCH  22  25
HETATM   25  C   UNL     1      40.637  -9.309   9.763  1.00  0.00     0.166 C 
BRANCH  25  26
HETATM   26  C   UNL     1      41.369  -9.856  10.960  1.00  0.00    -0.040 A 
HETATM   27  C   UNL     1      42.703  -9.483  11.189  1.00  0.00     0.009 A 
HETATM   28  C   UNL     1      43.384  -9.938  12.321  1.00  0.00     0.001 A 
HETATM   29  C   UNL     1      42.740 -10.763  13.237  1.00  0.00     0.000 A 
HETATM   30  C   UNL     1      41.413 -11.133  13.029  1.00  0.00     0.001 A 
HETATM   31  C   UNL     1      40.728 -10.679  11.900  1.00  0.00     0.009 A 
ENDBRANCH  25  26
ENDBRANCH  22  25
ENDBRANCH   1  19
TORSDOF 6
ENDMDL
MODEL 3
REMARK VINA RESULT:      -8.9      2.245      3.200
REMARK  6 active torsions:
REMARK  status: ('A' for Active; 'I' for Inactive)
REMARK    1  A    between atoms: C_4  and  C_5 
REMARK    2  A    between atoms: C_5  and  N_6 
REMARK    3  A    between atoms: C_9  and  C_10 
REMARK       I    between atoms: C_10  and  N_11 
REMARK    4  A    between atoms: N_11  and  N_12 
REMARK    5  A    between atoms: C_13  and  C_14 
REMARK    6  A    between atoms: C_15  and  O_16 
ROOT
HETATM    1  C   UNL     1      41.688 -12.633   5.853  1.00  0.00     0.271 C 
HETATM    2  N   UNL     1      41.856 -13.996   6.047  1.00  0.00    -0.243 N 
HETATM    3  O   UNL     1      41.568 -12.102   4.753  1.00  0.00    -0.266 OA
HETATM    4  H   UNL     1      41.874 -14.441   6.955  1.00  0.00     0.192 HD
ENDROOT
BRANCH   2   5
HETATM    5  N   UNL     1      41.976 -14.775   4.937  1.00  0.00    -0.183 NA
HETATM    6  C   UNL     1      43.035 -15.518   4.833  1.00  0.00     0.153 C 
BRANCH   6   7
HETATM    7  C   UNL     1      43.246 -16.380   3.639  1.00  0.00     0.027 A 
HETATM    8  C   UNL     1      42.992 -15.850   2.359  1.00  0.00     0.078 A 
HETATM    9  C   UNL     1      43.175 -16.623   1.221  1.00  0.00     0.038 A 
HETATM   10  C   UNL     1      43.621 -17.934   1.341  1.00  0.00     0.015 A 
HETATM   11  C   UNL     1      43.889 -18.493   2.598  1.00  0.00    -0.025 A 
HETATM   12  C   UNL     1      43.707 -17.725   3.782  1.00  0.00    -0.012 A 
HETATM   13  C   UNL     1      44.344 -19.818   2.672  1.00  0.00     0.012 A 
HETATM   14  C   UNL     1      44.009 -18.370   5.012  1.00  0.00     0.013 A 
HETATM   15  C   UNL     1      44.461 -19.692   5.066  1.00  0.00     0.001 A 
HETATM   16  C   UNL     1      44.629 -20.416   3.897  1.00  0.00     0.001 A 
BRANCH   8  17
HETATM   17  O   UNL     1      42.555 -14.572   2.127  1.00  0.00    -0.360 OA
HETATM   18  H   UNL     1      42.967 -14.238   1.299  1.00  0.00     0.217 HD
ENDBRANCH   8  17
ENDBRANCH   6   7
ENDBRANCH   2   5
BRANCH   1  19
HETATM   19  C   UNL     1      41.666 -11.746   7.051  1.00  0.00     0.036 A 
HETATM   20  C   UNL     1      42.775 -11.475   7.849  1.00  0.00     0.034 A 
HETATM   21  C   UNL     1      42.657 -10.557   8.893  1.00  0.00     0.091 A 
HETATM   22  N   UNL     1      41.486  -9.922   9.133  1.00  0.00    -0.362 N 
HETATM   23  C   UNL     1      40.396 -10.179   8.377  1.00  0.00     0.091 A 
HETATM   24  C   UNL     1      40.463 -11.090   7.334  1.00  0.00     0.034 A 
BRANCH  22  25
HETATM   25  C   UNL     1      41.412  -8.887  10.199  1.00  0.00     0.166 C 
BRANCH  25  26
HETATM   26  C   UNL     1      41.775  -9.437  11.553  1.00  0.00    -0.040 A 
HETATM   27  C   UNL     1      42.961  -9.019  12.178  1.00  0.00     0.009 A 
HETATM   28  C   UNL     1      43.290  -9.477  13.455  1.00  0.00     0.001 A 
HETATM   29  C   UNL     1      42.438 -10.349  14.124  1.00  0.00     0.000 A 
HETATM   30  C   UNL     1      41.253 -10.765  13.522  1.00  0.00     0.001 A 
HETATM   31  C   UNL     1      40.918 -10.308  12.245  1.00  0.00     0.009 A 
ENDBRANCH  25  26
ENDBRANCH  22  25
ENDBRANCH   1  19
TORSDOF 6
ENDMDL
MODEL 4
REMARK VINA RESULT:      -8.8      7.278     11.304
REMARK  6 active torsions:
REMARK  status: ('A' for Active; 'I' for Inactive)
REMARK    1  A    between atoms: C_4  and  C_5 
REMARK    2  A    between atoms: C_5  and  N_6 
REMARK    3  A    between atoms: C_9  and  C_10 
REMARK       I    between atoms: C_10  and  N_11 
REMARK    4  A    between atoms: N_11  and  N_12 
REMARK    5  A    between atoms: C_13  and  C_14 
REMARK    6  A    between atoms: C_15  and  O_16 
ROOT
HETATM    1  C   UNL     1      40.701 -15.183   1.068  1.00  0.00     0.271 C 
HETATM    2  N   UNL     1      40.918 -16.545   0.928  1.00  0.00    -0.243 N 
HETATM    3  O   UNL     1      41.032 -14.529   2.053  1.00  0.00    -0.266 OA
HETATM    4  H   UNL     1      40.719 -17.067   0.085  1.00  0.00     0.192 HD
ENDROOT
BRANCH   2   5
HETATM    5  N   UNL     1      41.458 -17.204   1.990  1.00  0.00    -0.183 NA
HETATM    6  C   UNL     1      42.731 -17.455   1.961  1.00  0.00     0.153 C 
BRANCH   6   7
HETATM    7  C   UNL     1      43.387 -18.190   3.075  1.00  0.00     0.027 A 
HETATM    8  C   UNL     1      43.646 -17.514   4.282  1.00  0.00     0.078 A 
HETATM    9  C   UNL     1      44.258 -18.165   5.344  1.00  0.00     0.038 A 
HETATM   10  C   UNL     1      44.615 -19.503   5.221  1.00  0.00     0.015 A 
HETATM   11  C   UNL     1      44.368 -20.209   4.035  1.00  0.00    -0.025 A 
HETATM   12  C   UNL     1      43.745 -19.566   2.930  1.00  0.00    -0.012 A 
HETATM   13  C   UNL     1      44.739 -21.560   3.957  1.00  0.00     0.012 A 
HETATM   14  C   UNL     1      43.528 -20.361   1.772  1.00  0.00     0.013 A 
HETATM   15  C   UNL     1      43.904 -21.705   1.711  1.00  0.00     0.001 A 
HETATM   16  C   UNL     1      44.509 -22.305   2.804  1.00  0.00     0.001 A 
BRANCH   8  17
HETATM   17  O   UNL     1      43.333 -16.200   4.512  1.00  0.00    -0.360 OA
HETATM   18  H   UNL     1      44.091 -15.637   4.240  1.00  0.00     0.217 HD
ENDBRANCH   8  17
ENDBRANCH   6   7
ENDBRANCH   2   5
BRANCH   1  19
HETATM   19  C   UNL     1      40.010 -14.459  -0.037  1.00  0.00     0.036 A 
HETATM   20  C   UNL     1      38.790 -13.799   0.098  1.00  0.00     0.034 A 
HETATM   21  C   UNL     1      38.281 -13.078  -0.982  1.00  0.00     0.091 A 
HETATM   22  N   UNL     1      38.958 -13.004  -2.152  1.00  0.00    -0.362 N 
HETATM   23  C   UNL     1      40.138 -13.646  -2.306  1.00  0.00     0.091 A 
HETATM   24  C   UNL     1      40.679 -14.382  -1.263  1.00  0.00     0.034 A 
BRANCH  22  25
HETATM   25  C   UNL     1      38.432 -12.160  -3.258  1.00  0.00     0.166 C 
BRANCH  25  26
HETATM   26  C   UNL     1      37.102 -12.650  -3.764  1.00  0.00    -0.040 A 
HETATM   27  C   UNL     1      36.020 -11.758  -3.851  1.00  0.00     0.009 A 
HETATM   28  C   UNL     1      34.792 -12.179  -4.367  1.00  0.00     0.001 A 
HETATM   29  C   UNL     1      34.633 -13.488  -4.807  1.00  0.00     0.000 A 
HETATM   30  C   UNL     1      35.699 -14.382  -4.736  1.00  0.00     0.001 A 
HETATM   31  C   UNL     1      36.930 -13.965  -4.224  1.00  0.00     0.009 A 
ENDBRANCH  25  26
ENDBRANCH  22  25
ENDBRANCH   1  19
TORSDOF 6
ENDMDL
MODEL 5
REMARK VINA RESULT:      -8.6      7.004     10.267
REMARK  6 active torsions:
REMARK  status: ('A' for Active; 'I' for Inactive)
REMARK    1  A    between atoms: C_4  and  C_5 
REMARK    2  A    between atoms: C_5  and  N_6 
REMARK    3  A    between atoms: C_9  and  C_10 
REMARK       I    between atoms: C_10  and  N_11 
REMARK    4  A    between atoms: N_11  and  N_12 
REMARK    5  A    between atoms: C_13  and  C_14 
REMARK    6  A    between atoms: C_15  and  O_16 
ROOT
HETATM    1  C   UNL     1      40.608 -15.929   1.480  1.00  0.00     0.271 C 
HETATM    2  N   UNL     1      41.685 -15.533   2.258  1.00  0.00    -0.243 N 
HETATM    3  O   UNL     1      40.014 -16.995   1.614  1.00  0.00    -0.266 OA
HETATM    4  H   UNL     1      42.122 -14.623   2.200  1.00  0.00     0.192 HD
ENDROOT
BRANCH   2   5
HETATM    5  N   UNL     1      42.157 -16.424   3.173  1.00  0.00    -0.183 NA
HETATM    6  C   UNL     1      43.183 -17.145   2.839  1.00  0.00     0.153 C 
BRANCH   6   7
HETATM    7  C   UNL     1      43.742 -18.155   3.778  1.00  0.00     0.027 A 
HETATM    8  C   UNL     1      44.058 -17.765   5.094  1.00  0.00     0.078 A 
HETATM    9  C   UNL     1      44.582 -18.678   5.999  1.00  0.00     0.038 A 
HETATM   10  C   UNL     1      44.791 -19.995   5.607  1.00  0.00     0.015 A 
HETATM   11  C   UNL     1      44.483 -20.420   4.308  1.00  0.00    -0.025 A 
HETATM   12  C   UNL     1      43.948 -19.506   3.359  1.00  0.00    -0.012 A 
HETATM   13  C   UNL     1      44.705 -21.761   3.959  1.00  0.00     0.012 A 
HETATM   14  C   UNL     1      43.659 -20.025   2.068  1.00  0.00     0.013 A 
HETATM   15  C   UNL     1      43.887 -21.364   1.737  1.00  0.00     0.001 A 
HETATM   16  C   UNL     1      44.409 -22.232   2.683  1.00  0.00     0.001 A 
BRANCH   8  17
HETATM   17  O   UNL     1      43.888 -16.497   5.584  1.00  0.00    -0.360 OA
HETATM   18  H   UNL     1      43.026 -16.449   6.054  1.00  0.00     0.217 HD
ENDBRANCH   8  17
ENDBRANCH   6   7
ENDBRANCH   2   5
BRANCH   1  19
HETATM   19  C   UNL     1      40.144 -15.016   0.396  1.00  0.00     0.036 A 
HETATM   20  C   UNL     1      39.121 -14.082   0.542  1.00  0.00     0.034 A 
HETATM   21  C   UNL     1      38.832 -13.217  -0.514  1.00  0.00     0.091 A 
HETATM   22  N   UNL     1      39.535 -13.268  -1.670  1.00  0.00    -0.362 N 
HETATM   23  C   UNL     1      40.524 -14.175  -1.834  1.00  0.00     0.091 A 
HETATM   24  C   UNL     1      40.842 -15.061  -0.815  1.00  0.00     0.034 A 
BRANCH  22  25
HETATM   25  C   UNL     1      39.261 -12.280  -2.747  1.00  0.00     0.166 C 
BRANCH  25  26
HETATM   26  C   UNL     1      40.442 -11.385  -3.012  1.00  0.00    -0.040 A 
HETATM   27  C   UNL     1      40.887 -10.506  -2.011  1.00  0.00     0.009 A 
HETATM   28  C   UNL     1      42.012  -9.705  -2.218  1.00  0.00     0.001 A 
HETATM   29  C   UNL     1      42.708  -9.776  -3.420  1.00  0.00     0.000 A 
HETATM   30  C   UNL     1      42.285 -10.651  -4.419  1.00  0.00     0.001 A 
HETATM   31  C   UNL     1      41.162 -11.456  -4.216  1.00  0.00     0.009 A 
ENDBRANCH  25  26
ENDBRANCH  22  25
ENDBRANCH   1  19
TORSDOF 6
ENDMDL
MODEL 6
REMARK VINA RESULT:      -8.5      2.718     10.974
REMARK  6 active torsions:
REMARK  status: ('A' for Active; 'I' for Inactive)
REMARK    1  A    between atoms: C_4  and  C_5 
REMARK    2  A    between atoms: C_5  and  N_6 
REMARK    3  A    between atoms: C_9  and  C_10 
REMARK       I    between atoms: C_10  and  N_11 
REMARK    4  A    between atoms: N_11  and  N_12 
REMARK    5  A    between atoms: C_13  and  C_14 
REMARK    6  A    between atoms: C_15  and  O_16 
ROOT
HETATM    1  C   UNL     1      41.242 -14.361   5.523  1.00  0.00     0.271 C 
HETATM    2  N   UNL     1      41.880 -13.131   5.579  1.00  0.00    -0.243 N 
HETATM    3  O   UNL     1      40.228 -14.642   6.155  1.00  0.00    -0.266 OA
HETATM    4  H   UNL     1      42.667 -12.874   4.999  1.00  0.00     0.192 HD
ENDROOT
BRANCH   2   5
HETATM    5  N   UNL     1      41.389 -12.212   6.456  1.00  0.00    -0.183 NA
HETATM    6  C   UNL     1      42.243 -11.534   7.160  1.00  0.00     0.153 C 
BRANCH   6   7
HETATM    7  C   UNL     1      41.781 -10.528   8.153  1.00  0.00     0.027 A 
HETATM    8  C   UNL     1      40.662  -9.729   7.849  1.00  0.00     0.078 A 
HETATM    9  C   UNL     1      40.201  -8.779   8.749  1.00  0.00     0.038 A 
HETATM   10  C   UNL     1      40.846  -8.615   9.970  1.00  0.00     0.015 A 
HETATM   11  C   UNL     1      41.959  -9.395  10.309  1.00  0.00    -0.025 A 
HETATM   12  C   UNL     1      42.455 -10.375   9.405  1.00  0.00    -0.012 A 
HETATM   13  C   UNL     1      42.575  -9.200  11.555  1.00  0.00     0.012 A 
HETATM   14  C   UNL     1      43.584 -11.124   9.834  1.00  0.00     0.013 A 
HETATM   15  C   UNL     1      44.184 -10.916  11.079  1.00  0.00     0.001 A 
HETATM   16  C   UNL     1      43.680  -9.955  11.940  1.00  0.00     0.001 A 
BRANCH   8  17
HETATM   17  O   UNL     1      39.952  -9.811   6.680  1.00  0.00    -0.360 OA
HETATM   18  H   UNL     1      40.003  -8.948   6.213  1.00  0.00     0.217 HD
ENDBRANCH   8  17
ENDBRANCH   6   7
ENDBRANCH   2   5
BRANCH   1  19
HETATM   19  C   UNL     1      41.827 -15.422   4.653  1.00  0.00     0.036 A 
HETATM   20  C   UNL     1      41.272 -16.688   4.479  1.00  0.00     0.034 A 
HETATM   21  C   UNL     1      41.858 -17.570   3.570  1.00  0.00     0.091 A 
HETATM   22  N   UNL     1      42.946 -17.209   2.851  1.00  0.00    -0.362 N 
HETATM   23  C   UNL     1      43.505 -15.988   3.014  1.00  0.00     0.091 A 
HETATM   24  C   UNL     1      42.964 -15.082   3.913  1.00  0.00     0.034 A 
BRANCH  22  25
HETATM   25  C   UNL     1      43.498 -18.137   1.829  1.00  0.00     0.166 C 
BRANCH  25  26
HETATM   26  C   UNL     1      43.847 -19.482   2.410  1.00  0.00    -0.040 A 
HETATM   27  C   UNL     1      43.547 -20.649   1.689  1.00  0.00     0.009 A 
HETATM   28  C   UNL     1      43.909 -21.903   2.187  1.00  0.00     0.001 A 
HETATM   29  C   UNL     1      44.577 -22.005   3.402  1.00  0.00     0.000 A 
HETATM   30  C   UNL     1      44.890 -20.855   4.124  1.00  0.00     0.001 A 
HETATM   31  C   UNL     1      44.533 -19.599   3.630  1.00  0.00     0.009 A 
ENDBRANCH  25  26
ENDBRANCH  22  25
ENDBRANCH   1  19
TORSDOF 6
ENDMDL
MODEL 7
REMARK VINA RESULT:      -8.3      7.327     11.071
REMARK  6 active torsions:
REMARK  status: ('A' for Active; 'I' for Inactive)
REMARK    1  A    between atoms: C_4  and  C_5 
REMARK    2  A    between atoms: C_5  and  N_6 
REMARK    3  A    between atoms: C_9  and  C_10 
REMARK       I    between atoms: C_10  and  N_11 
REMARK    4  A    between atoms: N_11  and  N_12 
REMARK    5  A    between atoms: C_13  and  C_14 
REMARK    6  A    between atoms: C_15  and  O_16 
ROOT
HETATM    1  C   UNL     1      41.621 -15.021   0.182  1.00  0.00     0.271 C 
HETATM    2  N   UNL     1      42.051 -16.335   0.071  1.00  0.00    -0.243 N 
HETATM    3  O   UNL     1      41.976 -14.251   1.070  1.00  0.00    -0.266 OA
HETATM    4  H   UNL     1      41.822 -16.942  -0.704  1.00  0.00     0.192 HD
ENDROOT
BRANCH   2   5
HETATM    5  N   UNL     1      42.854 -16.816   1.061  1.00  0.00    -0.183 NA
HETATM    6  C   UNL     1      42.372 -17.742   1.832  1.00  0.00     0.153 C 
BRANCH   6   7
HETATM    7  C   UNL     1      43.182 -18.301   2.947  1.00  0.00     0.027 A 
HETATM    8  C   UNL     1      43.478 -17.483   4.055  1.00  0.00     0.078 A 
HETATM    9  C   UNL     1      44.231 -17.968   5.115  1.00  0.00     0.038 A 
HETATM   10  C   UNL     1      44.696 -19.278   5.089  1.00  0.00     0.015 A 
HETATM   11  C   UNL     1      44.417 -20.122   4.005  1.00  0.00    -0.025 A 
HETATM   12  C   UNL     1      43.649 -19.651   2.904  1.00  0.00    -0.012 A 
HETATM   13  C   UNL     1      44.901 -21.439   4.024  1.00  0.00     0.012 A 
HETATM   14  C   UNL     1      43.410 -20.577   1.853  1.00  0.00     0.013 A 
HETATM   15  C   UNL     1      43.900 -21.885   1.889  1.00  0.00     0.001 A 
HETATM   16  C   UNL     1      44.645 -22.316   2.975  1.00  0.00     0.001 A 
BRANCH   8  17
HETATM   17  O   UNL     1      43.066 -16.182   4.184  1.00  0.00    -0.360 OA
HETATM   18  H   UNL     1      43.479 -15.794   4.987  1.00  0.00     0.217 HD
ENDBRANCH   8  17
ENDBRANCH   6   7
ENDBRANCH   2   5
BRANCH   1  19
HETATM   19  C   UNL     1      40.653 -14.506  -0.828  1.00  0.00     0.036 A 
HETATM   20  C   UNL     1      40.930 -14.379  -2.188  1.00  0.00     0.034 A 
HETATM   21  C   UNL     1      39.917 -13.969  -3.055  1.00  0.00     0.091 A 
HETATM   22  N   UNL     1      38.672 -13.703  -2.596  1.00  0.00    -0.362 N 
HETATM   23  C   UNL     1      38.386 -13.810  -1.279  1.00  0.00     0.091 A 
HETATM   24  C   UNL     1      39.364 -14.205  -0.378  1.00  0.00     0.034 A 
BRANCH  22  25
HETATM   25  C   UNL     1      37.591 -13.349  -3.554  1.00  0.00     0.166 C 
BRANCH  25  26
HETATM   26  C   UNL     1      37.277 -11.877  -3.539  1.00  0.00    -0.040 A 
HETATM   27  C   UNL     1      37.958 -11.012  -4.411  1.00  0.00     0.009 A 
HETATM   28  C   UNL     1      37.646  -9.652  -4.450  1.00  0.00     0.001 A 
HETATM   29  C   UNL     1      36.647  -9.142  -3.627  1.00  0.00     0.000 A 
HETATM   30  C   UNL     1      35.955  -9.989  -2.764  1.00  0.00     0.001 A 
HETATM   31  C   UNL     1      36.262 -11.351  -2.723  1.00  0.00     0.009 A 
ENDBRANCH  25  26
ENDBRANCH  22  25
ENDBRANCH   1  19
TORSDOF 6
ENDMDL
MODEL 8
REMARK VINA RESULT:      -8.3      6.850      9.429
REMARK  6 active torsions:
REMARK  status: ('A' for Active; 'I' for Inactive)
REMARK    1  A    between atoms: C_4  and  C_5 
REMARK    2  A    between atoms: C_5  and  N_6 
REMARK    3  A    between atoms: C_9  and  C_10 
REMARK       I    between atoms: C_10  and  N_11 
REMARK    4  A    between atoms: N_11  and  N_12 
REMARK    5  A    between atoms: C_13  and  C_14 
REMARK    6  A    between atoms: C_15  and  O_16 
ROOT
HETATM    1  C   UNL     1      40.071 -14.565   2.924  1.00  0.00     0.271 C 
HETATM    2  N   UNL     1      40.570 -15.746   2.395  1.00  0.00    -0.243 N 
HETATM    3  O   UNL     1      40.264 -14.189   4.077  1.00  0.00    -0.266 OA
HETATM    4  H   UNL     1      40.479 -16.015   1.425  1.00  0.00     0.192 HD
ENDROOT
BRANCH   2   5
HETATM    5  N   UNL     1      41.247 -16.572   3.239  1.00  0.00    -0.183 NA
HETATM    6  C   UNL     1      42.476 -16.863   2.943  1.00  0.00     0.153 C 
BRANCH   6   7
HETATM    7  C   UNL     1      43.272 -17.777   3.806  1.00  0.00     0.027 A 
HETATM    8  C   UNL     1      43.685 -17.331   5.077  1.00  0.00     0.078 A 
HETATM    9  C   UNL     1      44.429 -18.153   5.911  1.00  0.00     0.038 A 
HETATM   10  C   UNL     1      44.767 -19.435   5.494  1.00  0.00     0.015 A 
HETATM   11  C   UNL     1      44.369 -19.915   4.238  1.00  0.00    -0.025 A 
HETATM   12  C   UNL     1      43.608 -19.093   3.362  1.00  0.00    -0.012 A 
HETATM   13  C   UNL     1      44.727 -21.218   3.861  1.00  0.00     0.012 A 
HETATM   14  C   UNL     1      43.242 -19.663   2.112  1.00  0.00     0.013 A 
HETATM   15  C   UNL     1      43.608 -20.964   1.753  1.00  0.00     0.001 A 
HETATM   16  C   UNL     1      44.350 -21.741   2.628  1.00  0.00     0.001 A 
BRANCH   8  17
HETATM   17  O   UNL     1      43.403 -16.091   5.587  1.00  0.00    -0.360 OA
HETATM   18  H   UNL     1      42.430 -15.949   5.565  1.00  0.00     0.217 HD
ENDBRANCH   8  17
ENDBRANCH   6   7
ENDBRANCH   2   5
BRANCH   1  19
HETATM   19  C   UNL     1      39.232 -13.697   2.049  1.00  0.00     0.036 A 
HETATM   20  C   UNL     1      39.332 -12.308   1.993  1.00  0.00     0.034 A 
HETATM   21  C   UNL     1      38.557 -11.605   1.071  1.00  0.00     0.091 A 
HETATM   22  N   UNL     1      37.721 -12.252   0.226  1.00  0.00    -0.362 N 
HETATM   23  C   UNL     1      37.602 -13.598   0.272  1.00  0.00     0.091 A 
HETATM   24  C   UNL     1      38.345 -14.339   1.179  1.00  0.00     0.034 A 
BRANCH  22  25
HETATM   25  C   UNL     1      36.970 -11.485  -0.803  1.00  0.00     0.166 C 
BRANCH  25  26
HETATM   26  C   UNL     1      35.593 -11.097  -0.333  1.00  0.00    -0.040 A 
HETATM   27  C   UNL     1      35.382 -10.793   1.022  1.00  0.00     0.009 A 
HETATM   28  C   UNL     1      34.125 -10.381   1.470  1.00  0.00     0.001 A 
HETATM   29  C   UNL     1      33.069 -10.263   0.572  1.00  0.00     0.000 A 
HETATM   30  C   UNL     1      33.266 -10.551  -0.777  1.00  0.00     0.001 A 
HETATM   31  C   UNL     1      34.522 -10.961  -1.230  1.00  0.00     0.009 A 
ENDBRANCH  25  26
ENDBRANCH  22  25
ENDBRANCH   1  19
TORSDOF 6
ENDMDL
MODEL 9
REMARK VINA RESULT:      -8.2      3.275     10.855
REMARK  6 active torsions:
REMARK  status: ('A' for Active; 'I' for Inactive)
REMARK    1  A    between atoms: C_4  and  C_5 
REMARK    2  A    between atoms: C_5  and  N_6 
REMARK    3  A    between atoms: C_9  and  C_10 
REMARK       I    between atoms: C_10  and  N_11 
REMARK    4  A    between atoms: N_11  and  N_12 
REMARK    5  A    between atoms: C_13  and  C_14 
REMARK    6  A    between atoms: C_15  and  O_16 
ROOT
HETATM    1  C   UNL     1      40.297 -11.993   6.624  1.00  0.00     0.271 C 
HETATM    2  N   UNL     1      41.237 -11.393   7.448  1.00  0.00    -0.243 N 
HETATM    3  O   UNL     1      39.087 -11.798   6.700  1.00  0.00    -0.266 OA
HETATM    4  H   UNL     1      42.237 -11.491   7.333  1.00  0.00     0.192 HD
ENDROOT
BRANCH   2   5
HETATM    5  N   UNL     1      40.772 -10.603   8.455  1.00  0.00    -0.183 NA
HETATM    6  C   UNL     1      40.987 -10.991   9.675  1.00  0.00     0.153 C 
BRANCH   6   7
HETATM    7  C   UNL     1      40.490 -10.191  10.826  1.00  0.00     0.027 A 
HETATM    8  C   UNL     1      39.137  -9.803  10.858  1.00  0.00     0.078 A 
HETATM    9  C   UNL     1      38.637  -9.056  11.914  1.00  0.00     0.038 A 
HETATM   10  C   UNL     1      39.477  -8.689  12.959  1.00  0.00     0.015 A 
HETATM   11  C   UNL     1      40.828  -9.061  12.964  1.00  0.00    -0.025 A 
HETATM   12  C   UNL     1      41.369  -9.825  11.893  1.00  0.00    -0.012 A 
HETATM   13  C   UNL     1      41.638  -8.674  14.043  1.00  0.00     0.012 A 
HETATM   14  C   UNL     1      42.746 -10.163  11.984  1.00  0.00     0.013 A 
HETATM   15  C   UNL     1      43.538  -9.769  13.066  1.00  0.00     0.001 A 
HETATM   16  C   UNL     1      42.984  -9.025  14.096  1.00  0.00     0.001 A 
BRANCH   8  17
HETATM   17  O   UNL     1      38.224 -10.114   9.885  1.00  0.00    -0.360 OA
HETATM   18  H   UNL     1      37.910  -9.284   9.463  1.00  0.00     0.217 HD
ENDBRANCH   8  17
ENDBRANCH   6   7
ENDBRANCH   2   5
BRANCH   1  19
HETATM   19  C   UNL     1      40.775 -12.949   5.585  1.00  0.00     0.036 A 
HETATM   20  C   UNL     1      42.113 -13.132   5.241  1.00  0.00     0.034 A 
HETATM   21  C   UNL     1      42.450 -14.120   4.316  1.00  0.00     0.091 A 
HETATM   22  N   UNL     1      41.501 -14.907   3.758  1.00  0.00    -0.362 N 
HETATM   23  C   UNL     1      40.196 -14.738   4.071  1.00  0.00     0.091 A 
HETATM   24  C   UNL     1      39.812 -13.762   4.978  1.00  0.00     0.034 A 
BRANCH  22  25
HETATM   25  C   UNL     1      41.898 -16.008   2.840  1.00  0.00     0.166 C 
BRANCH  25  26
HETATM   26  C   UNL     1      42.527 -17.162   3.574  1.00  0.00    -0.040 A 
HETATM   27  C   UNL     1      43.580 -17.874   2.976  1.00  0.00     0.009 A 
HETATM   28  C   UNL     1      44.212 -18.915   3.660  1.00  0.00     0.001 A 
HETATM   29  C   UNL     1      43.807 -19.250   4.948  1.00  0.00     0.000 A 
HETATM   30  C   UNL     1      42.771 -18.546   5.558  1.00  0.00     0.001 A 
HETATM   31  C   UNL     1      42.137 -17.503   4.879  1.00  0.00     0.009 A 
ENDBRANCH  25  26
ENDBRANCH  22  25
ENDBRANCH   1  19
TORSDOF 6
ENDMDL
MODEL 10
REMARK VINA RESULT:      -8.1      3.286      4.097
REMARK  6 active torsions:
REMARK  status: ('A' for Active; 'I' for Inactive)
REMARK    1  A    between atoms: C_4  and  C_5 
REMARK    2  A    between atoms: C_5  and  N_6 
REMARK    3  A    between atoms: C_9  and  C_10 
REMARK       I    between atoms: C_10  and  N_11 
REMARK    4  A    between atoms: N_11  and  N_12 
REMARK    5  A    between atoms: C_13  and  C_14 
REMARK    6  A    between atoms: C_15  and  O_16 
ROOT
HETATM    1  C   UNL     1      40.923 -14.881   5.439  1.00  0.00     0.271 C 
HETATM    2  N   UNL     1      41.486 -15.569   6.502  1.00  0.00    -0.243 N 
HETATM    3  O   UNL     1      40.666 -15.384   4.349  1.00  0.00    -0.266 OA
HETATM    4  H   UNL     1      41.623 -15.175   7.423  1.00  0.00     0.192 HD
ENDROOT
BRANCH   2   5
HETATM    5  N   UNL     1      41.849 -16.864   6.287  1.00  0.00    -0.183 NA
HETATM    6  C   UNL     1      43.096 -17.105   6.023  1.00  0.00     0.153 C 
BRANCH   6   7
HETATM    7  C   UNL     1      43.563 -18.492   5.756  1.00  0.00     0.027 A 
HETATM    8  C   UNL     1      43.778 -19.363   6.841  1.00  0.00     0.078 A 
HETATM    9  C   UNL     1      44.214 -20.663   6.632  1.00  0.00     0.038 A 
HETATM   10  C   UNL     1      44.437 -21.118   5.337  1.00  0.00     0.015 A 
HETATM   11  C   UNL     1      44.229 -20.281   4.233  1.00  0.00    -0.025 A 
HETATM   12  C   UNL     1      43.784 -18.942   4.417  1.00  0.00    -0.012 A 
HETATM   13  C   UNL     1      44.459 -20.783   2.943  1.00  0.00     0.012 A 
HETATM   14  C   UNL     1      43.593 -18.167   3.241  1.00  0.00     0.013 A 
HETATM   15  C   UNL     1      43.828 -18.685   1.964  1.00  0.00     0.001 A 
HETATM   16  C   UNL     1      44.261 -19.993   1.815  1.00  0.00     0.001 A 
BRANCH   8  17
HETATM   17  O   UNL     1      43.586 -19.020   8.154  1.00  0.00    -0.360 OA
HETATM   18  H   UNL     1      42.660 -19.230   8.407  1.00  0.00     0.217 HD
ENDBRANCH   8  17
ENDBRANCH   6   7
ENDBRANCH   2   5
BRANCH   1  19
HETATM   19  C   UNL     1      40.619 -13.431   5.615  1.00  0.00     0.036 A 
HETATM   20  C   UNL     1      39.346 -12.877   5.506  1.00  0.00     0.034 A 
HETATM   21  C   UNL     1      39.167 -11.521   5.780  1.00  0.00     0.091 A 
HETATM   22  N   UNL     1      40.208 -10.742   6.158  1.00  0.00    -0.362 N 
HETATM   23  C   UNL     1      41.453 -11.260   6.259  1.00  0.00     0.091 A 
HETATM   24  C   UNL     1      41.681 -12.601   5.988  1.00  0.00     0.034 A 
BRANCH  22  25
HETATM   25  C   UNL     1      39.973  -9.320   6.525  1.00  0.00     0.166 C 
BRANCH  25  26
HETATM   26  C   UNL     1      39.931  -9.117   8.016  1.00  0.00    -0.040 A 
HETATM   27  C   UNL     1      40.976  -8.428   8.653  1.00  0.00     0.009 A 
HETATM   28  C   UNL     1      40.930  -8.183  10.027  1.00  0.00     0.001 A 
HETATM   29  C   UNL     1      39.842  -8.615  10.778  1.00  0.00     0.000 A 
HETATM   30  C   UNL     1      38.793  -9.290  10.158  1.00  0.00     0.001 A 
HETATM   31  C   UNL     1      38.832  -9.536   8.783  1.00  0.00     0.009 A 
ENDBRANCH  25  26
ENDBRANCH  22  25
ENDBRANCH   1  19
TORSDOF 6
ENDMDL
