MODEL 1
REMARK VINA RESULT:      -8.8      0.000      0.000
REMARK  8 active torsions:
REMARK  status: ('A' for Active; 'I' for Inactive)
REMARK    1  A    between atoms: C_2  and  O_3 
REMARK    2  A    between atoms: O_3  and  C_4 
REMARK    3  A    between atoms: C_5  and  O_6 
REMARK    4  A    between atoms: O_6  and  C_7 
REMARK    5  A    between atoms: C_7  and  C_8 
REMARK       I    between atoms: C_8  and  N_9 
REMARK    6  A    between atoms: C_13  and  C_14 
REMARK    7  A    between atoms: C_21  and  C_22 
REMARK       I    between atoms: C_22  and  N_23 
REMARK    8  A    between atoms: N_23  and  C_24 
ROOT
HETATM    1  C   UNL     1      43.511 -15.414   4.842  1.00  0.00     0.160 C 
HETATM    2  N   UNL     1      43.984 -14.227   5.530  1.00  0.00    -0.330 N 
HETATM    3  C   UNL     1      44.049 -14.085   6.878  1.00  0.00     0.321 C 
HETATM    4  O   UNL     1      44.315 -13.006   7.397  1.00  0.00    -0.247 OA
HETATM    5  N   UNL     1      43.827 -15.207   7.621  1.00  0.00    -0.312 N 
HETATM    6  C   UNL     1      43.543 -16.453   7.113  1.00  0.00     0.024 C 
HETATM    7  C   UNL     1      43.404 -17.559   8.119  1.00  0.00     0.069 C 
HETATM    8  C   UNL     1      43.416 -16.578   5.782  1.00  0.00     0.059 C 
HETATM    9  H   UNL     1      44.097 -13.370   5.007  1.00  0.00     0.165 HD
HETATM   10  H   UNL     1      43.902 -15.071   8.622  1.00  0.00     0.170 HD
ENDROOT
BRANCH   1  11
HETATM   11  C   UNL     1      42.213 -15.132   4.101  1.00  0.00    -0.028 A 
HETATM   12  C   UNL     1      41.069 -14.681   4.776  1.00  0.00     0.012 A 
HETATM   13  C   UNL     1      39.873 -14.486   4.088  1.00  0.00     0.040 A 
HETATM   14  C   UNL     1      39.802 -14.767   2.721  1.00  0.00     0.102 A 
HETATM   15  C   UNL     1      40.935 -15.206   2.018  1.00  0.00     0.102 A 
HETATM   16  C   UNL     1      42.132 -15.387   2.717  1.00  0.00     0.049 A 
BRANCH  14  17
HETATM   17  O   UNL     1      38.643 -14.572   2.012  1.00  0.00    -0.339 OA
BRANCH  17  18
HETATM   18  C   UNL     1      38.432 -13.204   1.654  1.00  0.00     0.278 C 
BRANCH  18  19
HETATM   19  C   UNL     1      37.854 -13.135   0.244  1.00  0.00     0.239 C 
HETATM   20  N   UNL     1      38.106 -14.226  -0.542  1.00  0.00    -0.368 N 
HETATM   21  H   UNL     1      38.821 -14.886  -0.254  1.00  0.00     0.159 HD
HETATM   22  H   UNL     1      37.813 -14.198  -1.508  1.00  0.00     0.159 HD
HETATM   23  O   UNL     1      37.158 -12.209  -0.159  1.00  0.00    -0.271 OA
ENDBRANCH  18  19
ENDBRANCH  17  18
ENDBRANCH  14  17
BRANCH  15  24
HETATM   24  O   UNL     1      40.748 -15.457   0.683  1.00  0.00    -0.349 OA
BRANCH  24  25
HETATM   25  C   UNL     1      41.704 -14.973  -0.259  1.00  0.00     0.171 C 
HETATM   26  C   UNL     1      41.600 -13.465  -0.423  1.00  0.00     0.034 C 
ENDBRANCH  24  25
ENDBRANCH  15  24
ENDBRANCH   1  11
BRANCH   8  27
HETATM   27  C   UNL     1      43.099 -17.893   5.174  1.00  0.00     0.256 C 
HETATM   28  N   UNL     1      44.227 -18.513   4.680  1.00  0.00    -0.323 N 
HETATM   29  H   UNL     1      45.111 -18.061   4.871  1.00  0.00     0.169 HD
HETATM   30  O   UNL     1      41.948 -18.303   5.180  1.00  0.00    -0.267 OA
BRANCH  28  31
HETATM   31  C   UNL     1      44.296 -19.741   3.979  1.00  0.00     0.041 A 
HETATM   32  C   UNL     1      43.989 -19.758   2.600  1.00  0.00    -0.035 A 
HETATM   33  C   UNL     1      43.603 -18.516   1.841  1.00  0.00     0.050 C 
HETATM   34  C   UNL     1      44.048 -20.974   1.894  1.00  0.00     0.009 A 
HETATM   35  C   UNL     1      44.399 -22.158   2.536  1.00  0.00     0.001 A 
HETATM   36  C   UNL     1      44.694 -22.143   3.893  1.00  0.00     0.002 A 
HETATM   37  C   UNL     1      44.642 -20.943   4.608  1.00  0.00     0.030 A 
ENDBRANCH  28  31
ENDBRANCH   8  27
TORSDOF 8
ENDMDL
MODEL 2
REMARK VINA RESULT:      -8.3      2.393      3.705
REMARK  8 active torsions:
REMARK  status: ('A' for Active; 'I' for Inactive)
REMARK    1  A    between atoms: C_2  and  O_3 
REMARK    2  A    between atoms: O_3  and  C_4 
REMARK    3  A    between atoms: C_5  and  O_6 
REMARK    4  A    between atoms: O_6  and  C_7 
REMARK    5  A    between atoms: C_7  and  C_8 
REMARK       I    between atoms: C_8  and  N_9 
REMARK    6  A    between atoms: C_13  and  C_14 
REMARK    7  A    between atoms: C_21  and  C_22 
REMARK       I    between atoms: C_22  and  N_23 
REMARK    8  A    between atoms: N_23  and  C_24 
ROOT
HETATM    1  C   UNL     1      42.286 -14.480   2.654  1.00  0.00     0.160 C 
HETATM    2  N   UNL     1      42.351 -13.127   3.173  1.00  0.00    -0.330 N 
HETATM    3  C   UNL     1      41.780 -12.712   4.333  1.00  0.00     0.321 C 
HETATM    4  O   UNL     1      41.744 -11.526   4.641  1.00  0.00    -0.247 OA
HETATM    5  N   UNL     1      41.273 -13.684   5.144  1.00  0.00    -0.312 N 
HETATM    6  C   UNL     1      41.294 -15.033   4.878  1.00  0.00     0.024 C 
HETATM    7  C   UNL     1      40.739 -15.926   5.949  1.00  0.00     0.069 C 
HETATM    8  C   UNL     1      41.802 -15.436   3.701  1.00  0.00     0.059 C 
HETATM    9  H   UNL     1      42.668 -12.383   2.567  1.00  0.00     0.165 HD
HETATM   10  H   UNL     1      40.872 -13.343   6.010  1.00  0.00     0.170 HD
ENDROOT
BRANCH   1  11
HETATM   11  C   UNL     1      41.471 -14.531   1.371  1.00  0.00    -0.028 A 
HETATM   12  C   UNL     1      41.869 -15.323   0.283  1.00  0.00     0.012 A 
HETATM   13  C   UNL     1      41.140 -15.310  -0.906  1.00  0.00     0.040 A 
HETATM   14  C   UNL     1      40.022 -14.482  -1.028  1.00  0.00     0.102 A 
HETATM   15  C   UNL     1      39.593 -13.690   0.049  1.00  0.00     0.102 A 
HETATM   16  C   UNL     1      40.325 -13.720   1.240  1.00  0.00     0.049 A 
BRANCH  14  17
HETATM   17  O   UNL     1      39.275 -14.457  -2.179  1.00  0.00    -0.339 OA
BRANCH  17  18
HETATM   18  C   UNL     1      39.930 -15.089  -3.282  1.00  0.00     0.278 C 
BRANCH  18  19
HETATM   19  C   UNL     1      38.974 -16.082  -3.934  1.00  0.00     0.239 C 
HETATM   20  N   UNL     1      39.074 -17.369  -3.484  1.00  0.00    -0.368 N 
HETATM   21  H   UNL     1      39.890 -17.639  -2.942  1.00  0.00     0.159 HD
HETATM   22  H   UNL     1      38.520 -18.080  -3.937  1.00  0.00     0.159 HD
HETATM   23  O   UNL     1      38.124 -15.763  -4.760  1.00  0.00    -0.271 OA
ENDBRANCH  18  19
ENDBRANCH  17  18
ENDBRANCH  14  17
BRANCH  15  24
HETATM   24  O   UNL     1      38.488 -12.913  -0.184  1.00  0.00    -0.349 OA
BRANCH  24  25
HETATM   25  C   UNL     1      37.341 -13.058   0.653  1.00  0.00     0.171 C 
HETATM   26  C   UNL     1      36.479 -11.808   0.624  1.00  0.00     0.034 C 
ENDBRANCH  24  25
ENDBRANCH  15  24
ENDBRANCH   1  11
BRANCH   8  27
HETATM   27  C   UNL     1      41.842 -16.876   3.350  1.00  0.00     0.256 C 
HETATM   28  N   UNL     1      43.093 -17.418   3.556  1.00  0.00    -0.323 N 
HETATM   29  H   UNL     1      43.777 -16.819   3.996  1.00  0.00     0.169 HD
HETATM   30  O   UNL     1      40.828 -17.434   2.956  1.00  0.00    -0.267 OA
BRANCH  28  31
HETATM   31  C   UNL     1      43.515 -18.739   3.269  1.00  0.00     0.041 A 
HETATM   32  C   UNL     1      44.343 -19.408   4.198  1.00  0.00    -0.035 A 
HETATM   33  C   UNL     1      44.787 -18.775   5.490  1.00  0.00     0.050 C 
HETATM   34  C   UNL     1      44.774 -20.719   3.920  1.00  0.00     0.009 A 
HETATM   35  C   UNL     1      44.399 -21.361   2.744  1.00  0.00     0.001 A 
HETATM   36  C   UNL     1      43.589 -20.701   1.828  1.00  0.00     0.002 A 
HETATM   37  C   UNL     1      43.152 -19.400   2.089  1.00  0.00     0.030 A 
ENDBRANCH  28  31
ENDBRANCH   8  27
TORSDOF 8
ENDMDL
MODEL 3
REMARK VINA RESULT:      -8.3      1.121      2.124
REMARK  8 active torsions:
REMARK  status: ('A' for Active; 'I' for Inactive)
REMARK    1  A    between atoms: C_2  and  O_3 
REMARK    2  A    between atoms: O_3  and  C_4 
REMARK    3  A    between atoms: C_5  and  O_6 
REMARK    4  A    between atoms: O_6  and  C_7 
REMARK    5  A    between atoms: C_7  and  C_8 
REMARK       I    between atoms: C_8  and  N_9 
REMARK    6  A    between atoms: C_13  and  C_14 
REMARK    7  A    between atoms: C_21  and  C_22 
REMARK       I    between atoms: C_22  and  N_23 
REMARK    8  A    between atoms: N_23  and  C_24 
ROOT
HETATM    1  C   UNL     1      43.640 -15.317   4.987  1.00  0.00     0.160 C 
HETATM    2  N   UNL     1      44.167 -14.189   5.732  1.00  0.00    -0.330 N 
HETATM    3  C   UNL     1      44.248 -14.123   7.085  1.00  0.00     0.321 C 
HETATM    4  O   UNL     1      44.563 -13.085   7.658  1.00  0.00    -0.247 OA
HETATM    5  N   UNL     1      43.987 -15.273   7.769  1.00  0.00    -0.312 N 
HETATM    6  C   UNL     1      43.648 -16.478   7.198  1.00  0.00     0.024 C 
HETATM    7  C   UNL     1      43.472 -17.630   8.145  1.00  0.00     0.069 C 
HETATM    8  C   UNL     1      43.505 -16.526   5.863  1.00  0.00     0.059 C 
HETATM    9  H   UNL     1      44.310 -13.310   5.255  1.00  0.00     0.165 HD
HETATM   10  H   UNL     1      44.076 -15.195   8.775  1.00  0.00     0.170 HD
ENDROOT
BRANCH   1  11
HETATM   11  C   UNL     1      42.349 -14.944   4.275  1.00  0.00    -0.028 A 
HETATM   12  C   UNL     1      42.201 -15.116   2.891  1.00  0.00     0.012 A 
HETATM   13  C   UNL     1      41.031 -14.713   2.249  1.00  0.00     0.040 A 
HETATM   14  C   UNL     1      40.008 -14.106   2.981  1.00  0.00     0.102 A 
HETATM   15  C   UNL     1      40.124 -13.934   4.370  1.00  0.00     0.102 A 
HETATM   16  C   UNL     1      41.297 -14.353   5.004  1.00  0.00     0.049 A 
BRANCH  14  17
HETATM   17  O   UNL     1      38.839 -13.710   2.381  1.00  0.00    -0.339 OA
BRANCH  17  18
HETATM   18  C   UNL     1      38.405 -14.610   1.359  1.00  0.00     0.278 C 
BRANCH  18  19
HETATM   19  C   UNL     1      37.877 -13.809   0.173  1.00  0.00     0.239 C 
HETATM   20  N   UNL     1      38.220 -14.295  -1.058  1.00  0.00    -0.368 N 
HETATM   21  H   UNL     1      38.962 -14.986  -1.125  1.00  0.00     0.159 HD
HETATM   22  H   UNL     1      37.963 -13.759  -1.874  1.00  0.00     0.159 HD
HETATM   23  O   UNL     1      37.144 -12.831   0.288  1.00  0.00    -0.271 OA
ENDBRANCH  18  19
ENDBRANCH  17  18
ENDBRANCH  14  17
BRANCH  15  24
HETATM   24  O   UNL     1      39.062 -13.322   4.986  1.00  0.00    -0.349 OA
BRANCH  24  25
HETATM   25  C   UNL     1      39.242 -12.035   5.575  1.00  0.00     0.171 C 
HETATM   26  C   UNL     1      38.875 -10.928   4.601  1.00  0.00     0.034 C 
ENDBRANCH  24  25
ENDBRANCH  15  24
ENDBRANCH   1  11
BRANCH   8  27
HETATM   27  C   UNL     1      43.129 -17.792   5.189  1.00  0.00     0.256 C 
HETATM   28  N   UNL     1      44.225 -18.422   4.638  1.00  0.00    -0.323 N 
HETATM   29  H   UNL     1      45.128 -18.012   4.835  1.00  0.00     0.169 HD
HETATM   30  O   UNL     1      41.964 -18.161   5.197  1.00  0.00    -0.267 OA
BRANCH  28  31
HETATM   31  C   UNL     1      44.235 -19.610   3.867  1.00  0.00     0.041 A 
HETATM   32  C   UNL     1      43.857 -19.544   2.507  1.00  0.00    -0.035 A 
HETATM   33  C   UNL     1      43.453 -18.257   1.840  1.00  0.00     0.050 C 
HETATM   34  C   UNL     1      43.858 -20.720   1.733  1.00  0.00     0.009 A 
HETATM   35  C   UNL     1      44.221 -21.943   2.289  1.00  0.00     0.001 A 
HETATM   36  C   UNL     1      44.588 -22.008   3.627  1.00  0.00     0.002 A 
HETATM   37  C   UNL     1      44.593 -20.850   4.409  1.00  0.00     0.030 A 
ENDBRANCH  28  31
ENDBRANCH   8  27
TORSDOF 8
ENDMDL
MODEL 4
REMARK VINA RESULT:      -8.2      2.563      3.365
REMARK  8 active torsions:
REMARK  status: ('A' for Active; 'I' for Inactive)
REMARK    1  A    between atoms: C_2  and  O_3 
REMARK    2  A    between atoms: O_3  and  C_4 
REMARK    3  A    between atoms: C_5  and  O_6 
REMARK    4  A    between atoms: O_6  and  C_7 
REMARK    5  A    between atoms: C_7  and  C_8 
REMARK       I    between atoms: C_8  and  N_9 
REMARK    6  A    between atoms: C_13  and  C_14 
REMARK    7  A    between atoms: C_21  and  C_22 
REMARK       I    between atoms: C_22  and  N_23 
REMARK    8  A    between atoms: N_23  and  C_24 
ROOT
HETATM    1  C   UNL     1      41.408 -13.553   4.249  1.00  0.00     0.160 C 
HETATM    2  N   UNL     1      40.492 -12.708   4.991  1.00  0.00    -0.330 N 
HETATM    3  C   UNL     1      39.702 -13.129   6.011  1.00  0.00     0.321 C 
HETATM    4  O   UNL     1      38.842 -12.402   6.497  1.00  0.00    -0.247 OA
HETATM    5  N   UNL     1      39.930 -14.389   6.480  1.00  0.00    -0.312 N 
HETATM    6  C   UNL     1      40.886 -15.254   6.001  1.00  0.00     0.024 C 
HETATM    7  C   UNL     1      41.004 -16.568   6.718  1.00  0.00     0.069 C 
HETATM    8  C   UNL     1      41.624 -14.860   4.950  1.00  0.00     0.059 C 
HETATM    9  H   UNL     1      40.264 -11.794   4.627  1.00  0.00     0.165 HD
HETATM   10  H   UNL     1      39.337 -14.664   7.254  1.00  0.00     0.170 HD
ENDROOT
BRANCH   1  11
HETATM   11  C   UNL     1      40.952 -13.713   2.806  1.00  0.00    -0.028 A 
HETATM   12  C   UNL     1      39.816 -14.467   2.478  1.00  0.00     0.012 A 
HETATM   13  C   UNL     1      39.449 -14.651   1.146  1.00  0.00     0.040 A 
HETATM   14  C   UNL     1      40.232 -14.106   0.126  1.00  0.00     0.102 A 
HETATM   15  C   UNL     1      41.367 -13.335   0.426  1.00  0.00     0.102 A 
HETATM   16  C   UNL     1      41.718 -13.148   1.766  1.00  0.00     0.049 A 
BRANCH  14  17
HETATM   17  O   UNL     1      39.891 -14.256  -1.195  1.00  0.00    -0.339 OA
BRANCH  17  18
HETATM   18  C   UNL     1      40.511 -15.391  -1.804  1.00  0.00     0.278 C 
BRANCH  18  19
HETATM   19  C   UNL     1      40.918 -15.036  -3.231  1.00  0.00     0.239 C 
HETATM   20  N   UNL     1      42.133 -14.421  -3.354  1.00  0.00    -0.368 N 
HETATM   21  H   UNL     1      42.577 -14.036  -2.525  1.00  0.00     0.159 HD
HETATM   22  H   UNL     1      42.415 -14.095  -4.266  1.00  0.00     0.159 HD
HETATM   23  O   UNL     1      40.251 -15.327  -4.219  1.00  0.00    -0.271 OA
ENDBRANCH  18  19
ENDBRANCH  17  18
ENDBRANCH  14  17
BRANCH  15  24
HETATM   24  O   UNL     1      42.063 -12.853  -0.652  1.00  0.00    -0.349 OA
BRANCH  24  25
HETATM   25  C   UNL     1      41.882 -11.497  -1.054  1.00  0.00     0.171 C 
HETATM   26  C   UNL     1      43.182 -10.716  -0.957  1.00  0.00     0.034 C 
ENDBRANCH  24  25
ENDBRANCH  15  24
ENDBRANCH   1  11
BRANCH   8  27
HETATM   27  C   UNL     1      42.662 -15.752   4.380  1.00  0.00     0.256 C 
HETATM   28  N   UNL     1      42.156 -17.000   4.082  1.00  0.00    -0.323 N 
HETATM   29  H   UNL     1      41.159 -17.121   4.192  1.00  0.00     0.169 HD
HETATM   30  O   UNL     1      43.797 -15.332   4.210  1.00  0.00    -0.267 OA
BRANCH  28  31
HETATM   31  C   UNL     1      42.868 -18.120   3.589  1.00  0.00     0.041 A 
HETATM   32  C   UNL     1      42.734 -18.469   2.226  1.00  0.00    -0.035 A 
HETATM   33  C   UNL     1      41.871 -17.687   1.272  1.00  0.00     0.050 C 
HETATM   34  C   UNL     1      43.432 -19.584   1.727  1.00  0.00     0.009 A 
HETATM   35  C   UNL     1      44.247 -20.348   2.557  1.00  0.00     0.001 A 
HETATM   36  C   UNL     1      44.374 -20.009   3.897  1.00  0.00     0.002 A 
HETATM   37  C   UNL     1      43.689 -18.905   4.409  1.00  0.00     0.030 A 
ENDBRANCH  28  31
ENDBRANCH   8  27
TORSDOF 8
ENDMDL
MODEL 5
REMARK VINA RESULT:      -8.1      2.414      3.569
REMARK  8 active torsions:
REMARK  status: ('A' for Active; 'I' for Inactive)
REMARK    1  A    between atoms: C_2  and  O_3 
REMARK    2  A    between atoms: O_3  and  C_4 
REMARK    3  A    between atoms: C_5  and  O_6 
REMARK    4  A    between atoms: O_6  and  C_7 
REMARK    5  A    between atoms: C_7  and  C_8 
REMARK       I    between atoms: C_8  and  N_9 
REMARK    6  A    between atoms: C_13  and  C_14 
REMARK    7  A    between atoms: C_21  and  C_22 
REMARK       I    between atoms: C_22  and  N_23 
REMARK    8  A    between atoms: N_23  and  C_24 
ROOT
HETATM    1  C   UNL     1      41.438 -13.643   4.181  1.00  0.00     0.160 C 
HETATM    2  N   UNL     1      40.467 -12.762   4.803  1.00  0.00    -0.330 N 
HETATM    3  C   UNL     1      39.588 -13.134   5.769  1.00  0.00     0.321 C 
HETATM    4  O   UNL     1      38.694 -12.384   6.145  1.00  0.00    -0.247 OA
HETATM    5  N   UNL     1      39.766 -14.373   6.311  1.00  0.00    -0.312 N 
HETATM    6  C   UNL     1      40.754 -15.262   5.956  1.00  0.00     0.024 C 
HETATM    7  C   UNL     1      40.800 -16.543   6.737  1.00  0.00     0.069 C 
HETATM    8  C   UNL     1      41.583 -14.918   4.956  1.00  0.00     0.059 C 
HETATM    9  H   UNL     1      40.277 -11.865   4.381  1.00  0.00     0.165 HD
HETATM   10  H   UNL     1      39.106 -14.612   7.042  1.00  0.00     0.170 HD
ENDROOT
BRANCH   1  11
HETATM   11  C   UNL     1      41.108 -13.866   2.714  1.00  0.00    -0.028 A 
HETATM   12  C   UNL     1      42.109 -13.869   1.731  1.00  0.00     0.012 A 
HETATM   13  C   UNL     1      41.779 -14.017   0.385  1.00  0.00     0.040 A 
HETATM   14  C   UNL     1      40.440 -14.133   0.005  1.00  0.00     0.102 A 
HETATM   15  C   UNL     1      39.419 -14.148   0.968  1.00  0.00     0.102 A 
HETATM   16  C   UNL     1      39.763 -14.011   2.316  1.00  0.00     0.049 A 
BRANCH  14  17
HETATM   17  O   UNL     1      40.083 -14.294  -1.311  1.00  0.00    -0.339 OA
BRANCH  17  18
HETATM   18  C   UNL     1      40.683 -13.323  -2.173  1.00  0.00     0.278 C 
BRANCH  18  19
HETATM   19  C   UNL     1      41.611 -14.029  -3.156  1.00  0.00     0.239 C 
HETATM   20  N   UNL     1      42.903 -13.580  -3.162  1.00  0.00    -0.368 N 
HETATM   21  H   UNL     1      43.119 -12.695  -2.712  1.00  0.00     0.159 HD
HETATM   22  H   UNL     1      43.539 -13.959  -3.848  1.00  0.00     0.159 HD
HETATM   23  O   UNL     1      41.264 -14.973  -3.859  1.00  0.00    -0.271 OA
ENDBRANCH  18  19
ENDBRANCH  17  18
ENDBRANCH  14  17
BRANCH  15  24
HETATM   24  O   UNL     1      38.142 -14.262   0.481  1.00  0.00    -0.349 OA
BRANCH  24  25
HETATM   25  C   UNL     1      37.201 -13.220   0.735  1.00  0.00     0.171 C 
HETATM   26  C   UNL     1      37.600 -11.936   0.027  1.00  0.00     0.034 C 
ENDBRANCH  24  25
ENDBRANCH  15  24
ENDBRANCH   1  11
BRANCH   8  27
HETATM   27  C   UNL     1      42.660 -15.838   4.518  1.00  0.00     0.256 C 
HETATM   28  N   UNL     1      42.152 -17.012   4.003  1.00  0.00    -0.323 N 
HETATM   29  H   UNL     1      41.147 -17.061   3.899  1.00  0.00     0.169 HD
HETATM   30  O   UNL     1      43.829 -15.496   4.621  1.00  0.00    -0.267 OA
BRANCH  28  31
HETATM   31  C   UNL     1      42.881 -18.139   3.552  1.00  0.00     0.041 A 
HETATM   32  C   UNL     1      42.767 -18.529   2.199  1.00  0.00    -0.035 A 
HETATM   33  C   UNL     1      41.909 -17.785   1.211  1.00  0.00     0.050 C 
HETATM   34  C   UNL     1      43.482 -19.652   1.742  1.00  0.00     0.009 A 
HETATM   35  C   UNL     1      44.294 -20.383   2.605  1.00  0.00     0.001 A 
HETATM   36  C   UNL     1      44.401 -20.002   3.936  1.00  0.00     0.002 A 
HETATM   37  C   UNL     1      43.699 -18.890   4.405  1.00  0.00     0.030 A 
ENDBRANCH  28  31
ENDBRANCH   8  27
TORSDOF 8
ENDMDL
MODEL 6
REMARK VINA RESULT:      -8.0      2.028      6.421
REMARK  8 active torsions:
REMARK  status: ('A' for Active; 'I' for Inactive)
REMARK    1  A    between atoms: C_2  and  O_3 
REMARK    2  A    between atoms: O_3  and  C_4 
REMARK    3  A    between atoms: C_5  and  O_6 
REMARK    4  A    between atoms: O_6  and  C_7 
REMARK    5  A    between atoms: C_7  and  C_8 
REMARK       I    between atoms: C_8  and  N_9 
REMARK    6  A    between atoms: C_13  and  C_14 
REMARK    7  A    between atoms: C_21  and  C_22 
REMARK       I    between atoms: C_22  and  N_23 
REMARK    8  A    between atoms: N_23  and  C_24 
ROOT
HETATM    1  C   UNL     1      40.999 -16.104   3.349  1.00  0.00     0.160 C 
HETATM    2  N   UNL     1      39.822 -15.257   3.316  1.00  0.00    -0.330 N 
HETATM    3  C   UNL     1      39.434 -14.508   2.253  1.00  0.00     0.321 C 
HETATM    4  O   UNL     1      38.515 -13.699   2.340  1.00  0.00    -0.247 OA
HETATM    5  N   UNL     1      40.101 -14.718   1.083  1.00  0.00    -0.312 N 
HETATM    6  C   UNL     1      41.125 -15.618   0.902  1.00  0.00     0.024 C 
HETATM    7  C   UNL     1      41.667 -15.730  -0.493  1.00  0.00     0.069 C 
HETATM    8  C   UNL     1      41.551 -16.312   1.971  1.00  0.00     0.059 C 
HETATM    9  H   UNL     1      39.349 -15.040   4.182  1.00  0.00     0.165 HD
HETATM   10  H   UNL     1      39.774 -14.158   0.304  1.00  0.00     0.170 HD
ENDROOT
BRANCH   1  11
HETATM   11  C   UNL     1      42.027 -15.567   4.333  1.00  0.00    -0.028 A 
HETATM   12  C   UNL     1      42.841 -14.470   4.015  1.00  0.00     0.012 A 
HETATM   13  C   UNL     1      43.818 -14.031   4.907  1.00  0.00     0.040 A 
HETATM   14  C   UNL     1      44.010 -14.704   6.115  1.00  0.00     0.102 A 
HETATM   15  C   UNL     1      43.201 -15.796   6.466  1.00  0.00     0.102 A 
HETATM   16  C   UNL     1      42.217 -16.220   5.569  1.00  0.00     0.049 A 
BRANCH  14  17
HETATM   17  O   UNL     1      44.954 -14.289   7.022  1.00  0.00    -0.339 OA
BRANCH  17  18
HETATM   18  C   UNL     1      44.584 -13.085   7.699  1.00  0.00     0.278 C 
BRANCH  18  19
HETATM   19  C   UNL     1      45.771 -12.580   8.513  1.00  0.00     0.239 C 
HETATM   20  N   UNL     1      46.829 -12.122   7.777  1.00  0.00    -0.368 N 
HETATM   21  H   UNL     1      46.873 -12.343   6.787  1.00  0.00     0.159 HD
HETATM   22  H   UNL     1      47.669 -11.849   8.264  1.00  0.00     0.159 HD
HETATM   23  O   UNL     1      45.777 -12.521   9.739  1.00  0.00    -0.271 OA
ENDBRANCH  18  19
ENDBRANCH  17  18
ENDBRANCH  14  17
BRANCH  15  24
HETATM   24  O   UNL     1      43.481 -16.384   7.673  1.00  0.00    -0.349 OA
BRANCH  24  25
HETATM   25  C   UNL     1      44.355 -17.510   7.716  1.00  0.00     0.171 C 
HETATM   26  C   UNL     1      43.572 -18.812   7.754  1.00  0.00     0.034 C 
ENDBRANCH  24  25
ENDBRANCH  15  24
ENDBRANCH   1  11
BRANCH   8  27
HETATM   27  C   UNL     1      42.660 -17.289   1.844  1.00  0.00     0.256 C 
HETATM   28  N   UNL     1      42.294 -18.539   2.297  1.00  0.00    -0.323 N 
HETATM   29  H   UNL     1      41.325 -18.658   2.559  1.00  0.00     0.169 HD
HETATM   30  O   UNL     1      43.726 -16.937   1.361  1.00  0.00    -0.267 OA
BRANCH  28  31
HETATM   31  C   UNL     1      43.111 -19.692   2.390  1.00  0.00     0.041 A 
HETATM   32  C   UNL     1      44.126 -19.732   3.371  1.00  0.00    -0.035 A 
HETATM   33  C   UNL     1      44.368 -18.600   4.334  1.00  0.00     0.050 C 
HETATM   34  C   UNL     1      44.947 -20.871   3.468  1.00  0.00     0.009 A 
HETATM   35  C   UNL     1      44.776 -21.953   2.609  1.00  0.00     0.001 A 
HETATM   36  C   UNL     1      43.782 -21.910   1.641  1.00  0.00     0.002 A 
HETATM   37  C   UNL     1      42.957 -20.787   1.532  1.00  0.00     0.030 A 
ENDBRANCH  28  31
ENDBRANCH   8  27
TORSDOF 8
ENDMDL
MODEL 7
REMARK VINA RESULT:      -7.5      2.588      8.143
REMARK  8 active torsions:
REMARK  status: ('A' for Active; 'I' for Inactive)
REMARK    1  A    between atoms: C_2  and  O_3 
REMARK    2  A    between atoms: O_3  and  C_4 
REMARK    3  A    between atoms: C_5  and  O_6 
REMARK    4  A    between atoms: O_6  and  C_7 
REMARK    5  A    between atoms: C_7  and  C_8 
REMARK       I    between atoms: C_8  and  N_9 
REMARK    6  A    between atoms: C_13  and  C_14 
REMARK    7  A    between atoms: C_21  and  C_22 
REMARK       I    between atoms: C_22  and  N_23 
REMARK    8  A    between atoms: N_23  and  C_24 
ROOT
HETATM    1  C   UNL     1      42.008 -15.100   1.065  1.00  0.00     0.160 C 
HETATM    2  N   UNL     1      42.072 -15.206  -0.381  1.00  0.00    -0.330 N 
HETATM    3  C   UNL     1      40.994 -15.226  -1.206  1.00  0.00     0.321 C 
HETATM    4  O   UNL     1      41.107 -15.468  -2.403  1.00  0.00    -0.247 OA
HETATM    5  N   UNL     1      39.787 -14.941  -0.639  1.00  0.00    -0.312 N 
HETATM    6  C   UNL     1      39.582 -14.641   0.688  1.00  0.00     0.024 C 
HETATM    7  C   UNL     1      38.175 -14.291   1.076  1.00  0.00     0.069 C 
HETATM    8  C   UNL     1      40.640 -14.685   1.515  1.00  0.00     0.059 C 
HETATM    9  H   UNL     1      42.943 -15.476  -0.815  1.00  0.00     0.165 HD
HETATM   10  H   UNL     1      39.006 -14.945  -1.285  1.00  0.00     0.170 HD
ENDROOT
BRANCH   1  11
HETATM   11  C   UNL     1      42.495 -16.381   1.725  1.00  0.00    -0.028 A 
HETATM   12  C   UNL     1      42.186 -17.642   1.192  1.00  0.00     0.012 A 
HETATM   13  C   UNL     1      42.591 -18.805   1.845  1.00  0.00     0.040 A 
HETATM   14  C   UNL     1      43.285 -18.718   3.054  1.00  0.00     0.102 A 
HETATM   15  C   UNL     1      43.620 -17.470   3.603  1.00  0.00     0.102 A 
HETATM   16  C   UNL     1      43.219 -16.311   2.933  1.00  0.00     0.049 A 
BRANCH  14  17
HETATM   17  O   UNL     1      43.710 -19.844   3.715  1.00  0.00    -0.339 OA
BRANCH  17  18
HETATM   18  C   UNL     1      44.826 -20.475   3.080  1.00  0.00     0.278 C 
BRANCH  18  19
HETATM   19  C   UNL     1      44.461 -21.915   2.735  1.00  0.00     0.239 C 
HETATM   20  N   UNL     1      44.630 -22.818   3.748  1.00  0.00    -0.368 N 
HETATM   21  H   UNL     1      45.181 -22.550   4.559  1.00  0.00     0.159 HD
HETATM   22  H   UNL     1      44.478 -23.795   3.550  1.00  0.00     0.159 HD
HETATM   23  O   UNL     1      43.989 -22.254   1.654  1.00  0.00    -0.271 OA
ENDBRANCH  18  19
ENDBRANCH  17  18
ENDBRANCH  14  17
BRANCH  15  24
HETATM   24  O   UNL     1      44.298 -17.505   4.795  1.00  0.00    -0.349 OA
BRANCH  24  25
HETATM   25  C   UNL     1      43.610 -17.174   6.000  1.00  0.00     0.171 C 
HETATM   26  C   UNL     1      44.147 -15.888   6.604  1.00  0.00     0.034 C 
ENDBRANCH  24  25
ENDBRANCH  15  24
ENDBRANCH   1  11
BRANCH   8  27
HETATM   27  C   UNL     1      40.483 -14.384   2.959  1.00  0.00     0.256 C 
HETATM   28  N   UNL     1      40.812 -13.077   3.247  1.00  0.00    -0.323 N 
HETATM   29  H   UNL     1      41.018 -12.479   2.458  1.00  0.00     0.169 HD
HETATM   30  O   UNL     1      40.080 -15.252   3.719  1.00  0.00    -0.267 OA
BRANCH  28  31
HETATM   31  C   UNL     1      40.845 -12.460   4.521  1.00  0.00     0.041 A 
HETATM   32  C   UNL     1      39.767 -11.630   4.905  1.00  0.00    -0.035 A 
HETATM   33  C   UNL     1      38.577 -11.385   4.017  1.00  0.00     0.050 C 
HETATM   34  C   UNL     1      39.792 -11.007   6.167  1.00  0.00     0.009 A 
HETATM   35  C   UNL     1      40.862 -11.194   7.037  1.00  0.00     0.001 A 
HETATM   36  C   UNL     1      41.924 -12.004   6.656  1.00  0.00     0.002 A 
HETATM   37  C   UNL     1      41.915 -12.630   5.407  1.00  0.00     0.030 A 
ENDBRANCH  28  31
ENDBRANCH   8  27
TORSDOF 8
ENDMDL
MODEL 8
REMARK VINA RESULT:      -7.4      2.111      6.048
REMARK  8 active torsions:
REMARK  status: ('A' for Active; 'I' for Inactive)
REMARK    1  A    between atoms: C_2  and  O_3 
REMARK    2  A    between atoms: O_3  and  C_4 
REMARK    3  A    between atoms: C_5  and  O_6 
REMARK    4  A    between atoms: O_6  and  C_7 
REMARK    5  A    between atoms: C_7  and  C_8 
REMARK       I    between atoms: C_8  and  N_9 
REMARK    6  A    between atoms: C_13  and  C_14 
REMARK    7  A    between atoms: C_21  and  C_22 
REMARK       I    between atoms: C_22  and  N_23 
REMARK    8  A    between atoms: N_23  and  C_24 
ROOT
HETATM    1  C   UNL     1      40.755 -16.166   3.172  1.00  0.00     0.160 C 
HETATM    2  N   UNL     1      39.509 -15.469   2.915  1.00  0.00    -0.330 N 
HETATM    3  C   UNL     1      39.164 -14.906   1.729  1.00  0.00     0.321 C 
HETATM    4  O   UNL     1      38.166 -14.203   1.619  1.00  0.00    -0.247 OA
HETATM    5  N   UNL     1      39.971 -15.184   0.665  1.00  0.00    -0.312 N 
HETATM    6  C   UNL     1      41.094 -15.977   0.704  1.00  0.00     0.024 C 
HETATM    7  C   UNL     1      41.791 -16.200  -0.606  1.00  0.00     0.069 C 
HETATM    8  C   UNL     1      41.470 -16.480   1.892  1.00  0.00     0.059 C 
HETATM    9  H   UNL     1      38.926 -15.201   3.696  1.00  0.00     0.165 HD
HETATM   10  H   UNL     1      39.675 -14.765  -0.209  1.00  0.00     0.170 HD
ENDROOT
BRANCH   1  11
HETATM   11  C   UNL     1      41.613 -15.399   4.166  1.00  0.00    -0.028 A 
HETATM   12  C   UNL     1      42.281 -16.052   5.212  1.00  0.00     0.012 A 
HETATM   13  C   UNL     1      43.014 -15.324   6.148  1.00  0.00     0.040 A 
HETATM   14  C   UNL     1      43.062 -13.931   6.063  1.00  0.00     0.102 A 
HETATM   15  C   UNL     1      42.415 -13.252   5.018  1.00  0.00     0.102 A 
HETATM   16  C   UNL     1      41.693 -13.994   4.079  1.00  0.00     0.049 A 
BRANCH  14  17
HETATM   17  O   UNL     1      43.786 -13.185   6.960  1.00  0.00    -0.339 OA
BRANCH  17  18
HETATM   18  C   UNL     1      45.110 -13.688   7.162  1.00  0.00     0.278 C 
BRANCH  18  19
HETATM   19  C   UNL     1      45.903 -12.694   8.002  1.00  0.00     0.239 C 
HETATM   20  N   UNL     1      47.122 -12.341   7.491  1.00  0.00    -0.368 N 
HETATM   21  H   UNL     1      47.523 -12.901   6.744  1.00  0.00     0.159 HD
HETATM   22  H   UNL     1      47.721 -11.747   8.046  1.00  0.00     0.159 HD
HETATM   23  O   UNL     1      45.476 -12.185   9.034  1.00  0.00    -0.271 OA
ENDBRANCH  18  19
ENDBRANCH  17  18
ENDBRANCH  14  17
BRANCH  15  24
HETATM   24  O   UNL     1      42.525 -11.885   5.036  1.00  0.00    -0.349 OA
BRANCH  24  25
HETATM   25  C   UNL     1      41.363 -11.093   5.273  1.00  0.00     0.171 C 
HETATM   26  C   UNL     1      40.937 -10.352   4.017  1.00  0.00     0.034 C 
ENDBRANCH  24  25
ENDBRANCH  15  24
ENDBRANCH   1  11
BRANCH   8  27
HETATM   27  C   UNL     1      42.678 -17.333   2.003  1.00  0.00     0.256 C 
HETATM   28  N   UNL     1      42.356 -18.638   2.310  1.00  0.00    -0.323 N 
HETATM   29  H   UNL     1      41.372 -18.869   2.325  1.00  0.00     0.169 HD
HETATM   30  O   UNL     1      43.782 -16.850   1.804  1.00  0.00    -0.267 OA
BRANCH  28  31
HETATM   31  C   UNL     1      43.250 -19.709   2.556  1.00  0.00     0.041 A 
HETATM   32  C   UNL     1      43.982 -19.723   3.764  1.00  0.00    -0.035 A 
HETATM   33  C   UNL     1      43.840 -18.648   4.809  1.00  0.00     0.050 C 
HETATM   34  C   UNL     1      44.877 -20.779   4.016  1.00  0.00     0.009 A 
HETATM   35  C   UNL     1      45.053 -21.804   3.092  1.00  0.00     0.001 A 
HETATM   36  C   UNL     1      44.338 -21.787   1.901  1.00  0.00     0.002 A 
HETATM   37  C   UNL     1      43.445 -20.746   1.636  1.00  0.00     0.030 A 
ENDBRANCH  28  31
ENDBRANCH   8  27
TORSDOF 8
ENDMDL
MODEL 9
REMARK VINA RESULT:      -7.4      2.351      3.442
REMARK  8 active torsions:
REMARK  status: ('A' for Active; 'I' for Inactive)
REMARK    1  A    between atoms: C_2  and  O_3 
REMARK    2  A    between atoms: O_3  and  C_4 
REMARK    3  A    between atoms: C_5  and  O_6 
REMARK    4  A    between atoms: O_6  and  C_7 
REMARK    5  A    between atoms: C_7  and  C_8 
REMARK       I    between atoms: C_8  and  N_9 
REMARK    6  A    between atoms: C_13  and  C_14 
REMARK    7  A    between atoms: C_21  and  C_22 
REMARK       I    between atoms: C_22  and  N_23 
REMARK    8  A    between atoms: N_23  and  C_24 
ROOT
HETATM    1  C   UNL     1      43.610 -14.555   5.258  1.00  0.00     0.160 C 
HETATM    2  N   UNL     1      44.249 -13.592   6.135  1.00  0.00    -0.330 N 
HETATM    3  C   UNL     1      44.402 -13.744   7.475  1.00  0.00     0.321 C 
HETATM    4  O   UNL     1      44.814 -12.830   8.181  1.00  0.00    -0.247 OA
HETATM    5  N   UNL     1      44.095 -14.970   7.988  1.00  0.00    -0.312 N 
HETATM    6  C   UNL     1      43.647 -16.048   7.260  1.00  0.00     0.024 C 
HETATM    7  C   UNL     1      43.440 -17.321   8.027  1.00  0.00     0.069 C 
HETATM    8  C   UNL     1      43.435 -15.876   5.944  1.00  0.00     0.059 C 
HETATM    9  H   UNL     1      44.429 -12.659   5.791  1.00  0.00     0.165 HD
HETATM   10  H   UNL     1      44.240 -15.056   8.987  1.00  0.00     0.170 HD
ENDROOT
BRANCH   1  11
HETATM   11  C   UNL     1      42.314 -13.997   4.690  1.00  0.00    -0.028 A 
HETATM   12  C   UNL     1      42.133 -13.829   3.309  1.00  0.00     0.012 A 
HETATM   13  C   UNL     1      40.960 -13.261   2.813  1.00  0.00     0.040 A 
HETATM   14  C   UNL     1      39.968 -12.829   3.696  1.00  0.00     0.102 A 
HETATM   15  C   UNL     1      40.116 -12.998   5.082  1.00  0.00     0.102 A 
HETATM   16  C   UNL     1      41.291 -13.579   5.567  1.00  0.00     0.049 A 
BRANCH  14  17
HETATM   17  O   UNL     1      38.796 -12.278   3.240  1.00  0.00    -0.339 OA
BRANCH  17  18
HETATM   18  C   UNL     1      38.929 -10.898   2.889  1.00  0.00     0.278 C 
BRANCH  18  19
HETATM   19  C   UNL     1      37.825 -10.098   3.572  1.00  0.00     0.239 C 
HETATM   20  N   UNL     1      36.694  -9.910   2.825  1.00  0.00    -0.368 N 
HETATM   21  H   UNL     1      36.727 -10.095   1.827  1.00  0.00     0.159 HD
HETATM   22  H   UNL     1      35.965  -9.322   3.199  1.00  0.00     0.159 HD
HETATM   23  O   UNL     1      37.896  -9.693   4.728  1.00  0.00    -0.271 OA
ENDBRANCH  18  19
ENDBRANCH  17  18
ENDBRANCH  14  17
BRANCH  15  24
HETATM   24  O   UNL     1      39.083 -12.533   5.854  1.00  0.00    -0.349 OA
BRANCH  24  25
HETATM   25  C   UNL     1      39.274 -12.380   7.260  1.00  0.00     0.171 C 
HETATM   26  C   UNL     1      39.617 -10.943   7.615  1.00  0.00     0.034 C 
ENDBRANCH  24  25
ENDBRANCH  15  24
ENDBRANCH   1  11
BRANCH   8  27
HETATM   27  C   UNL     1      42.940 -16.995   5.107  1.00  0.00     0.256 C 
HETATM   28  N   UNL     1      43.976 -17.686   4.514  1.00  0.00    -0.323 N 
HETATM   29  H   UNL     1      44.912 -17.419   4.787  1.00  0.00     0.169 HD
HETATM   30  O   UNL     1      41.740 -17.215   5.035  1.00  0.00    -0.267 OA
BRANCH  28  31
HETATM   31  C   UNL     1      43.878 -18.765   3.602  1.00  0.00     0.041 A 
HETATM   32  C   UNL     1      44.308 -20.047   4.012  1.00  0.00    -0.035 A 
HETATM   33  C   UNL     1      44.857 -20.315   5.388  1.00  0.00     0.050 C 
HETATM   34  C   UNL     1      44.221 -21.125   3.112  1.00  0.00     0.009 A 
HETATM   35  C   UNL     1      43.722 -20.944   1.825  1.00  0.00     0.001 A 
HETATM   36  C   UNL     1      43.304 -19.683   1.420  1.00  0.00     0.002 A 
HETATM   37  C   UNL     1      43.383 -18.602   2.302  1.00  0.00     0.030 A 
ENDBRANCH  28  31
ENDBRANCH   8  27
TORSDOF 8
ENDMDL
MODEL 10
REMARK VINA RESULT:      -7.3      2.670      6.979
REMARK  8 active torsions:
REMARK  status: ('A' for Active; 'I' for Inactive)
REMARK    1  A    between atoms: C_2  and  O_3 
REMARK    2  A    between atoms: O_3  and  C_4 
REMARK    3  A    between atoms: C_5  and  O_6 
REMARK    4  A    between atoms: O_6  and  C_7 
REMARK    5  A    between atoms: C_7  and  C_8 
REMARK       I    between atoms: C_8  and  N_9 
REMARK    6  A    between atoms: C_13  and  C_14 
REMARK    7  A    between atoms: C_21  and  C_22 
REMARK       I    between atoms: C_22  and  N_23 
REMARK    8  A    between atoms: N_23  and  C_24 
ROOT
HETATM    1  C   UNL     1      40.093 -14.390   4.546  1.00  0.00     0.160 C 
HETATM    2  N   UNL     1      39.452 -14.013   5.792  1.00  0.00    -0.330 N 
HETATM    3  C   UNL     1      39.469 -12.766   6.328  1.00  0.00     0.321 C 
HETATM    4  O   UNL     1      39.039 -12.547   7.455  1.00  0.00    -0.247 OA
HETATM    5  N   UNL     1      39.967 -11.771   5.539  1.00  0.00    -0.312 N 
HETATM    6  C   UNL     1      40.448 -11.934   4.261  1.00  0.00     0.024 C 
HETATM    7  C   UNL     1      40.882 -10.682   3.555  1.00  0.00     0.069 C 
HETATM    8  C   UNL     1      40.491 -13.179   3.757  1.00  0.00     0.059 C 
HETATM    9  H   UNL     1      39.132 -14.739   6.418  1.00  0.00     0.165 HD
HETATM   10  H   UNL     1      39.947 -10.849   5.961  1.00  0.00     0.170 HD
ENDROOT
BRANCH   1  11
HETATM   11  C   UNL     1      41.246 -15.349   4.796  1.00  0.00    -0.028 A 
HETATM   12  C   UNL     1      42.219 -15.085   5.772  1.00  0.00     0.012 A 
HETATM   13  C   UNL     1      43.300 -15.948   5.945  1.00  0.00     0.040 A 
HETATM   14  C   UNL     1      43.435 -17.068   5.123  1.00  0.00     0.102 A 
HETATM   15  C   UNL     1      42.470 -17.365   4.147  1.00  0.00     0.102 A 
HETATM   16  C   UNL     1      41.384 -16.499   3.991  1.00  0.00     0.049 A 
BRANCH  14  17
HETATM   17  O   UNL     1      44.481 -17.945   5.276  1.00  0.00    -0.339 OA
BRANCH  17  18
HETATM   18  C   UNL     1      44.389 -18.716   6.477  1.00  0.00     0.278 C 
BRANCH  18  19
HETATM   19  C   UNL     1      44.140 -20.177   6.118  1.00  0.00     0.239 C 
HETATM   20  N   UNL     1      44.546 -20.548   4.866  1.00  0.00    -0.368 N 
HETATM   21  H   UNL     1      44.765 -19.825   4.186  1.00  0.00     0.159 HD
HETATM   22  H   UNL     1      44.335 -21.482   4.550  1.00  0.00     0.159 HD
HETATM   23  O   UNL     1      43.667 -20.996   6.900  1.00  0.00    -0.271 OA
ENDBRANCH  18  19
ENDBRANCH  17  18
ENDBRANCH  14  17
BRANCH  15  24
HETATM   24  O   UNL     1      42.706 -18.486   3.395  1.00  0.00    -0.349 OA
BRANCH  24  25
HETATM   25  C   UNL     1      42.663 -18.395   1.972  1.00  0.00     0.171 C 
HETATM   26  C   UNL     1      43.882 -17.669   1.430  1.00  0.00     0.034 C 
ENDBRANCH  24  25
ENDBRANCH  15  24
ENDBRANCH   1  11
BRANCH   8  27
HETATM   27  C   UNL     1      41.011 -13.422   2.390  1.00  0.00     0.256 C 
HETATM   28  N   UNL     1      40.041 -13.945   1.560  1.00  0.00    -0.323 N 
HETATM   29  H   UNL     1      39.106 -14.005   1.941  1.00  0.00     0.169 HD
HETATM   30  O   UNL     1      42.168 -13.138   2.121  1.00  0.00    -0.267 OA
BRANCH  28  31
HETATM   31  C   UNL     1      40.194 -14.360   0.215  1.00  0.00     0.041 A 
HETATM   32  C   UNL     1      39.448 -13.706  -0.790  1.00  0.00    -0.035 A 
HETATM   33  C   UNL     1      38.503 -12.573  -0.490  1.00  0.00     0.050 C 
HETATM   34  C   UNL     1      39.588 -14.115  -2.130  1.00  0.00     0.009 A 
HETATM   35  C   UNL     1      40.446 -15.154  -2.475  1.00  0.00     0.001 A 
HETATM   36  C   UNL     1      41.175 -15.801  -1.486  1.00  0.00     0.002 A 
HETATM   37  C   UNL     1      41.048 -15.407  -0.151  1.00  0.00     0.030 A 
ENDBRANCH  28  31
ENDBRANCH   8  27
TORSDOF 8
ENDMDL
