MODEL 1
REMARK VINA RESULT:      -8.4      0.000      0.000
REMARK  5 active torsions:
REMARK  status: ('A' for Active; 'I' for Inactive)
REMARK    1  A    between atoms: C_3  and  N_4 
REMARK       I    between atoms: N_4  and  C_5 
REMARK       I    between atoms: C_5  and  N_6 
REMARK    2  A    between atoms: N_6  and  C_7 
REMARK    3  A    between atoms: C_7  and  C_8 
REMARK    4  A    between atoms: C_10  and  N_11 
REMARK       I    between atoms: N_11  and  C_12 
REMARK    5  A    between atoms: C_12  and  C_13 
ROOT
HETATM    1  C   UNL     1      41.954 -15.355   2.697  1.00  0.00    -0.038 A 
HETATM    2  C   UNL     1      42.950 -14.770   3.500  1.00  0.00     0.038 A 
HETATM    3  C   UNL     1      42.636 -14.212   4.742  1.00  0.00     0.035 A 
HETATM    4  C   UNL     1      41.304 -14.224   5.172  1.00  0.00     0.029 A 
HETATM    5  C   UNL     1      40.303 -14.777   4.371  1.00  0.00     0.003 A 
HETATM    6  C   UNL     1      40.625 -15.340   3.137  1.00  0.00     0.009 A 
ENDROOT
BRANCH   1   7
HETATM    7  C   UNL     1      42.321 -16.012   1.392  1.00  0.00     0.163 C 
BRANCH   7   8
HETATM    8  N   UNL     1      43.382 -16.981   1.552  1.00  0.00    -0.339 N 
HETATM    9  C   UNL     1      43.165 -18.182   2.187  1.00  0.00     0.321 C 
HETATM   10  N   UNL     1      44.353 -18.869   2.336  1.00  0.00    -0.307 N 
HETATM   11  O   UNL     1      42.072 -18.524   2.618  1.00  0.00    -0.247 OA
HETATM   12  H   UNL     1      45.135 -18.237   2.438  1.00  0.00     0.170 HD
HETATM   13  H   UNL     1      44.134 -16.948   0.879  1.00  0.00     0.164 HD
BRANCH  10  14
HETATM   14  C   UNL     1      44.482 -20.120   2.987  1.00  0.00     0.059 A 
HETATM   15  C   UNL     1      44.737 -20.303   4.353  1.00  0.00    -0.032 A 
HETATM   16  C   UNL     1      44.822 -19.188   5.356  1.00  0.00     0.050 C 
HETATM   17  C   UNL     1      44.898 -21.615   4.826  1.00  0.00     0.028 A 
HETATM   18  C   UNL     1      44.740 -22.683   3.956  1.00  0.00     0.117 A 
HETATM   19  N   UNL     1      44.426 -22.541   2.656  1.00  0.00    -0.271 NA
HETATM   20  C   UNL     1      44.303 -21.269   2.209  1.00  0.00     0.146 A 
ENDBRANCH  10  14
ENDBRANCH   7   8
ENDBRANCH   1   7
BRANCH   3  21
HETATM   21  N   UNL     1      43.593 -13.667   5.618  1.00  0.00    -0.321 N 
HETATM   22  C   UNL     1      44.325 -14.314   6.599  1.00  0.00     0.279 C 
HETATM   23  O   UNL     1      44.331 -15.525   6.798  1.00  0.00    -0.265 OA
HETATM   24  H   UNL     1      43.773 -12.671   5.544  1.00  0.00     0.169 HD
BRANCH  22  25
HETATM   25  C   UNL     1      45.124 -13.400   7.396  1.00  0.00     0.142 A 
HETATM   26  O   UNL     1      46.364 -13.016   6.949  1.00  0.00    -0.317 OA
HETATM   27  C   UNL     1      46.867 -12.146   7.863  1.00  0.00     0.143 A 
HETATM   28  C   UNL     1      45.981 -11.970   8.900  1.00  0.00     0.027 A 
HETATM   29  C   UNL     1      44.859 -12.778   8.602  1.00  0.00     0.045 A 
ENDBRANCH  22  25
ENDBRANCH   3  21
TORSDOF 5
ENDMDL
MODEL 2
REMARK VINA RESULT:      -8.2      3.022      5.880
REMARK  5 active torsions:
REMARK  status: ('A' for Active; 'I' for Inactive)
REMARK    1  A    between atoms: C_3  and  N_4 
REMARK       I    between atoms: N_4  and  C_5 
REMARK       I    between atoms: C_5  and  N_6 
REMARK    2  A    between atoms: N_6  and  C_7 
REMARK    3  A    between atoms: C_7  and  C_8 
REMARK    4  A    between atoms: C_10  and  N_11 
REMARK       I    between atoms: N_11  and  C_12 
REMARK    5  A    between atoms: C_12  and  C_13 
ROOT
HETATM    1  C   UNL     1      42.276 -17.173   5.343  1.00  0.00    -0.038 A 
HETATM    2  C   UNL     1      42.509 -16.072   6.187  1.00  0.00     0.038 A 
HETATM    3  C   UNL     1      43.729 -15.918   6.849  1.00  0.00     0.035 A 
HETATM    4  C   UNL     1      44.719 -16.893   6.678  1.00  0.00     0.029 A 
HETATM    5  C   UNL     1      44.490 -18.005   5.864  1.00  0.00     0.003 A 
HETATM    6  C   UNL     1      43.273 -18.145   5.199  1.00  0.00     0.009 A 
ENDROOT
BRANCH   1   7
HETATM    7  C   UNL     1      40.980 -17.286   4.583  1.00  0.00     0.163 C 
BRANCH   7   8
HETATM    8  N   UNL     1      40.654 -16.066   3.881  1.00  0.00    -0.339 N 
HETATM    9  C   UNL     1      40.438 -16.057   2.522  1.00  0.00     0.321 C 
HETATM   10  N   UNL     1      40.282 -14.763   2.068  1.00  0.00    -0.307 N 
HETATM   11  O   UNL     1      40.467 -17.068   1.833  1.00  0.00    -0.247 OA
HETATM   12  H   UNL     1      40.818 -14.109   2.623  1.00  0.00     0.170 HD
HETATM   13  H   UNL     1      40.213 -15.334   4.419  1.00  0.00     0.164 HD
BRANCH  10  14
HETATM   14  C   UNL     1      40.086 -14.404   0.713  1.00  0.00     0.059 A 
HETATM   15  C   UNL     1      38.850 -14.118   0.118  1.00  0.00    -0.032 A 
HETATM   16  C   UNL     1      37.545 -14.062   0.860  1.00  0.00     0.050 C 
HETATM   17  C   UNL     1      38.826 -13.838  -1.259  1.00  0.00     0.028 A 
HETATM   18  C   UNL     1      40.015 -13.790  -1.970  1.00  0.00     0.117 A 
HETATM   19  N   UNL     1      41.223 -13.991  -1.412  1.00  0.00    -0.271 NA
HETATM   20  C   UNL     1      41.225 -14.288  -0.091  1.00  0.00     0.146 A 
ENDBRANCH  10  14
ENDBRANCH   7   8
ENDBRANCH   1   7
BRANCH   3  21
HETATM   21  N   UNL     1      44.045 -14.812   7.658  1.00  0.00    -0.321 N 
HETATM   22  C   UNL     1      44.930 -13.781   7.393  1.00  0.00     0.279 C 
HETATM   23  O   UNL     1      45.521 -13.607   6.332  1.00  0.00    -0.265 OA
HETATM   24  H   UNL     1      43.586 -14.753   8.561  1.00  0.00     0.169 HD
BRANCH  22  25
HETATM   25  C   UNL     1      45.095 -12.880   8.521  1.00  0.00     0.142 A 
HETATM   26  O   UNL     1      44.408 -13.117   9.685  1.00  0.00    -0.317 OA
HETATM   27  C   UNL     1      44.772 -12.152  10.568  1.00  0.00     0.143 A 
HETATM   28  C   UNL     1      45.673 -11.287   9.994  1.00  0.00     0.027 A 
HETATM   29  C   UNL     1      45.881 -11.752   8.674  1.00  0.00     0.045 A 
ENDBRANCH  22  25
ENDBRANCH   3  21
TORSDOF 5
ENDMDL
MODEL 3
REMARK VINA RESULT:      -8.0      3.014      9.333
REMARK  5 active torsions:
REMARK  status: ('A' for Active; 'I' for Inactive)
REMARK    1  A    between atoms: C_3  and  N_4 
REMARK       I    between atoms: N_4  and  C_5 
REMARK       I    between atoms: C_5  and  N_6 
REMARK    2  A    between atoms: N_6  and  C_7 
REMARK    3  A    between atoms: C_7  and  C_8 
REMARK    4  A    between atoms: C_10  and  N_11 
REMARK       I    between atoms: N_11  and  C_12 
REMARK    5  A    between atoms: C_12  and  C_13 
ROOT
HETATM    1  C   UNL     1      43.558 -14.999   6.136  1.00  0.00    -0.038 A 
HETATM    2  C   UNL     1      43.945 -16.264   5.657  1.00  0.00     0.038 A 
HETATM    3  C   UNL     1      43.073 -17.040   4.891  1.00  0.00     0.035 A 
HETATM    4  C   UNL     1      41.790 -16.549   4.621  1.00  0.00     0.029 A 
HETATM    5  C   UNL     1      41.385 -15.308   5.115  1.00  0.00     0.003 A 
HETATM    6  C   UNL     1      42.265 -14.534   5.871  1.00  0.00     0.009 A 
ENDROOT
BRANCH   1   7
HETATM    7  C   UNL     1      44.536 -14.146   6.903  1.00  0.00     0.163 C 
BRANCH   7   8
HETATM    8  N   UNL     1      43.919 -12.950   7.428  1.00  0.00    -0.339 N 
HETATM    9  C   UNL     1      43.971 -12.646   8.769  1.00  0.00     0.321 C 
HETATM   10  N   UNL     1      43.196 -11.537   9.042  1.00  0.00    -0.307 N 
HETATM   11  O   UNL     1      44.566 -13.334   9.588  1.00  0.00    -0.247 OA
HETATM   12  H   UNL     1      42.406 -11.475   8.414  1.00  0.00     0.170 HD
HETATM   13  H   UNL     1      43.804 -12.178   6.788  1.00  0.00     0.164 HD
BRANCH  10  14
HETATM   14  C   UNL     1      43.003 -10.990  10.333  1.00  0.00     0.059 A 
HETATM   15  C   UNL     1      44.012 -10.477  11.158  1.00  0.00    -0.032 A 
HETATM   16  C   UNL     1      45.454 -10.349  10.755  1.00  0.00     0.050 C 
HETATM   17  C   UNL     1      43.655 -10.026  12.440  1.00  0.00     0.028 A 
HETATM   18  C   UNL     1      42.323 -10.040  12.825  1.00  0.00     0.117 A 
HETATM   19  N   UNL     1      41.324 -10.461  12.029  1.00  0.00    -0.271 NA
HETATM   20  C   UNL     1      41.689 -10.919  10.809  1.00  0.00     0.146 A 
ENDBRANCH  10  14
ENDBRANCH   7   8
ENDBRANCH   1   7
BRANCH   3  21
HETATM   21  N   UNL     1      43.419 -18.284   4.333  1.00  0.00    -0.321 N 
HETATM   22  C   UNL     1      43.906 -18.549   3.064  1.00  0.00     0.279 C 
HETATM   23  O   UNL     1      44.219 -17.702   2.232  1.00  0.00    -0.265 OA
HETATM   24  H   UNL     1      43.289 -19.104   4.915  1.00  0.00     0.169 HD
BRANCH  22  25
HETATM   25  C   UNL     1      44.027 -19.971   2.795  1.00  0.00     0.142 A 
HETATM   26  O   UNL     1      44.637 -20.786   3.716  1.00  0.00    -0.317 OA
HETATM   27  C   UNL     1      44.582 -22.052   3.227  1.00  0.00     0.143 A 
HETATM   28  C   UNL     1      43.959 -22.071   2.003  1.00  0.00     0.027 A 
HETATM   29  C   UNL     1      43.602 -20.731   1.721  1.00  0.00     0.045 A 
ENDBRANCH  22  25
ENDBRANCH   3  21
TORSDOF 5
ENDMDL
MODEL 4
REMARK VINA RESULT:      -7.9      3.138      7.805
REMARK  5 active torsions:
REMARK  status: ('A' for Active; 'I' for Inactive)
REMARK    1  A    between atoms: C_3  and  N_4 
REMARK       I    between atoms: N_4  and  C_5 
REMARK       I    between atoms: C_5  and  N_6 
REMARK    2  A    between atoms: N_6  and  C_7 
REMARK    3  A    between atoms: C_7  and  C_8 
REMARK    4  A    between atoms: C_10  and  N_11 
REMARK       I    between atoms: N_11  and  C_12 
REMARK    5  A    between atoms: C_12  and  C_13 
ROOT
HETATM    1  C   UNL     1      42.064 -15.626   5.929  1.00  0.00    -0.038 A 
HETATM    2  C   UNL     1      42.322 -16.780   5.167  1.00  0.00     0.038 A 
HETATM    3  C   UNL     1      43.510 -17.497   5.325  1.00  0.00     0.035 A 
HETATM    4  C   UNL     1      44.460 -17.036   6.245  1.00  0.00     0.029 A 
HETATM    5  C   UNL     1      44.228 -15.876   6.987  1.00  0.00     0.003 A 
HETATM    6  C   UNL     1      43.035 -15.173   6.830  1.00  0.00     0.009 A 
ENDROOT
BRANCH   1   7
HETATM    7  C   UNL     1      40.748 -14.906   5.794  1.00  0.00     0.163 C 
BRANCH   7   8
HETATM    8  N   UNL     1      40.036 -15.295   4.598  1.00  0.00    -0.339 N 
HETATM    9  C   UNL     1      40.094 -14.535   3.452  1.00  0.00     0.321 C 
HETATM   10  N   UNL     1      39.228 -15.034   2.500  1.00  0.00    -0.307 N 
HETATM   11  O   UNL     1      40.770 -13.520   3.355  1.00  0.00    -0.247 OA
HETATM   12  H   UNL     1      38.420 -15.467   2.926  1.00  0.00     0.170 HD
HETATM   13  H   UNL     1      39.835 -16.277   4.486  1.00  0.00     0.164 HD
BRANCH  10  14
HETATM   14  C   UNL     1      39.017 -14.458   1.224  1.00  0.00     0.059 A 
HETATM   15  C   UNL     1      39.868 -14.597   0.119  1.00  0.00    -0.032 A 
HETATM   16  C   UNL     1      41.098 -15.459   0.099  1.00  0.00     0.050 C 
HETATM   17  C   UNL     1      39.540 -13.906  -1.060  1.00  0.00     0.028 A 
HETATM   18  C   UNL     1      38.368 -13.168  -1.119  1.00  0.00     0.117 A 
HETATM   19  N   UNL     1      37.497 -13.074  -0.098  1.00  0.00    -0.271 NA
HETATM   20  C   UNL     1      37.842 -13.721   1.039  1.00  0.00     0.146 A 
ENDBRANCH  10  14
ENDBRANCH   7   8
ENDBRANCH   1   7
BRANCH   3  21
HETATM   21  N   UNL     1      43.801 -18.689   4.638  1.00  0.00    -0.321 N 
HETATM   22  C   UNL     1      44.038 -18.863   3.285  1.00  0.00     0.279 C 
HETATM   23  O   UNL     1      44.137 -17.961   2.459  1.00  0.00    -0.265 OA
HETATM   24  H   UNL     1      43.832 -19.543   5.186  1.00  0.00     0.169 HD
BRANCH  22  25
HETATM   25  C   UNL     1      44.175 -20.262   2.916  1.00  0.00     0.142 A 
HETATM   26  O   UNL     1      44.631 -21.166   3.841  1.00  0.00    -0.317 OA
HETATM   27  C   UNL     1      44.629 -22.386   3.243  1.00  0.00     0.143 A 
HETATM   28  C   UNL     1      44.192 -22.286   1.944  1.00  0.00     0.027 A 
HETATM   29  C   UNL     1      43.901 -20.918   1.729  1.00  0.00     0.045 A 
ENDBRANCH  22  25
ENDBRANCH   3  21
TORSDOF 5
ENDMDL
MODEL 5
REMARK VINA RESULT:      -7.9      3.714      7.180
REMARK  5 active torsions:
REMARK  status: ('A' for Active; 'I' for Inactive)
REMARK    1  A    between atoms: C_3  and  N_4 
REMARK       I    between atoms: N_4  and  C_5 
REMARK       I    between atoms: C_5  and  N_6 
REMARK    2  A    between atoms: N_6  and  C_7 
REMARK    3  A    between atoms: C_7  and  C_8 
REMARK    4  A    between atoms: C_10  and  N_11 
REMARK       I    between atoms: N_11  and  C_12 
REMARK    5  A    between atoms: C_12  and  C_13 
ROOT
HETATM    1  C   UNL     1      39.842 -13.965   3.616  1.00  0.00    -0.038 A 
HETATM    2  C   UNL     1      39.686 -14.584   2.363  1.00  0.00     0.038 A 
HETATM    3  C   UNL     1      39.199 -13.872   1.264  1.00  0.00     0.035 A 
HETATM    4  C   UNL     1      38.845 -12.528   1.433  1.00  0.00     0.029 A 
HETATM    5  C   UNL     1      38.968 -11.911   2.679  1.00  0.00     0.003 A 
HETATM    6  C   UNL     1      39.465 -12.626   3.768  1.00  0.00     0.009 A 
ENDROOT
BRANCH   1   7
HETATM    7  C   UNL     1      40.433 -14.730   4.772  1.00  0.00     0.163 C 
BRANCH   7   8
HETATM    8  N   UNL     1      41.748 -15.246   4.465  1.00  0.00    -0.339 N 
HETATM    9  C   UNL     1      41.956 -16.588   4.235  1.00  0.00     0.321 C 
HETATM   10  N   UNL     1      43.304 -16.850   4.103  1.00  0.00    -0.307 N 
HETATM   11  O   UNL     1      41.053 -17.414   4.235  1.00  0.00    -0.247 OA
HETATM   12  H   UNL     1      43.861 -16.214   4.659  1.00  0.00     0.170 HD
HETATM   13  H   UNL     1      42.404 -14.603   4.047  1.00  0.00     0.164 HD
BRANCH  10  14
HETATM   14  C   UNL     1      43.857 -18.137   3.902  1.00  0.00     0.059 A 
HETATM   15  C   UNL     1      43.982 -18.784   2.664  1.00  0.00    -0.032 A 
HETATM   16  C   UNL     1      43.625 -18.163   1.344  1.00  0.00     0.050 C 
HETATM   17  C   UNL     1      44.498 -20.090   2.648  1.00  0.00     0.028 A 
HETATM   18  C   UNL     1      44.925 -20.673   3.832  1.00  0.00     0.117 A 
HETATM   19  N   UNL     1      44.883 -20.051   5.024  1.00  0.00    -0.271 NA
HETATM   20  C   UNL     1      44.355 -18.805   5.026  1.00  0.00     0.146 A 
ENDBRANCH  10  14
ENDBRANCH   7   8
ENDBRANCH   1   7
BRANCH   3  21
HETATM   21  N   UNL     1      39.076 -14.415  -0.027  1.00  0.00    -0.321 N 
HETATM   22  C   UNL     1      39.970 -14.331  -1.081  1.00  0.00     0.279 C 
HETATM   23  O   UNL     1      41.094 -13.841  -1.023  1.00  0.00    -0.265 OA
HETATM   24  H   UNL     1      38.225 -14.925  -0.235  1.00  0.00     0.169 HD
BRANCH  22  25
HETATM   25  C   UNL     1      39.446 -14.905  -2.308  1.00  0.00     0.142 A 
HETATM   26  O   UNL     1      38.149 -14.648  -2.678  1.00  0.00    -0.317 OA
HETATM   27  C   UNL     1      37.939 -15.275  -3.864  1.00  0.00     0.143 A 
HETATM   28  C   UNL     1      39.072 -15.944  -4.264  1.00  0.00     0.027 A 
HETATM   29  C   UNL     1      40.043 -15.709  -3.262  1.00  0.00     0.045 A 
ENDBRANCH  22  25
ENDBRANCH   3  21
TORSDOF 5
ENDMDL
MODEL 6
REMARK VINA RESULT:      -7.7      3.698      9.666
REMARK  5 active torsions:
REMARK  status: ('A' for Active; 'I' for Inactive)
REMARK    1  A    between atoms: C_3  and  N_4 
REMARK       I    between atoms: N_4  and  C_5 
REMARK       I    between atoms: C_5  and  N_6 
REMARK    2  A    between atoms: N_6  and  C_7 
REMARK    3  A    between atoms: C_7  and  C_8 
REMARK    4  A    between atoms: C_10  and  N_11 
REMARK       I    between atoms: N_11  and  C_12 
REMARK    5  A    between atoms: C_12  and  C_13 
ROOT
HETATM    1  C   UNL     1      44.215 -14.220   6.956  1.00  0.00    -0.038 A 
HETATM    2  C   UNL     1      44.509 -15.590   6.836  1.00  0.00     0.038 A 
HETATM    3  C   UNL     1      43.834 -16.392   5.914  1.00  0.00     0.035 A 
HETATM    4  C   UNL     1      42.837 -15.816   5.117  1.00  0.00     0.029 A 
HETATM    5  C   UNL     1      42.517 -14.462   5.248  1.00  0.00     0.003 A 
HETATM    6  C   UNL     1      43.203 -13.666   6.164  1.00  0.00     0.009 A 
ENDROOT
BRANCH   1   7
HETATM    7  C   UNL     1      45.002 -13.356   7.908  1.00  0.00     0.163 C 
BRANCH   7   8
HETATM    8  N   UNL     1      44.208 -12.270   8.438  1.00  0.00    -0.339 N 
HETATM    9  C   UNL     1      44.081 -12.071   9.794  1.00  0.00     0.321 C 
HETATM   10  N   UNL     1      43.170 -11.067  10.049  1.00  0.00    -0.307 N 
HETATM   11  O   UNL     1      44.651 -12.762  10.627  1.00  0.00    -0.247 OA
HETATM   12  H   UNL     1      42.451 -11.030   9.338  1.00  0.00     0.170 HD
HETATM   13  H   UNL     1      44.085 -11.464   7.843  1.00  0.00     0.164 HD
BRANCH  10  14
HETATM   14  C   UNL     1      42.779 -10.646  11.343  1.00  0.00     0.059 A 
HETATM   15  C   UNL     1      41.478 -10.710  11.860  1.00  0.00    -0.032 A 
HETATM   16  C   UNL     1      40.309 -11.323  11.142  1.00  0.00     0.050 C 
HETATM   17  C   UNL     1      41.250 -10.190  13.145  1.00  0.00     0.028 A 
HETATM   18  C   UNL     1      42.314  -9.694  13.883  1.00  0.00     0.117 A 
HETATM   19  N   UNL     1      43.584  -9.684  13.441  1.00  0.00    -0.271 NA
HETATM   20  C   UNL     1      43.782 -10.161  12.190  1.00  0.00     0.146 A 
ENDBRANCH  10  14
ENDBRANCH   7   8
ENDBRANCH   1   7
BRANCH   3  21
HETATM   21  N   UNL     1      44.122 -17.753   5.703  1.00  0.00    -0.321 N 
HETATM   22  C   UNL     1      44.193 -18.439   4.502  1.00  0.00     0.279 C 
HETATM   23  O   UNL     1      44.114 -17.930   3.388  1.00  0.00    -0.265 OA
HETATM   24  H   UNL     1      44.288 -18.323   6.526  1.00  0.00     0.169 HD
BRANCH  22  25
HETATM   25  C   UNL     1      44.385 -19.867   4.683  1.00  0.00     0.142 A 
HETATM   26  O   UNL     1      44.708 -20.650   3.603  1.00  0.00    -0.317 OA
HETATM   27  C   UNL     1      44.858 -21.920   4.061  1.00  0.00     0.143 A 
HETATM   28  C   UNL     1      44.627 -21.977   5.415  1.00  0.00     0.027 A 
HETATM   29  C   UNL     1      44.319 -20.655   5.818  1.00  0.00     0.045 A 
ENDBRANCH  22  25
ENDBRANCH   3  21
TORSDOF 5
ENDMDL
MODEL 7
REMARK VINA RESULT:      -7.7      2.821      3.535
REMARK  5 active torsions:
REMARK  status: ('A' for Active; 'I' for Inactive)
REMARK    1  A    between atoms: C_3  and  N_4 
REMARK       I    between atoms: N_4  and  C_5 
REMARK       I    between atoms: C_5  and  N_6 
REMARK    2  A    between atoms: N_6  and  C_7 
REMARK    3  A    between atoms: C_7  and  C_8 
REMARK    4  A    between atoms: C_10  and  N_11 
REMARK       I    between atoms: N_11  and  C_12 
REMARK    5  A    between atoms: C_12  and  C_13 
ROOT
HETATM    1  C   UNL     1      40.748 -13.073   4.134  1.00  0.00    -0.038 A 
HETATM    2  C   UNL     1      41.494 -12.781   5.290  1.00  0.00     0.038 A 
HETATM    3  C   UNL     1      40.953 -12.007   6.320  1.00  0.00     0.035 A 
HETATM    4  C   UNL     1      39.655 -11.503   6.176  1.00  0.00     0.029 A 
HETATM    5  C   UNL     1      38.915 -11.763   5.020  1.00  0.00     0.003 A 
HETATM    6  C   UNL     1      39.459 -12.544   4.002  1.00  0.00     0.009 A 
ENDROOT
BRANCH   1   7
HETATM    7  C   UNL     1      41.323 -13.966   3.066  1.00  0.00     0.163 C 
BRANCH   7   8
HETATM    8  N   UNL     1      41.237 -15.364   3.422  1.00  0.00    -0.339 N 
HETATM    9  C   UNL     1      42.363 -16.099   3.714  1.00  0.00     0.321 C 
HETATM   10  N   UNL     1      42.038 -17.430   3.886  1.00  0.00    -0.307 N 
HETATM   11  O   UNL     1      43.489 -15.621   3.731  1.00  0.00    -0.247 OA
HETATM   12  H   UNL     1      41.246 -17.694   3.316  1.00  0.00     0.170 HD
HETATM   13  H   UNL     1      40.367 -15.678   3.827  1.00  0.00     0.164 HD
BRANCH  10  14
HETATM   14  C   UNL     1      42.973 -18.458   4.155  1.00  0.00     0.059 A 
HETATM   15  C   UNL     1      43.679 -19.187   3.190  1.00  0.00    -0.032 A 
HETATM   16  C   UNL     1      43.613 -18.924   1.712  1.00  0.00     0.050 C 
HETATM   17  C   UNL     1      44.526 -20.219   3.627  1.00  0.00     0.028 A 
HETATM   18  C   UNL     1      44.689 -20.443   4.986  1.00  0.00     0.117 A 
HETATM   19  N   UNL     1      44.079 -19.714   5.937  1.00  0.00    -0.271 NA
HETATM   20  C   UNL     1      43.244 -18.743   5.498  1.00  0.00     0.146 A 
ENDBRANCH  10  14
ENDBRANCH   7   8
ENDBRANCH   1   7
BRANCH   3  21
HETATM   21  N   UNL     1      41.624 -11.731   7.525  1.00  0.00    -0.321 N 
HETATM   22  C   UNL     1      42.156 -10.526   7.953  1.00  0.00     0.279 C 
HETATM   23  O   UNL     1      42.033  -9.450   7.376  1.00  0.00    -0.265 OA
HETATM   24  H   UNL     1      41.757 -12.504   8.168  1.00  0.00     0.169 HD
BRANCH  22  25
HETATM   25  C   UNL     1      42.894 -10.651   9.198  1.00  0.00     0.142 A 
HETATM   26  O   UNL     1      44.264 -10.728   9.170  1.00  0.00    -0.317 OA
HETATM   27  C   UNL     1      44.686 -10.805  10.459  1.00  0.00     0.143 A 
HETATM   28  C   UNL     1      43.615 -10.791  11.320  1.00  0.00     0.027 A 
HETATM   29  C   UNL     1      42.459 -10.694  10.510  1.00  0.00     0.045 A 
ENDBRANCH  22  25
ENDBRANCH   3  21
TORSDOF 5
ENDMDL
MODEL 8
REMARK VINA RESULT:      -7.7      3.416      7.654
REMARK  5 active torsions:
REMARK  status: ('A' for Active; 'I' for Inactive)
REMARK    1  A    between atoms: C_3  and  N_4 
REMARK       I    between atoms: N_4  and  C_5 
REMARK       I    between atoms: C_5  and  N_6 
REMARK    2  A    between atoms: N_6  and  C_7 
REMARK    3  A    between atoms: C_7  and  C_8 
REMARK    4  A    between atoms: C_10  and  N_11 
REMARK       I    between atoms: N_11  and  C_12 
REMARK    5  A    between atoms: C_12  and  C_13 
ROOT
HETATM    1  C   UNL     1      41.739 -14.798   4.403  1.00  0.00    -0.038 A 
HETATM    2  C   UNL     1      42.303 -15.965   3.856  1.00  0.00     0.038 A 
HETATM    3  C   UNL     1      42.051 -17.218   4.420  1.00  0.00     0.035 A 
HETATM    4  C   UNL     1      41.241 -17.297   5.559  1.00  0.00     0.029 A 
HETATM    5  C   UNL     1      40.698 -16.143   6.127  1.00  0.00     0.003 A 
HETATM    6  C   UNL     1      40.946 -14.897   5.553  1.00  0.00     0.009 A 
ENDROOT
BRANCH   1   7
HETATM    7  C   UNL     1      41.965 -13.464   3.741  1.00  0.00     0.163 C 
BRANCH   7   8
HETATM    8  N   UNL     1      42.445 -13.605   2.385  1.00  0.00    -0.339 N 
HETATM    9  C   UNL     1      41.599 -13.465   1.308  1.00  0.00     0.321 C 
HETATM   10  N   UNL     1      42.258 -13.780   0.136  1.00  0.00    -0.307 N 
HETATM   11  O   UNL     1      40.415 -13.179   1.420  1.00  0.00    -0.247 OA
HETATM   12  H   UNL     1      42.970 -14.482   0.289  1.00  0.00     0.170 HD
HETATM   13  H   UNL     1      43.424 -13.416   2.226  1.00  0.00     0.164 HD
BRANCH  10  14
HETATM   14  C   UNL     1      41.660 -13.779  -1.147  1.00  0.00     0.059 A 
HETATM   15  C   UNL     1      41.837 -12.792  -2.126  1.00  0.00    -0.032 A 
HETATM   16  C   UNL     1      42.769 -11.621  -1.989  1.00  0.00     0.050 C 
HETATM   17  C   UNL     1      41.119 -12.913  -3.327  1.00  0.00     0.028 A 
HETATM   18  C   UNL     1      40.314 -14.022  -3.536  1.00  0.00     0.117 A 
HETATM   19  N   UNL     1      40.179 -15.020  -2.644  1.00  0.00    -0.271 NA
HETATM   20  C   UNL     1      40.855 -14.874  -1.481  1.00  0.00     0.146 A 
ENDBRANCH  10  14
ENDBRANCH   7   8
ENDBRANCH   1   7
BRANCH   3  21
HETATM   21  N   UNL     1      42.535 -18.426   3.886  1.00  0.00    -0.321 N 
HETATM   22  C   UNL     1      43.777 -19.010   4.073  1.00  0.00     0.279 C 
HETATM   23  O   UNL     1      44.644 -18.604   4.840  1.00  0.00    -0.265 OA
HETATM   24  H   UNL     1      41.914 -18.943   3.273  1.00  0.00     0.169 HD
BRANCH  22  25
HETATM   25  C   UNL     1      43.967 -20.196   3.256  1.00  0.00     0.142 A 
HETATM   26  O   UNL     1      44.582 -21.299   3.794  1.00  0.00    -0.317 OA
HETATM   27  C   UNL     1      44.597 -22.257   2.832  1.00  0.00     0.143 A 
HETATM   28  C   UNL     1      44.016 -21.792   1.677  1.00  0.00     0.027 A 
HETATM   29  C   UNL     1      43.611 -20.463   1.947  1.00  0.00     0.045 A 
ENDBRANCH  22  25
ENDBRANCH   3  21
TORSDOF 5
ENDMDL
MODEL 9
REMARK VINA RESULT:      -7.5      3.762      9.322
REMARK  5 active torsions:
REMARK  status: ('A' for Active; 'I' for Inactive)
REMARK    1  A    between atoms: C_3  and  N_4 
REMARK       I    between atoms: N_4  and  C_5 
REMARK       I    between atoms: C_5  and  N_6 
REMARK    2  A    between atoms: N_6  and  C_7 
REMARK    3  A    between atoms: C_7  and  C_8 
REMARK    4  A    between atoms: C_10  and  N_11 
REMARK       I    between atoms: N_11  and  C_12 
REMARK    5  A    between atoms: C_12  and  C_13 
ROOT
HETATM    1  C   UNL     1      41.184 -12.396   5.398  1.00  0.00    -0.038 A 
HETATM    2  C   UNL     1      41.916 -13.597   5.400  1.00  0.00     0.038 A 
HETATM    3  C   UNL     1      41.565 -14.655   4.558  1.00  0.00     0.035 A 
HETATM    4  C   UNL     1      40.454 -14.512   3.719  1.00  0.00     0.029 A 
HETATM    5  C   UNL     1      39.703 -13.334   3.729  1.00  0.00     0.003 A 
HETATM    6  C   UNL     1      40.065 -12.280   4.565  1.00  0.00     0.009 A 
ENDROOT
BRANCH   1   7
HETATM    7  C   UNL     1      41.618 -11.241   6.263  1.00  0.00     0.163 C 
BRANCH   7   8
HETATM    8  N   UNL     1      41.538 -11.557   7.671  1.00  0.00    -0.339 N 
HETATM    9  C   UNL     1      41.851 -10.624   8.633  1.00  0.00     0.321 C 
HETATM   10  N   UNL     1      41.832 -11.201   9.887  1.00  0.00    -0.307 N 
HETATM   11  O   UNL     1      42.174  -9.473   8.370  1.00  0.00    -0.247 OA
HETATM   12  H   UNL     1      42.095 -12.177   9.849  1.00  0.00     0.170 HD
HETATM   13  H   UNL     1      40.901 -12.293   7.937  1.00  0.00     0.164 HD
BRANCH  10  14
HETATM   14  C   UNL     1      42.149 -10.524  11.088  1.00  0.00     0.059 A 
HETATM   15  C   UNL     1      43.434 -10.392  11.632  1.00  0.00    -0.032 A 
HETATM   16  C   UNL     1      44.690 -10.880  10.967  1.00  0.00     0.050 C 
HETATM   17  C   UNL     1      43.567  -9.739  12.869  1.00  0.00     0.028 A 
HETATM   18  C   UNL     1      42.448  -9.194  13.480  1.00  0.00     0.117 A 
HETATM   19  N   UNL     1      41.213  -9.242  12.948  1.00  0.00    -0.271 NA
HETATM   20  C   UNL     1      41.099  -9.900  11.771  1.00  0.00     0.146 A 
ENDBRANCH  10  14
ENDBRANCH   7   8
ENDBRANCH   1   7
BRANCH   3  21
HETATM   21  N   UNL     1      42.291 -15.857   4.470  1.00  0.00    -0.321 N 
HETATM   22  C   UNL     1      43.241 -16.218   3.530  1.00  0.00     0.279 C 
HETATM   23  O   UNL     1      43.691 -15.483   2.656  1.00  0.00    -0.265 OA
HETATM   24  H   UNL     1      42.096 -16.567   5.168  1.00  0.00     0.169 HD
BRANCH  22  25
HETATM   25  C   UNL     1      43.684 -17.593   3.680  1.00  0.00     0.142 A 
HETATM   26  O   UNL     1      44.182 -18.017   4.887  1.00  0.00    -0.317 OA
HETATM   27  C   UNL     1      44.485 -19.335   4.753  1.00  0.00     0.143 A 
HETATM   28  C   UNL     1      44.204 -19.768   3.479  1.00  0.00     0.027 A 
HETATM   29  C   UNL     1      43.690 -18.647   2.785  1.00  0.00     0.045 A 
ENDBRANCH  22  25
ENDBRANCH   3  21
TORSDOF 5
ENDMDL
MODEL 10
REMARK VINA RESULT:      -7.4      2.708      6.340
REMARK  5 active torsions:
REMARK  status: ('A' for Active; 'I' for Inactive)
REMARK    1  A    between atoms: C_3  and  N_4 
REMARK       I    between atoms: N_4  and  C_5 
REMARK       I    between atoms: C_5  and  N_6 
REMARK    2  A    between atoms: N_6  and  C_7 
REMARK    3  A    between atoms: C_7  and  C_8 
REMARK    4  A    between atoms: C_10  and  N_11 
REMARK       I    between atoms: N_11  and  C_12 
REMARK    5  A    between atoms: C_12  and  C_13 
ROOT
HETATM    1  C   UNL     1      42.934 -17.682   4.600  1.00  0.00    -0.038 A 
HETATM    2  C   UNL     1      43.068 -16.503   5.354  1.00  0.00     0.038 A 
HETATM    3  C   UNL     1      44.036 -16.394   6.355  1.00  0.00     0.035 A 
HETATM    4  C   UNL     1      44.865 -17.492   6.615  1.00  0.00     0.029 A 
HETATM    5  C   UNL     1      44.723 -18.678   5.892  1.00  0.00     0.003 A 
HETATM    6  C   UNL     1      43.761 -18.774   4.888  1.00  0.00     0.009 A 
ENDROOT
BRANCH   1   7
HETATM    7  C   UNL     1      41.931 -17.756   3.478  1.00  0.00     0.163 C 
BRANCH   7   8
HETATM    8  N   UNL     1      40.840 -16.827   3.664  1.00  0.00    -0.339 N 
HETATM    9  C   UNL     1      40.795 -15.630   2.985  1.00  0.00     0.321 C 
HETATM   10  N   UNL     1      39.738 -14.864   3.432  1.00  0.00    -0.307 N 
HETATM   11  O   UNL     1      41.638 -15.295   2.164  1.00  0.00    -0.247 OA
HETATM   12  H   UNL     1      39.539 -15.040   4.408  1.00  0.00     0.170 HD
HETATM   13  H   UNL     1      39.959 -17.214   3.969  1.00  0.00     0.164 HD
BRANCH  10  14
HETATM   14  C   UNL     1      39.438 -13.560   2.968  1.00  0.00     0.059 A 
HETATM   15  C   UNL     1      38.636 -13.256   1.860  1.00  0.00    -0.032 A 
HETATM   16  C   UNL     1      37.896 -14.277   1.043  1.00  0.00     0.050 C 
HETATM   17  C   UNL     1      38.490 -11.906   1.498  1.00  0.00     0.028 A 
HETATM   18  C   UNL     1      39.081 -10.921   2.274  1.00  0.00     0.117 A 
HETATM   19  N   UNL     1      39.797 -11.178   3.383  1.00  0.00    -0.271 NA
HETATM   20  C   UNL     1      39.952 -12.484   3.700  1.00  0.00     0.146 A 
ENDBRANCH  10  14
ENDBRANCH   7   8
ENDBRANCH   1   7
BRANCH   3  21
HETATM   21  N   UNL     1      44.260 -15.224   7.102  1.00  0.00    -0.321 N 
HETATM   22  C   UNL     1      44.592 -13.962   6.640  1.00  0.00     0.279 C 
HETATM   23  O   UNL     1      44.645 -13.628   5.460  1.00  0.00    -0.265 OA
HETATM   24  H   UNL     1      44.187 -15.298   8.111  1.00  0.00     0.169 HD
BRANCH  22  25
HETATM   25  C   UNL     1      44.874 -13.027   7.716  1.00  0.00     0.142 A 
HETATM   26  O   UNL     1      43.842 -12.343   8.308  1.00  0.00    -0.317 OA
HETATM   27  C   UNL     1      44.383 -11.575   9.289  1.00  0.00     0.143 A 
HETATM   28  C   UNL     1      45.747 -11.739   9.335  1.00  0.00     0.027 A 
HETATM   29  C   UNL     1      46.066 -12.673   8.321  1.00  0.00     0.045 A 
ENDBRANCH  22  25
ENDBRANCH   3  21
TORSDOF 5
ENDMDL
