MODEL 1
REMARK VINA RESULT:      -7.2      0.000      0.000
REMARK  6 active torsions:
REMARK  status: ('A' for Active; 'I' for Inactive)
REMARK    1  A    between atoms: C_2  and  C_3 
REMARK    2  A    between atoms: C_3  and  N_4 
REMARK    3  A    between atoms: C_3  and  C_17 
REMARK    4  A    between atoms: N_4  and  C_5 
REMARK    5  A    between atoms: C_5  and  C_6 
REMARK       I    between atoms: C_6  and  N_7 
REMARK    6  A    between atoms: N_7  and  C_8 
ROOT
HETATM    1  N   UNL     1      43.521 -15.969   2.631  1.00  0.00     0.101 N 
HETATM    2  H   UNL     1      44.306 -16.293   3.198  1.00  0.00     0.317 HD
ENDROOT
BRANCH   1   3
HETATM    3  C   UNL     1      42.312 -15.908   3.477  1.00  0.00     0.256 C 
BRANCH   3   4
HETATM    4  C   UNL     1      41.625 -14.534   3.304  1.00  0.00     0.036 C 
HETATM    5  C   UNL     1      40.104 -14.627   3.266  1.00  0.00     0.007 C 
ENDBRANCH   3   4
BRANCH   3   6
HETATM    6  C   UNL     1      42.615 -16.160   4.948  1.00  0.00     0.013 A 
HETATM    7  C   UNL     1      41.904 -17.148   5.646  1.00  0.00     0.127 A 
HETATM    8  F   UNL     1      40.952 -17.853   5.019  1.00  0.00    -0.205 F 
HETATM    9  C   UNL     1      42.166 -17.430   6.982  1.00  0.00     0.085 A 
HETATM   10  C   UNL     1      43.155 -16.713   7.637  1.00  0.00     0.119 A 
HETATM   11  F   UNL     1      43.421 -16.979   8.923  1.00  0.00    -0.206 F 
HETATM   12  C   UNL     1      43.876 -15.721   6.981  1.00  0.00     0.043 A 
HETATM   13  C   UNL     1      43.607 -15.441   5.640  1.00  0.00     0.015 A 
ENDBRANCH   3   6
ENDBRANCH   1   3
BRANCH   1  14
HETATM   14  C   UNL     1      43.348 -16.904   1.495  1.00  0.00     0.372 C 
BRANCH  14  15
HETATM   15  C   UNL     1      43.175 -18.340   2.009  1.00  0.00     0.250 C 
HETATM   16  N   UNL     1      44.321 -18.827   2.602  1.00  0.00    -0.322 N 
HETATM   17  H   UNL     1      45.125 -18.208   2.555  1.00  0.00     0.169 HD
HETATM   18  O   UNL     1      42.127 -18.947   1.826  1.00  0.00    -0.271 OA
BRANCH  16  19
HETATM   19  C   UNL     1      44.494 -20.050   3.218  1.00  0.00     0.085 A 
HETATM   20  C   UNL     1      44.391 -21.401   2.771  1.00  0.00     0.079 A 
HETATM   21  C   UNL     1      44.007 -21.951   1.446  1.00  0.00     0.075 C 
HETATM   22  N   UNL     1      44.648 -22.266   3.764  1.00  0.00    -0.177 NA
HETATM   23  N   UNL     1      44.907 -21.490   4.820  1.00  0.00    -0.280 N 
HETATM   24  H   UNL     1      45.139 -21.944   5.696  1.00  0.00     0.189 HD
HETATM   25  C   UNL     1      44.816 -20.153   4.559  1.00  0.00     0.052 A 
HETATM   26  C   UNL     1      45.070 -19.138   5.606  1.00  0.00     0.072 C 
ENDBRANCH  16  19
ENDBRANCH  14  15
ENDBRANCH   1  14
TORSDOF 6
ENDMDL
MODEL 2
REMARK VINA RESULT:      -7.2      2.931      6.345
REMARK  6 active torsions:
REMARK  status: ('A' for Active; 'I' for Inactive)
REMARK    1  A    between atoms: C_2  and  C_3 
REMARK    2  A    between atoms: C_3  and  N_4 
REMARK    3  A    between atoms: C_3  and  C_17 
REMARK    4  A    between atoms: N_4  and  C_5 
REMARK    5  A    between atoms: C_5  and  C_6 
REMARK       I    between atoms: C_6  and  N_7 
REMARK    6  A    between atoms: N_7  and  C_8 
ROOT
HETATM    1  N   UNL     1      42.134 -17.589   3.262  1.00  0.00     0.101 N 
HETATM    2  H   UNL     1      41.561 -18.123   2.609  1.00  0.00     0.317 HD
ENDROOT
BRANCH   1   3
HETATM    3  C   UNL     1      43.559 -17.840   2.965  1.00  0.00     0.256 C 
BRANCH   3   4
HETATM    4  C   UNL     1      43.911 -17.265   1.575  1.00  0.00     0.036 C 
HETATM    5  C   UNL     1      42.700 -16.717   0.829  1.00  0.00     0.007 C 
ENDBRANCH   3   4
BRANCH   3   6
HETATM    6  C   UNL     1      43.917 -19.319   3.025  1.00  0.00     0.013 A 
HETATM    7  C   UNL     1      44.604 -19.825   4.139  1.00  0.00     0.127 A 
HETATM    8  F   UNL     1      44.956 -19.002   5.137  1.00  0.00    -0.205 F 
HETATM    9  C   UNL     1      44.926 -21.173   4.249  1.00  0.00     0.085 A 
HETATM   10  C   UNL     1      44.559 -22.035   3.227  1.00  0.00     0.119 A 
HETATM   11  F   UNL     1      44.859 -23.337   3.322  1.00  0.00    -0.206 F 
HETATM   12  C   UNL     1      43.883 -21.570   2.104  1.00  0.00     0.043 A 
HETATM   13  C   UNL     1      43.564 -20.215   1.999  1.00  0.00     0.015 A 
ENDBRANCH   3   6
ENDBRANCH   1   3
BRANCH   1  14
HETATM   14  C   UNL     1      41.781 -18.002   4.640  1.00  0.00     0.372 C 
BRANCH  14  15
HETATM   15  C   UNL     1      41.451 -16.772   5.497  1.00  0.00     0.250 C 
HETATM   16  N   UNL     1      42.180 -15.662   5.123  1.00  0.00    -0.322 N 
HETATM   17  H   UNL     1      42.869 -15.826   4.396  1.00  0.00     0.169 HD
HETATM   18  O   UNL     1      40.662 -16.854   6.430  1.00  0.00    -0.271 OA
BRANCH  16  19
HETATM   19  C   UNL     1      42.089 -14.384   5.640  1.00  0.00     0.085 A 
HETATM   20  C   UNL     1      41.079 -13.377   5.601  1.00  0.00     0.079 A 
HETATM   21  C   UNL     1      39.755 -13.365   4.929  1.00  0.00     0.075 C 
HETATM   22  N   UNL     1      41.465 -12.272   6.257  1.00  0.00    -0.177 NA
HETATM   23  N   UNL     1      42.692 -12.563   6.700  1.00  0.00    -0.280 N 
HETATM   24  H   UNL     1      43.180 -11.856   7.240  1.00  0.00     0.189 HD
HETATM   25  C   UNL     1      43.126 -13.809   6.349  1.00  0.00     0.052 A 
HETATM   26  C   UNL     1      44.460 -14.309   6.752  1.00  0.00     0.072 C 
ENDBRANCH  16  19
ENDBRANCH  14  15
ENDBRANCH   1  14
TORSDOF 6
ENDMDL
MODEL 3
REMARK VINA RESULT:      -7.1      2.530      4.172
REMARK  6 active torsions:
REMARK  status: ('A' for Active; 'I' for Inactive)
REMARK    1  A    between atoms: C_2  and  C_3 
REMARK    2  A    between atoms: C_3  and  N_4 
REMARK    3  A    between atoms: C_3  and  C_17 
REMARK    4  A    between atoms: N_4  and  C_5 
REMARK    5  A    between atoms: C_5  and  C_6 
REMARK       I    between atoms: C_6  and  N_7 
REMARK    6  A    between atoms: N_7  and  C_8 
ROOT
HETATM    1  N   UNL     1      43.582 -16.939   6.668  1.00  0.00     0.101 N 
HETATM    2  H   UNL     1      42.727 -17.441   6.423  1.00  0.00     0.317 HD
ENDROOT
BRANCH   1   3
HETATM    3  C   UNL     1      43.795 -15.851   5.692  1.00  0.00     0.256 C 
BRANCH   3   4
HETATM    4  C   UNL     1      43.582 -14.484   6.380  1.00  0.00     0.036 C 
HETATM    5  C   UNL     1      44.846 -13.940   7.035  1.00  0.00     0.007 C 
ENDBRANCH   3   4
BRANCH   3   6
HETATM    6  C   UNL     1      42.889 -15.971   4.475  1.00  0.00     0.013 A 
HETATM    7  C   UNL     1      43.136 -15.184   3.341  1.00  0.00     0.127 A 
HETATM    8  F   UNL     1      44.160 -14.318   3.339  1.00  0.00    -0.205 F 
HETATM    9  C   UNL     1      42.351 -15.280   2.198  1.00  0.00     0.085 A 
HETATM   10  C   UNL     1      41.295 -16.179   2.184  1.00  0.00     0.119 A 
HETATM   11  F   UNL     1      40.533 -16.285   1.088  1.00  0.00    -0.206 F 
HETATM   12  C   UNL     1      41.013 -16.971   3.291  1.00  0.00     0.043 A 
HETATM   13  C   UNL     1      41.805 -16.868   4.437  1.00  0.00     0.015 A 
ENDBRANCH   3   6
ENDBRANCH   1   3
BRANCH   1  14
HETATM   14  C   UNL     1      44.706 -17.905   6.666  1.00  0.00     0.372 C 
BRANCH  14  15
HETATM   15  C   UNL     1      44.272 -19.227   6.021  1.00  0.00     0.250 C 
HETATM   16  N   UNL     1      44.682 -19.330   4.708  1.00  0.00    -0.322 N 
HETATM   17  H   UNL     1      45.144 -18.505   4.337  1.00  0.00     0.169 HD
HETATM   18  O   UNL     1      43.588 -20.031   6.643  1.00  0.00    -0.271 OA
BRANCH  16  19
HETATM   19  C   UNL     1      44.515 -20.404   3.856  1.00  0.00     0.085 A 
HETATM   20  C   UNL     1      44.741 -21.807   3.986  1.00  0.00     0.079 A 
HETATM   21  C   UNL     1      45.290 -22.594   5.119  1.00  0.00     0.075 C 
HETATM   22  N   UNL     1      44.430 -22.459   2.855  1.00  0.00    -0.177 NA
HETATM   23  N   UNL     1      44.020 -21.498   2.022  1.00  0.00    -0.280 N 
HETATM   24  H   UNL     1      43.723 -21.773   1.092  1.00  0.00     0.189 HD
HETATM   25  C   UNL     1      44.062 -20.244   2.560  1.00  0.00     0.052 A 
HETATM   26  C   UNL     1      43.644 -19.053   1.787  1.00  0.00     0.072 C 
ENDBRANCH  16  19
ENDBRANCH  14  15
ENDBRANCH   1  14
TORSDOF 6
ENDMDL
MODEL 4
REMARK VINA RESULT:      -7.1      2.956      6.809
REMARK  6 active torsions:
REMARK  status: ('A' for Active; 'I' for Inactive)
REMARK    1  A    between atoms: C_2  and  C_3 
REMARK    2  A    between atoms: C_3  and  N_4 
REMARK    3  A    between atoms: C_3  and  C_17 
REMARK    4  A    between atoms: N_4  and  C_5 
REMARK    5  A    between atoms: C_5  and  C_6 
REMARK       I    between atoms: C_6  and  N_7 
REMARK    6  A    between atoms: N_7  and  C_8 
ROOT
HETATM    1  N   UNL     1      42.121 -17.680   3.321  1.00  0.00     0.101 N 
HETATM    2  H   UNL     1      41.595 -18.501   3.021  1.00  0.00     0.317 HD
ENDROOT
BRANCH   1   3
HETATM    3  C   UNL     1      43.556 -17.905   3.051  1.00  0.00     0.256 C 
BRANCH   3   4
HETATM    4  C   UNL     1      43.926 -17.309   1.674  1.00  0.00     0.036 C 
HETATM    5  C   UNL     1      42.715 -16.830   0.883  1.00  0.00     0.007 C 
ENDBRANCH   3   4
BRANCH   3   6
HETATM    6  C   UNL     1      43.936 -19.378   3.104  1.00  0.00     0.013 A 
HETATM    7  C   UNL     1      44.574 -19.893   4.242  1.00  0.00     0.127 A 
HETATM    8  F   UNL     1      44.860 -19.082   5.271  1.00  0.00    -0.205 F 
HETATM    9  C   UNL     1      44.915 -21.237   4.344  1.00  0.00     0.085 A 
HETATM   10  C   UNL     1      44.616 -22.086   3.290  1.00  0.00     0.119 A 
HETATM   11  F   UNL     1      44.934 -23.384   3.377  1.00  0.00    -0.206 F 
HETATM   12  C   UNL     1      43.991 -21.612   2.142  1.00  0.00     0.043 A 
HETATM   13  C   UNL     1      43.653 -20.260   2.045  1.00  0.00     0.015 A 
ENDBRANCH   3   6
ENDBRANCH   1   3
BRANCH   1  14
HETATM   14  C   UNL     1      41.863 -17.461   4.763  1.00  0.00     0.372 C 
BRANCH  14  15
HETATM   15  C   UNL     1      41.111 -16.140   4.976  1.00  0.00     0.250 C 
HETATM   16  N   UNL     1      41.146 -15.331   3.858  1.00  0.00    -0.322 N 
HETATM   17  H   UNL     1      41.711 -15.683   3.092  1.00  0.00     0.169 HD
HETATM   18  O   UNL     1      40.611 -15.873   6.061  1.00  0.00    -0.271 OA
BRANCH  16  19
HETATM   19  C   UNL     1      40.526 -14.109   3.686  1.00  0.00     0.085 A 
HETATM   20  C   UNL     1      40.661 -12.839   4.322  1.00  0.00     0.079 A 
HETATM   21  C   UNL     1      41.523 -12.415   5.454  1.00  0.00     0.075 C 
HETATM   22  N   UNL     1      39.814 -11.939   3.800  1.00  0.00    -0.177 NA
HETATM   23  N   UNL     1      39.152 -12.615   2.857  1.00  0.00    -0.280 N 
HETATM   24  H   UNL     1      38.452 -12.116   2.319  1.00  0.00     0.189 HD
HETATM   25  C   UNL     1      39.525 -13.924   2.751  1.00  0.00     0.052 A 
HETATM   26  C   UNL     1      38.904 -14.831   1.760  1.00  0.00     0.072 C 
ENDBRANCH  16  19
ENDBRANCH  14  15
ENDBRANCH   1  14
TORSDOF 6
ENDMDL
MODEL 5
REMARK VINA RESULT:      -6.9      3.008      6.119
REMARK  6 active torsions:
REMARK  status: ('A' for Active; 'I' for Inactive)
REMARK    1  A    between atoms: C_2  and  C_3 
REMARK    2  A    between atoms: C_3  and  N_4 
REMARK    3  A    between atoms: C_3  and  C_17 
REMARK    4  A    between atoms: N_4  and  C_5 
REMARK    5  A    between atoms: C_5  and  C_6 
REMARK       I    between atoms: C_6  and  N_7 
REMARK    6  A    between atoms: N_7  and  C_8 
ROOT
HETATM    1  N   UNL     1      44.119 -17.550   1.924  1.00  0.00     0.101 N 
HETATM    2  H   UNL     1      45.058 -17.255   1.651  1.00  0.00     0.317 HD
ENDROOT
BRANCH   1   3
HETATM    3  C   UNL     1      44.222 -18.770   2.749  1.00  0.00     0.256 C 
BRANCH   3   4
HETATM    4  C   UNL     1      43.341 -19.886   2.142  1.00  0.00     0.036 C 
HETATM    5  C   UNL     1      44.043 -21.238   2.085  1.00  0.00     0.007 C 
ENDBRANCH   3   4
BRANCH   3   6
HETATM    6  C   UNL     1      43.832 -18.529   4.201  1.00  0.00     0.013 A 
HETATM    7  C   UNL     1      44.531 -19.180   5.228  1.00  0.00     0.127 A 
HETATM    8  F   UNL     1      45.528 -20.024   4.926  1.00  0.00    -0.205 F 
HETATM    9  C   UNL     1      44.227 -18.968   6.568  1.00  0.00     0.085 A 
HETATM   10  C   UNL     1      43.204 -18.090   6.893  1.00  0.00     0.119 A 
HETATM   11  F   UNL     1      42.904 -17.873   8.180  1.00  0.00    -0.206 F 
HETATM   12  C   UNL     1      42.484 -17.431   5.903  1.00  0.00     0.043 A 
HETATM   13  C   UNL     1      42.792 -17.650   4.558  1.00  0.00     0.015 A 
ENDBRANCH   3   6
ENDBRANCH   1   3
BRANCH   1  14
HETATM   14  C   UNL     1      43.329 -17.786   0.693  1.00  0.00     0.372 C 
BRANCH  14  15
HETATM   15  C   UNL     1      42.063 -16.919   0.699  1.00  0.00     0.250 C 
HETATM   16  N   UNL     1      42.150 -15.857  -0.178  1.00  0.00    -0.322 N 
HETATM   17  H   UNL     1      43.047 -15.758  -0.643  1.00  0.00     0.169 HD
HETATM   18  O   UNL     1      41.139 -17.166   1.464  1.00  0.00    -0.271 OA
BRANCH  16  19
HETATM   19  C   UNL     1      41.175 -14.922  -0.466  1.00  0.00     0.085 A 
HETATM   20  C   UNL     1      40.548 -13.890   0.293  1.00  0.00     0.079 A 
HETATM   21  C   UNL     1      40.722 -13.496   1.714  1.00  0.00     0.075 C 
HETATM   22  N   UNL     1      39.631 -13.235  -0.436  1.00  0.00    -0.177 NA
HETATM   23  N   UNL     1      39.669 -13.835  -1.629  1.00  0.00    -0.280 N 
HETATM   24  H   UNL     1      39.049 -13.488  -2.353  1.00  0.00     0.189 HD
HETATM   25  C   UNL     1      40.564 -14.863  -1.704  1.00  0.00     0.052 A 
HETATM   26  C   UNL     1      40.747 -15.645  -2.948  1.00  0.00     0.072 C 
ENDBRANCH  16  19
ENDBRANCH  14  15
ENDBRANCH   1  14
TORSDOF 6
ENDMDL
MODEL 6
REMARK VINA RESULT:      -6.8      2.818      6.194
REMARK  6 active torsions:
REMARK  status: ('A' for Active; 'I' for Inactive)
REMARK    1  A    between atoms: C_2  and  C_3 
REMARK    2  A    between atoms: C_3  and  N_4 
REMARK    3  A    between atoms: C_3  and  C_17 
REMARK    4  A    between atoms: N_4  and  C_5 
REMARK    5  A    between atoms: C_5  and  C_6 
REMARK       I    between atoms: C_6  and  N_7 
REMARK    6  A    between atoms: N_7  and  C_8 
ROOT
HETATM    1  N   UNL     1      40.981 -16.961   4.778  1.00  0.00     0.101 N 
HETATM    2  H   UNL     1      40.199 -17.278   5.353  1.00  0.00     0.317 HD
ENDROOT
BRANCH   1   3
HETATM    3  C   UNL     1      42.243 -17.426   5.390  1.00  0.00     0.256 C 
BRANCH   3   4
HETATM    4  C   UNL     1      43.136 -16.211   5.730  1.00  0.00     0.036 C 
HETATM    5  C   UNL     1      43.535 -16.153   7.200  1.00  0.00     0.007 C 
ENDBRANCH   3   4
BRANCH   3   6
HETATM    6  C   UNL     1      43.001 -18.400   4.499  1.00  0.00     0.013 A 
HETATM    7  C   UNL     1      43.894 -19.318   5.072  1.00  0.00     0.127 A 
HETATM    8  F   UNL     1      44.087 -19.322   6.399  1.00  0.00    -0.205 F 
HETATM    9  C   UNL     1      44.587 -20.243   4.300  1.00  0.00     0.085 A 
HETATM   10  C   UNL     1      44.388 -20.254   2.928  1.00  0.00     0.119 A 
HETATM   11  F   UNL     1      45.045 -21.143   2.172  1.00  0.00    -0.206 F 
HETATM   12  C   UNL     1      43.517 -19.355   2.322  1.00  0.00     0.043 A 
HETATM   13  C   UNL     1      42.825 -18.427   3.103  1.00  0.00     0.015 A 
ENDBRANCH   3   6
ENDBRANCH   1   3
BRANCH   1  14
HETATM   14  C   UNL     1      40.927 -15.484   4.689  1.00  0.00     0.372 C 
BRANCH  14  15
HETATM   15  C   UNL     1      40.578 -15.048   3.260  1.00  0.00     0.250 C 
HETATM   16  N   UNL     1      41.698 -14.716   2.525  1.00  0.00    -0.322 N 
HETATM   17  H   UNL     1      42.572 -14.737   3.041  1.00  0.00     0.169 HD
HETATM   18  O   UNL     1      39.411 -14.971   2.897  1.00  0.00    -0.271 OA
BRANCH  16  19
HETATM   19  C   UNL     1      41.750 -14.343   1.196  1.00  0.00     0.085 A 
HETATM   20  C   UNL     1      41.843 -13.084   0.531  1.00  0.00     0.079 A 
HETATM   21  C   UNL     1      41.873 -11.705   1.078  1.00  0.00     0.075 C 
HETATM   22  N   UNL     1      41.854 -13.236  -0.803  1.00  0.00    -0.177 NA
HETATM   23  N   UNL     1      41.767 -14.557  -0.986  1.00  0.00    -0.280 N 
HETATM   24  H   UNL     1      41.767 -14.904  -1.939  1.00  0.00     0.189 HD
HETATM   25  C   UNL     1      41.688 -15.272   0.174  1.00  0.00     0.052 A 
HETATM   26  C   UNL     1      41.588 -16.749   0.171  1.00  0.00     0.072 C 
ENDBRANCH  16  19
ENDBRANCH  14  15
ENDBRANCH   1  14
TORSDOF 6
ENDMDL
MODEL 7
REMARK VINA RESULT:      -6.8      2.277      5.769
REMARK  6 active torsions:
REMARK  status: ('A' for Active; 'I' for Inactive)
REMARK    1  A    between atoms: C_2  and  C_3 
REMARK    2  A    between atoms: C_3  and  N_4 
REMARK    3  A    between atoms: C_3  and  C_17 
REMARK    4  A    between atoms: N_4  and  C_5 
REMARK    5  A    between atoms: C_5  and  C_6 
REMARK       I    between atoms: C_6  and  N_7 
REMARK    6  A    between atoms: N_7  and  C_8 
ROOT
HETATM    1  N   UNL     1      44.367 -18.317   2.171  1.00  0.00     0.101 N 
HETATM    2  H   UNL     1      45.116 -18.184   1.490  1.00  0.00     0.317 HD
ENDROOT
BRANCH   1   3
HETATM    3  C   UNL     1      44.392 -19.716   2.643  1.00  0.00     0.256 C 
BRANCH   3   4
HETATM    4  C   UNL     1      43.336 -20.543   1.875  1.00  0.00     0.036 C 
HETATM    5  C   UNL     1      43.891 -21.843   1.304  1.00  0.00     0.007 C 
ENDBRANCH   3   4
BRANCH   3   6
HETATM    6  C   UNL     1      44.158 -19.832   4.142  1.00  0.00     0.013 A 
HETATM    7  C   UNL     1      44.540 -21.001   4.819  1.00  0.00     0.127 A 
HETATM    8  F   UNL     1      45.093 -22.015   4.139  1.00  0.00    -0.205 F 
HETATM    9  C   UNL     1      44.370 -21.139   6.192  1.00  0.00     0.085 A 
HETATM   10  C   UNL     1      43.807 -20.093   6.907  1.00  0.00     0.119 A 
HETATM   11  F   UNL     1      43.643 -20.211   8.230  1.00  0.00    -0.206 F 
HETATM   12  C   UNL     1      43.410 -18.922   6.270  1.00  0.00     0.043 A 
HETATM   13  C   UNL     1      43.581 -18.790   4.891  1.00  0.00     0.015 A 
ENDBRANCH   3   6
ENDBRANCH   1   3
BRANCH   1  14
HETATM   14  C   UNL     1      43.080 -17.980   1.521  1.00  0.00     0.372 C 
BRANCH  14  15
HETATM   15  C   UNL     1      42.390 -16.831   2.267  1.00  0.00     0.250 C 
HETATM   16  N   UNL     1      43.231 -15.756   2.469  1.00  0.00    -0.322 N 
HETATM   17  H   UNL     1      44.190 -15.899   2.164  1.00  0.00     0.169 HD
HETATM   18  O   UNL     1      41.236 -16.946   2.663  1.00  0.00    -0.271 OA
BRANCH  16  19
HETATM   19  C   UNL     1      42.921 -14.542   3.049  1.00  0.00     0.085 A 
HETATM   20  C   UNL     1      43.031 -14.029   4.376  1.00  0.00     0.079 A 
HETATM   21  C   UNL     1      43.501 -14.679   5.625  1.00  0.00     0.075 C 
HETATM   22  N   UNL     1      42.579 -12.768   4.451  1.00  0.00    -0.177 NA
HETATM   23  N   UNL     1      42.187 -12.482   3.206  1.00  0.00    -0.280 N 
HETATM   24  H   UNL     1      41.811 -11.557   3.029  1.00  0.00     0.189 HD
HETATM   25  C   UNL     1      42.353 -13.511   2.325  1.00  0.00     0.052 A 
HETATM   26  C   UNL     1      41.977 -13.380   0.898  1.00  0.00     0.072 C 
ENDBRANCH  16  19
ENDBRANCH  14  15
ENDBRANCH   1  14
TORSDOF 6
ENDMDL
MODEL 8
REMARK VINA RESULT:      -6.8      2.320      5.626
REMARK  6 active torsions:
REMARK  status: ('A' for Active; 'I' for Inactive)
REMARK    1  A    between atoms: C_2  and  C_3 
REMARK    2  A    between atoms: C_3  and  N_4 
REMARK    3  A    between atoms: C_3  and  C_17 
REMARK    4  A    between atoms: N_4  and  C_5 
REMARK    5  A    between atoms: C_5  and  C_6 
REMARK       I    between atoms: C_6  and  N_7 
REMARK    6  A    between atoms: N_7  and  C_8 
ROOT
HETATM    1  N   UNL     1      44.156 -17.506   1.823  1.00  0.00     0.101 N 
HETATM    2  H   UNL     1      45.003 -17.453   1.256  1.00  0.00     0.317 HD
ENDROOT
BRANCH   1   3
HETATM    3  C   UNL     1      44.158 -18.780   2.570  1.00  0.00     0.256 C 
BRANCH   3   4
HETATM    4  C   UNL     1      43.153 -19.763   1.927  1.00  0.00     0.036 C 
HETATM    5  C   UNL     1      43.680 -21.191   1.847  1.00  0.00     0.007 C 
ENDBRANCH   3   4
BRANCH   3   6
HETATM    6  C   UNL     1      43.836 -18.594   4.045  1.00  0.00     0.013 A 
HETATM    7  C   UNL     1      44.576 -19.288   5.014  1.00  0.00     0.127 A 
HETATM    8  F   UNL     1      45.553 -20.124   4.634  1.00  0.00    -0.205 F 
HETATM    9  C   UNL     1      44.335 -19.127   6.374  1.00  0.00     0.085 A 
HETATM   10  C   UNL     1      43.333 -18.258   6.778  1.00  0.00     0.119 A 
HETATM   11  F   UNL     1      43.093 -18.089   8.085  1.00  0.00    -0.206 F 
HETATM   12  C   UNL     1      42.573 -17.557   5.848  1.00  0.00     0.043 A 
HETATM   13  C   UNL     1      42.819 -17.725   4.484  1.00  0.00     0.015 A 
ENDBRANCH   3   6
ENDBRANCH   1   3
BRANCH   1  14
HETATM   14  C   UNL     1      42.985 -17.401   0.922  1.00  0.00     0.372 C 
BRANCH  14  15
HETATM   15  C   UNL     1      42.099 -16.218   1.335  1.00  0.00     0.250 C 
HETATM   16  N   UNL     1      42.834 -15.158   1.823  1.00  0.00    -0.322 N 
HETATM   17  H   UNL     1      43.832 -15.329   1.905  1.00  0.00     0.169 HD
HETATM   18  O   UNL     1      40.879 -16.297   1.267  1.00  0.00    -0.271 OA
BRANCH  16  19
HETATM   19  C   UNL     1      42.364 -13.923   2.224  1.00  0.00     0.085 A 
HETATM   20  C   UNL     1      41.557 -12.926   1.598  1.00  0.00     0.079 A 
HETATM   21  C   UNL     1      40.968 -12.879   0.236  1.00  0.00     0.075 C 
HETATM   22  N   UNL     1      41.374 -11.868   2.403  1.00  0.00    -0.177 NA
HETATM   23  N   UNL     1      42.050 -12.178   3.514  1.00  0.00    -0.280 N 
HETATM   24  H   UNL     1      42.041 -11.508   4.275  1.00  0.00     0.189 HD
HETATM   25  C   UNL     1      42.676 -13.390   3.461  1.00  0.00     0.052 A 
HETATM   26  C   UNL     1      43.472 -13.904   4.599  1.00  0.00     0.072 C 
ENDBRANCH  16  19
ENDBRANCH  14  15
ENDBRANCH   1  14
TORSDOF 6
ENDMDL
MODEL 9
REMARK VINA RESULT:      -6.7      2.989      6.555
REMARK  6 active torsions:
REMARK  status: ('A' for Active; 'I' for Inactive)
REMARK    1  A    between atoms: C_2  and  C_3 
REMARK    2  A    between atoms: C_3  and  N_4 
REMARK    3  A    between atoms: C_3  and  C_17 
REMARK    4  A    between atoms: N_4  and  C_5 
REMARK    5  A    between atoms: C_5  and  C_6 
REMARK       I    between atoms: C_6  and  N_7 
REMARK    6  A    between atoms: N_7  and  C_8 
ROOT
HETATM    1  N   UNL     1      43.616 -16.043   3.938  1.00  0.00     0.101 N 
HETATM    2  H   UNL     1      43.570 -16.208   2.932  1.00  0.00     0.317 HD
ENDROOT
BRANCH   1   3
HETATM    3  C   UNL     1      43.125 -17.245   4.642  1.00  0.00     0.256 C 
BRANCH   3   4
HETATM    4  C   UNL     1      43.628 -17.234   6.104  1.00  0.00     0.036 C 
HETATM    5  C   UNL     1      42.498 -17.303   7.126  1.00  0.00     0.007 C 
ENDBRANCH   3   4
BRANCH   3   6
HETATM    6  C   UNL     1      43.544 -18.537   3.955  1.00  0.00     0.013 A 
HETATM    7  C   UNL     1      42.968 -18.891   2.725  1.00  0.00     0.127 A 
HETATM    8  F   UNL     1      42.041 -18.098   2.170  1.00  0.00    -0.205 F 
HETATM    9  C   UNL     1      43.340 -20.047   2.049  1.00  0.00     0.085 A 
HETATM   10  C   UNL     1      44.305 -20.870   2.609  1.00  0.00     0.119 A 
HETATM   11  F   UNL     1      44.677 -21.984   1.966  1.00  0.00    -0.206 F 
HETATM   12  C   UNL     1      44.894 -20.557   3.830  1.00  0.00     0.043 A 
HETATM   13  C   UNL     1      44.514 -19.395   4.505  1.00  0.00     0.015 A 
ENDBRANCH   3   6
ENDBRANCH   1   3
BRANCH   1  14
HETATM   14  C   UNL     1      42.796 -14.851   4.254  1.00  0.00     0.372 C 
BRANCH  14  15
HETATM   15  C   UNL     1      42.284 -14.199   2.963  1.00  0.00     0.250 C 
HETATM   16  N   UNL     1      41.141 -14.807   2.486  1.00  0.00    -0.322 N 
HETATM   17  H   UNL     1      40.843 -15.627   3.005  1.00  0.00     0.169 HD
HETATM   18  O   UNL     1      42.904 -13.282   2.437  1.00  0.00    -0.271 OA
BRANCH  16  19
HETATM   19  C   UNL     1      40.389 -14.439   1.388  1.00  0.00     0.085 A 
HETATM   20  C   UNL     1      39.353 -13.479   1.182  1.00  0.00     0.079 A 
HETATM   21  C   UNL     1      38.695 -12.551   2.135  1.00  0.00     0.075 C 
HETATM   22  N   UNL     1      38.915 -13.498  -0.087  1.00  0.00    -0.177 NA
HETATM   23  N   UNL     1      39.648 -14.447  -0.676  1.00  0.00    -0.280 N 
HETATM   24  H   UNL     1      39.486 -14.628  -1.660  1.00  0.00     0.189 HD
HETATM   25  C   UNL     1      40.538 -15.057   0.161  1.00  0.00     0.052 A 
HETATM   26  C   UNL     1      41.439 -16.132  -0.314  1.00  0.00     0.072 C 
ENDBRANCH  16  19
ENDBRANCH  14  15
ENDBRANCH   1  14
TORSDOF 6
ENDMDL
MODEL 10
REMARK VINA RESULT:      -6.7      3.943      6.859
REMARK  6 active torsions:
REMARK  status: ('A' for Active; 'I' for Inactive)
REMARK    1  A    between atoms: C_2  and  C_3 
REMARK    2  A    between atoms: C_3  and  N_4 
REMARK    3  A    between atoms: C_3  and  C_17 
REMARK    4  A    between atoms: N_4  and  C_5 
REMARK    5  A    between atoms: C_5  and  C_6 
REMARK       I    between atoms: C_6  and  N_7 
REMARK    6  A    between atoms: N_7  and  C_8 
ROOT
HETATM    1  N   UNL     1      40.033 -16.282   1.552  1.00  0.00     0.101 N 
HETATM    2  H   UNL     1      39.424 -17.068   1.323  1.00  0.00     0.317 HD
ENDROOT
BRANCH   1   3
HETATM    3  C   UNL     1      40.662 -16.528   2.865  1.00  0.00     0.256 C 
BRANCH   3   4
HETATM    4  C   UNL     1      41.046 -15.182   3.520  1.00  0.00     0.036 C 
HETATM    5  C   UNL     1      40.529 -15.041   4.946  1.00  0.00     0.007 C 
ENDBRANCH   3   4
BRANCH   3   6
HETATM    6  C   UNL     1      41.883 -17.431   2.769  1.00  0.00     0.013 A 
HETATM    7  C   UNL     1      42.269 -18.202   3.875  1.00  0.00     0.127 A 
HETATM    8  F   UNL     1      41.570 -18.128   5.017  1.00  0.00    -0.205 F 
HETATM    9  C   UNL     1      43.362 -19.061   3.823  1.00  0.00     0.085 A 
HETATM   10  C   UNL     1      44.087 -19.152   2.645  1.00  0.00     0.119 A 
HETATM   11  F   UNL     1      45.138 -19.979   2.580  1.00  0.00    -0.206 F 
HETATM   12  C   UNL     1      43.740 -18.399   1.529  1.00  0.00     0.043 A 
HETATM   13  C   UNL     1      42.642 -17.537   1.588  1.00  0.00     0.015 A 
ENDBRANCH   3   6
ENDBRANCH   1   3
BRANCH   1  14
HETATM   14  C   UNL     1      39.217 -15.046   1.558  1.00  0.00     0.372 C 
BRANCH  14  15
HETATM   15  C   UNL     1      39.646 -14.118   0.414  1.00  0.00     0.250 C 
HETATM   16  N   UNL     1      40.703 -14.631  -0.310  1.00  0.00    -0.322 N 
HETATM   17  H   UNL     1      41.087 -15.500   0.050  1.00  0.00     0.169 HD
HETATM   18  O   UNL     1      39.106 -13.030   0.255  1.00  0.00    -0.271 OA
BRANCH  16  19
HETATM   19  C   UNL     1      41.295 -14.089  -1.434  1.00  0.00     0.085 A 
HETATM   20  C   UNL     1      42.092 -12.928  -1.662  1.00  0.00     0.079 A 
HETATM   21  C   UNL     1      42.530 -11.860  -0.729  1.00  0.00     0.075 C 
HETATM   22  N   UNL     1      42.432 -12.815  -2.956  1.00  0.00    -0.177 NA
HETATM   23  N   UNL     1      41.863 -13.874  -3.540  1.00  0.00    -0.280 N 
HETATM   24  H   UNL     1      42.000 -13.994  -4.538  1.00  0.00     0.189 HD
HETATM   25  C   UNL     1      41.156 -14.666  -2.682  1.00  0.00     0.052 A 
HETATM   26  C   UNL     1      40.458 -15.886  -3.147  1.00  0.00     0.072 C 
ENDBRANCH  16  19
ENDBRANCH  14  15
ENDBRANCH   1  14
TORSDOF 6
ENDMDL
