MODEL 1
REMARK VINA RESULT:      -7.7      0.000      0.000
REMARK  5 active torsions:
REMARK  status: ('A' for Active; 'I' for Inactive)
REMARK    1  A    between atoms: C_2  and  O_3 
REMARK    2  A    between atoms: O_3  and  C_4 
REMARK    3  A    between atoms: C_10  and  N_11 
REMARK       I    between atoms: N_11  and  C_12 
REMARK       I    between atoms: C_12  and  N_13 
REMARK    4  A    between atoms: N_13  and  C_14 
REMARK    5  A    between atoms: C_14  and  C_15 
ROOT
HETATM    1  N   UNL     1      43.822 -18.107   3.259  1.00  0.00    -0.306 N 
HETATM    2  C   UNL     1      43.920 -17.137   2.301  1.00  0.00     0.321 C 
HETATM    3  N   UNL     1      43.680 -15.858   2.706  1.00  0.00    -0.337 N 
HETATM    4  O   UNL     1      44.189 -17.304   1.115  1.00  0.00    -0.247 OA
HETATM    5  H   UNL     1      43.856 -17.800   4.231  1.00  0.00     0.171 HD
HETATM    6  H   UNL     1      43.754 -15.197   1.945  1.00  0.00     0.164 HD
ENDROOT
BRANCH   1   7
HETATM    7  C   UNL     1      43.959 -19.507   3.091  1.00  0.00     0.071 A 
HETATM    8  C   UNL     1      44.452 -20.257   4.178  1.00  0.00     0.117 A 
HETATM    9  C   UNL     1      44.719 -21.627   4.024  1.00  0.00     0.069 A 
HETATM   10 CL   UNL     1      45.484 -22.562   5.260  1.00  0.00    -0.081 Cl
HETATM   11  C   UNL     1      44.401 -22.271   2.827  1.00  0.00     0.027 A 
HETATM   12  C   UNL     1      43.842 -21.548   1.777  1.00  0.00     0.004 A 
HETATM   13  C   UNL     1      43.629 -20.173   1.906  1.00  0.00     0.032 A 
BRANCH   8  14
HETATM   14  O   UNL     1      44.735 -19.586   5.347  1.00  0.00    -0.343 OA
BRANCH  14  15
HETATM   15  C   UNL     1      43.583 -19.446   6.201  1.00  0.00     0.121 C 
HETATM   16  C   UNL     1      43.581 -18.070   6.864  1.00  0.00     0.040 C 
HETATM   17  C   UNL     1      43.678 -20.538   7.263  1.00  0.00     0.040 C 
ENDBRANCH  14  15
ENDBRANCH   8  14
ENDBRANCH   1   7
BRANCH   3  18
HETATM   18  C   UNL     1      43.145 -15.393   3.970  1.00  0.00     0.183 C 
BRANCH  18  19
HETATM   19  C   UNL     1      41.843 -14.649   3.800  1.00  0.00     0.053 A 
HETATM   20  N   UNL     1      41.676 -13.540   4.566  1.00  0.00    -0.264 NA
HETATM   21  C   UNL     1      40.546 -12.819   4.395  1.00  0.00     0.118 A 
HETATM   22  C   UNL     1      39.557 -13.152   3.493  1.00  0.00     0.043 A 
HETATM   23  C   UNL     1      39.753 -14.288   2.719  1.00  0.00     0.037 A 
HETATM   24 CL   UNL     1      38.558 -14.752   1.572  1.00  0.00    -0.084 Cl
HETATM   25  C   UNL     1      40.907 -15.050   2.857  1.00  0.00     0.052 A 
ENDBRANCH  18  19
ENDBRANCH   3  18
TORSDOF 5
ENDMDL
MODEL 2
REMARK VINA RESULT:      -7.6      2.292      2.952
REMARK  5 active torsions:
REMARK  status: ('A' for Active; 'I' for Inactive)
REMARK    1  A    between atoms: C_2  and  O_3 
REMARK    2  A    between atoms: O_3  and  C_4 
REMARK    3  A    between atoms: C_10  and  N_11 
REMARK       I    between atoms: N_11  and  C_12 
REMARK       I    between atoms: C_12  and  N_13 
REMARK    4  A    between atoms: N_13  and  C_14 
REMARK    5  A    between atoms: C_14  and  C_15 
ROOT
HETATM    1  N   UNL     1      42.693 -17.225   1.534  1.00  0.00    -0.306 N 
HETATM    2  C   UNL     1      41.421 -17.201   1.032  1.00  0.00     0.321 C 
HETATM    3  N   UNL     1      41.045 -16.060   0.390  1.00  0.00    -0.337 N 
HETATM    4  O   UNL     1      40.585 -18.095   1.115  1.00  0.00    -0.247 OA
HETATM    5  H   UNL     1      43.347 -16.536   1.166  1.00  0.00     0.171 HD
HETATM    6  H   UNL     1      40.091 -16.106   0.060  1.00  0.00     0.164 HD
ENDROOT
BRANCH   1   7
HETATM    7  C   UNL     1      43.305 -18.254   2.292  1.00  0.00     0.071 A 
HETATM    8  C   UNL     1      43.685 -17.960   3.618  1.00  0.00     0.117 A 
HETATM    9  C   UNL     1      44.402 -18.905   4.370  1.00  0.00     0.069 A 
HETATM   10 CL   UNL     1      45.045 -18.542   5.933  1.00  0.00    -0.081 Cl
HETATM   11  C   UNL     1      44.651 -20.174   3.845  1.00  0.00     0.027 A 
HETATM   12  C   UNL     1      44.209 -20.493   2.564  1.00  0.00     0.004 A 
HETATM   13  C   UNL     1      43.547 -19.536   1.790  1.00  0.00     0.032 A 
BRANCH   8  14
HETATM   14  O   UNL     1      43.404 -16.703   4.104  1.00  0.00    -0.343 OA
BRANCH  14  15
HETATM   15  C   UNL     1      42.400 -16.717   5.137  1.00  0.00     0.121 C 
HETATM   16  C   UNL     1      41.048 -16.295   4.566  1.00  0.00     0.040 C 
HETATM   17  C   UNL     1      42.847 -15.726   6.208  1.00  0.00     0.040 C 
ENDBRANCH  14  15
ENDBRANCH   8  14
ENDBRANCH   1   7
BRANCH   3  18
HETATM   18  C   UNL     1      41.734 -14.787   0.325  1.00  0.00     0.183 C 
BRANCH  18  19
HETATM   19  C   UNL     1      41.695 -14.049   1.641  1.00  0.00     0.053 A 
HETATM   20  N   UNL     1      42.876 -13.927   2.301  1.00  0.00    -0.264 NA
HETATM   21  C   UNL     1      42.885 -13.221   3.453  1.00  0.00     0.118 A 
HETATM   22  C   UNL     1      41.764 -12.626   3.993  1.00  0.00     0.043 A 
HETATM   23  C   UNL     1      40.570 -12.760   3.297  1.00  0.00     0.037 A 
HETATM   24 CL   UNL     1      39.138 -12.036   3.916  1.00  0.00    -0.084 Cl
HETATM   25  C   UNL     1      40.522 -13.470   2.103  1.00  0.00     0.052 A 
ENDBRANCH  18  19
ENDBRANCH   3  18
TORSDOF 5
ENDMDL
MODEL 3
REMARK VINA RESULT:      -7.6      2.913      4.534
REMARK  5 active torsions:
REMARK  status: ('A' for Active; 'I' for Inactive)
REMARK    1  A    between atoms: C_2  and  O_3 
REMARK    2  A    between atoms: O_3  and  C_4 
REMARK    3  A    between atoms: C_10  and  N_11 
REMARK       I    between atoms: N_11  and  C_12 
REMARK       I    between atoms: C_12  and  N_13 
REMARK    4  A    between atoms: N_13  and  C_14 
REMARK    5  A    between atoms: C_14  and  C_15 
ROOT
HETATM    1  N   UNL     1      42.316 -15.601   3.917  1.00  0.00    -0.306 N 
HETATM    2  C   UNL     1      42.622 -14.550   3.098  1.00  0.00     0.321 C 
HETATM    3  N   UNL     1      41.632 -14.122   2.266  1.00  0.00    -0.337 N 
HETATM    4  O   UNL     1      43.699 -13.967   3.029  1.00  0.00    -0.247 OA
HETATM    5  H   UNL     1      41.326 -15.804   4.055  1.00  0.00     0.171 HD
HETATM    6  H   UNL     1      41.933 -13.355   1.679  1.00  0.00     0.164 HD
ENDROOT
BRANCH   1   7
HETATM    7  C   UNL     1      43.174 -16.273   4.822  1.00  0.00     0.071 A 
HETATM    8  C   UNL     1      43.477 -17.625   4.564  1.00  0.00     0.117 A 
HETATM    9  C   UNL     1      44.224 -18.368   5.492  1.00  0.00     0.069 A 
HETATM   10 CL   UNL     1      44.482 -20.069   5.318  1.00  0.00    -0.081 Cl
HETATM   11  C   UNL     1      44.756 -17.745   6.622  1.00  0.00     0.027 A 
HETATM   12  C   UNL     1      44.523 -16.389   6.840  1.00  0.00     0.004 A 
HETATM   13  C   UNL     1      43.730 -15.660   5.949  1.00  0.00     0.032 A 
BRANCH   8  14
HETATM   14  O   UNL     1      42.949 -18.197   3.429  1.00  0.00    -0.343 OA
BRANCH  14  15
HETATM   15  C   UNL     1      43.954 -18.518   2.447  1.00  0.00     0.121 C 
HETATM   16  C   UNL     1      43.895 -17.529   1.286  1.00  0.00     0.040 C 
HETATM   17  C   UNL     1      43.656 -19.929   1.948  1.00  0.00     0.040 C 
ENDBRANCH  14  15
ENDBRANCH   8  14
ENDBRANCH   1   7
BRANCH   3  18
HETATM   18  C   UNL     1      40.354 -14.742   1.984  1.00  0.00     0.183 C 
BRANCH  18  19
HETATM   19  C   UNL     1      39.935 -14.560   0.545  1.00  0.00     0.053 A 
HETATM   20  N   UNL     1      38.711 -14.011   0.336  1.00  0.00    -0.264 NA
HETATM   21  C   UNL     1      38.331 -13.781  -0.940  1.00  0.00     0.118 A 
HETATM   22  C   UNL     1      39.116 -14.078  -2.035  1.00  0.00     0.043 A 
HETATM   23  C   UNL     1      40.365 -14.634  -1.796  1.00  0.00     0.037 A 
HETATM   24 CL   UNL     1      41.392 -15.021  -3.120  1.00  0.00    -0.084 Cl
HETATM   25  C   UNL     1      40.796 -14.876  -0.497  1.00  0.00     0.052 A 
ENDBRANCH  18  19
ENDBRANCH   3  18
TORSDOF 5
ENDMDL
MODEL 4
REMARK VINA RESULT:      -7.6      2.284      3.755
REMARK  5 active torsions:
REMARK  status: ('A' for Active; 'I' for Inactive)
REMARK    1  A    between atoms: C_2  and  O_3 
REMARK    2  A    between atoms: O_3  and  C_4 
REMARK    3  A    between atoms: C_10  and  N_11 
REMARK       I    between atoms: N_11  and  C_12 
REMARK       I    between atoms: C_12  and  N_13 
REMARK    4  A    between atoms: N_13  and  C_14 
REMARK    5  A    between atoms: C_14  and  C_15 
ROOT
HETATM    1  N   UNL     1      44.244 -18.939   5.781  1.00  0.00    -0.306 N 
HETATM    2  C   UNL     1      43.945 -18.717   7.096  1.00  0.00     0.321 C 
HETATM    3  N   UNL     1      43.897 -17.415   7.495  1.00  0.00    -0.337 N 
HETATM    4  O   UNL     1      43.731 -19.571   7.952  1.00  0.00    -0.247 OA
HETATM    5  H   UNL     1      44.135 -18.151   5.144  1.00  0.00     0.171 HD
HETATM    6  H   UNL     1      43.687 -17.327   8.481  1.00  0.00     0.164 HD
ENDROOT
BRANCH   1   7
HETATM    7  C   UNL     1      44.418 -20.186   5.131  1.00  0.00     0.071 A 
HETATM    8  C   UNL     1      44.478 -20.193   3.722  1.00  0.00     0.117 A 
HETATM    9  C   UNL     1      44.529 -21.412   3.026  1.00  0.00     0.069 A 
HETATM   10 CL   UNL     1      44.430 -21.494   1.302  1.00  0.00    -0.081 Cl
HETATM   11  C   UNL     1      44.624 -22.614   3.728  1.00  0.00     0.027 A 
HETATM   12  C   UNL     1      44.643 -22.606   5.120  1.00  0.00     0.004 A 
HETATM   13  C   UNL     1      44.533 -21.399   5.817  1.00  0.00     0.032 A 
BRANCH   8  14
HETATM   14  O   UNL     1      44.401 -18.983   3.069  1.00  0.00    -0.343 OA
BRANCH  14  15
HETATM   15  C   UNL     1      43.165 -18.818   2.347  1.00  0.00     0.121 C 
HETATM   16  C   UNL     1      43.406 -18.039   1.056  1.00  0.00     0.040 C 
HETATM   17  C   UNL     1      42.216 -18.043   3.256  1.00  0.00     0.040 C 
ENDBRANCH  14  15
ENDBRANCH   8  14
ENDBRANCH   1   7
BRANCH   3  18
HETATM   18  C   UNL     1      44.305 -16.229   6.771  1.00  0.00     0.183 C 
BRANCH  18  19
HETATM   19  C   UNL     1      43.179 -15.645   5.952  1.00  0.00     0.053 A 
HETATM   20  N   UNL     1      41.919 -15.896   6.390  1.00  0.00    -0.264 NA
HETATM   21  C   UNL     1      40.892 -15.338   5.712  1.00  0.00     0.118 A 
HETATM   22  C   UNL     1      41.056 -14.537   4.602  1.00  0.00     0.043 A 
HETATM   23  C   UNL     1      42.354 -14.291   4.176  1.00  0.00     0.037 A 
HETATM   24 CL   UNL     1      42.624 -13.294   2.800  1.00  0.00    -0.084 Cl
HETATM   25  C   UNL     1      43.438 -14.838   4.853  1.00  0.00     0.052 A 
ENDBRANCH  18  19
ENDBRANCH   3  18
TORSDOF 5
ENDMDL
MODEL 5
REMARK VINA RESULT:      -7.5      2.556      3.102
REMARK  5 active torsions:
REMARK  status: ('A' for Active; 'I' for Inactive)
REMARK    1  A    between atoms: C_2  and  O_3 
REMARK    2  A    between atoms: O_3  and  C_4 
REMARK    3  A    between atoms: C_10  and  N_11 
REMARK       I    between atoms: N_11  and  C_12 
REMARK       I    between atoms: C_12  and  N_13 
REMARK    4  A    between atoms: N_13  and  C_14 
REMARK    5  A    between atoms: C_14  and  C_15 
ROOT
HETATM    1  N   UNL     1      42.935 -16.638   2.302  1.00  0.00    -0.306 N 
HETATM    2  C   UNL     1      41.697 -16.223   1.896  1.00  0.00     0.321 C 
HETATM    3  N   UNL     1      41.545 -14.886   1.686  1.00  0.00    -0.337 N 
HETATM    4  O   UNL     1      40.711 -16.932   1.717  1.00  0.00    -0.247 OA
HETATM    5  H   UNL     1      43.709 -15.991   2.152  1.00  0.00     0.171 HD
HETATM    6  H   UNL     1      40.603 -14.650   1.404  1.00  0.00     0.164 HD
ENDROOT
BRANCH   1   7
HETATM    7  C   UNL     1      43.338 -17.951   2.648  1.00  0.00     0.071 A 
HETATM    8  C   UNL     1      43.583 -18.230   4.008  1.00  0.00     0.117 A 
HETATM    9  C   UNL     1      44.099 -19.479   4.388  1.00  0.00     0.069 A 
HETATM   10 CL   UNL     1      44.581 -19.822   6.013  1.00  0.00    -0.081 Cl
HETATM   11  C   UNL     1      44.276 -20.483   3.435  1.00  0.00     0.027 A 
HETATM   12  C   UNL     1      43.962 -20.235   2.101  1.00  0.00     0.004 A 
HETATM   13  C   UNL     1      43.504 -18.974   1.709  1.00  0.00     0.032 A 
BRANCH   8  14
HETATM   14  O   UNL     1      43.378 -17.218   4.919  1.00  0.00    -0.343 OA
BRANCH  14  15
HETATM   15  C   UNL     1      42.249 -17.463   5.780  1.00  0.00     0.121 C 
HETATM   16  C   UNL     1      41.064 -16.599   5.358  1.00  0.00     0.040 C 
HETATM   17  C   UNL     1      42.682 -17.100   7.198  1.00  0.00     0.040 C 
ENDBRANCH  14  15
ENDBRANCH   8  14
ENDBRANCH   1   7
BRANCH   3  18
HETATM   18  C   UNL     1      42.454 -13.807   2.013  1.00  0.00     0.183 C 
BRANCH  18  19
HETATM   19  C   UNL     1      42.502 -13.531   3.497  1.00  0.00     0.053 A 
HETATM   20  N   UNL     1      41.394 -12.965   4.042  1.00  0.00    -0.264 NA
HETATM   21  C   UNL     1      41.383 -12.759   5.377  1.00  0.00     0.118 A 
HETATM   22  C   UNL     1      42.434 -13.086   6.209  1.00  0.00     0.043 A 
HETATM   23  C   UNL     1      43.553 -13.667   5.629  1.00  0.00     0.037 A 
HETATM   24 CL   UNL     1      44.894 -14.102   6.614  1.00  0.00    -0.084 Cl
HETATM   25  C   UNL     1      43.598 -13.905   4.260  1.00  0.00     0.052 A 
ENDBRANCH  18  19
ENDBRANCH   3  18
TORSDOF 5
ENDMDL
MODEL 6
REMARK VINA RESULT:      -7.4      3.795      4.483
REMARK  5 active torsions:
REMARK  status: ('A' for Active; 'I' for Inactive)
REMARK    1  A    between atoms: C_2  and  O_3 
REMARK    2  A    between atoms: O_3  and  C_4 
REMARK    3  A    between atoms: C_10  and  N_11 
REMARK       I    between atoms: N_11  and  C_12 
REMARK       I    between atoms: C_12  and  N_13 
REMARK    4  A    between atoms: N_13  and  C_14 
REMARK    5  A    between atoms: C_14  and  C_15 
ROOT
HETATM    1  N   UNL     1      42.564 -17.109   1.613  1.00  0.00    -0.306 N 
HETATM    2  C   UNL     1      41.320 -17.160   1.047  1.00  0.00     0.321 C 
HETATM    3  N   UNL     1      40.894 -16.030   0.417  1.00  0.00    -0.337 N 
HETATM    4  O   UNL     1      40.549 -18.114   1.063  1.00  0.00    -0.247 OA
HETATM    5  H   UNL     1      43.183 -16.363   1.297  1.00  0.00     0.171 HD
HETATM    6  H   UNL     1      39.963 -16.134   0.037  1.00  0.00     0.164 HD
ENDROOT
BRANCH   1   7
HETATM    7  C   UNL     1      43.211 -18.113   2.374  1.00  0.00     0.071 A 
HETATM    8  C   UNL     1      43.554 -17.813   3.708  1.00  0.00     0.117 A 
HETATM    9  C   UNL     1      44.303 -18.728   4.466  1.00  0.00     0.069 A 
HETATM   10 CL   UNL     1      44.901 -18.349   6.042  1.00  0.00    -0.081 Cl
HETATM   11  C   UNL     1      44.620 -19.980   3.936  1.00  0.00     0.027 A 
HETATM   12  C   UNL     1      44.215 -20.310   2.645  1.00  0.00     0.004 A 
HETATM   13  C   UNL     1      43.522 -19.379   1.867  1.00  0.00     0.032 A 
BRANCH   8  14
HETATM   14  O   UNL     1      43.206 -16.574   4.199  1.00  0.00    -0.343 OA
BRANCH  14  15
HETATM   15  C   UNL     1      41.948 -16.587   4.901  1.00  0.00     0.121 C 
HETATM   16  C   UNL     1      41.004 -15.540   4.315  1.00  0.00     0.040 C 
HETATM   17  C   UNL     1      42.248 -16.261   6.361  1.00  0.00     0.040 C 
ENDBRANCH  14  15
ENDBRANCH   8  14
ENDBRANCH   1   7
BRANCH   3  18
HETATM   18  C   UNL     1      41.491 -14.710   0.422  1.00  0.00     0.183 C 
BRANCH  18  19
HETATM   19  C   UNL     1      41.585 -14.120  -0.965  1.00  0.00     0.053 A 
HETATM   20  N   UNL     1      41.073 -14.868  -1.975  1.00  0.00    -0.264 NA
HETATM   21  C   UNL     1      41.088 -14.343  -3.221  1.00  0.00     0.118 A 
HETATM   22  C   UNL     1      41.600 -13.097  -3.517  1.00  0.00     0.043 A 
HETATM   23  C   UNL     1      42.113 -12.349  -2.466  1.00  0.00     0.037 A 
HETATM   24 CL   UNL     1      42.760 -10.784  -2.770  1.00  0.00    -0.084 Cl
HETATM   25  C   UNL     1      42.105 -12.850  -1.169  1.00  0.00     0.052 A 
ENDBRANCH  18  19
ENDBRANCH   3  18
TORSDOF 5
ENDMDL
MODEL 7
REMARK VINA RESULT:      -7.3      2.134      3.647
REMARK  5 active torsions:
REMARK  status: ('A' for Active; 'I' for Inactive)
REMARK    1  A    between atoms: C_2  and  O_3 
REMARK    2  A    between atoms: O_3  and  C_4 
REMARK    3  A    between atoms: C_10  and  N_11 
REMARK       I    between atoms: N_11  and  C_12 
REMARK       I    between atoms: C_12  and  N_13 
REMARK    4  A    between atoms: N_13  and  C_14 
REMARK    5  A    between atoms: C_14  and  C_15 
ROOT
HETATM    1  N   UNL     1      42.316 -16.997   5.550  1.00  0.00    -0.306 N 
HETATM    2  C   UNL     1      42.728 -15.758   5.952  1.00  0.00     0.321 C 
HETATM    3  N   UNL     1      41.747 -14.855   6.235  1.00  0.00    -0.337 N 
HETATM    4  O   UNL     1      43.888 -15.375   6.070  1.00  0.00    -0.247 OA
HETATM    5  H   UNL     1      41.349 -17.250   5.752  1.00  0.00     0.171 HD
HETATM    6  H   UNL     1      42.124 -13.958   6.510  1.00  0.00     0.164 HD
ENDROOT
BRANCH   1   7
HETATM    7  C   UNL     1      43.122 -18.087   5.138  1.00  0.00     0.071 A 
HETATM    8  C   UNL     1      43.096 -18.450   3.777  1.00  0.00     0.117 A 
HETATM    9  C   UNL     1      43.783 -19.595   3.340  1.00  0.00     0.069 A 
HETATM   10 CL   UNL     1      43.650 -20.189   1.722  1.00  0.00    -0.081 Cl
HETATM   11  C   UNL     1      44.575 -20.318   4.233  1.00  0.00     0.027 A 
HETATM   12  C   UNL     1      44.665 -19.916   5.563  1.00  0.00     0.004 A 
HETATM   13  C   UNL     1      43.936 -18.812   6.014  1.00  0.00     0.032 A 
BRANCH   8  14
HETATM   14  O   UNL     1      42.317 -17.699   2.925  1.00  0.00    -0.343 OA
BRANCH  14  15
HETATM   15  C   UNL     1      43.095 -16.958   1.966  1.00  0.00     0.121 C 
HETATM   16  C   UNL     1      43.321 -15.530   2.457  1.00  0.00     0.040 C 
HETATM   17  C   UNL     1      42.301 -16.943   0.662  1.00  0.00     0.040 C 
ENDBRANCH  14  15
ENDBRANCH   8  14
ENDBRANCH   1   7
BRANCH   3  18
HETATM   18  C   UNL     1      40.324 -14.956   5.989  1.00  0.00     0.183 C 
BRANCH  18  19
HETATM   19  C   UNL     1      39.894 -14.154   4.785  1.00  0.00     0.053 A 
HETATM   20  N   UNL     1      39.547 -12.861   5.013  1.00  0.00    -0.264 NA
HETATM   21  C   UNL     1      39.213 -12.099   3.947  1.00  0.00     0.118 A 
HETATM   22  C   UNL     1      39.203 -12.566   2.649  1.00  0.00     0.043 A 
HETATM   23  C   UNL     1      39.566 -13.889   2.441  1.00  0.00     0.037 A 
HETATM   24 CL   UNL     1      39.578 -14.528   0.844  1.00  0.00    -0.084 Cl
HETATM   25  C   UNL     1      39.926 -14.702   3.510  1.00  0.00     0.052 A 
ENDBRANCH  18  19
ENDBRANCH   3  18
TORSDOF 5
ENDMDL
MODEL 8
REMARK VINA RESULT:      -7.2      2.376      4.197
REMARK  5 active torsions:
REMARK  status: ('A' for Active; 'I' for Inactive)
REMARK    1  A    between atoms: C_2  and  O_3 
REMARK    2  A    between atoms: O_3  and  C_4 
REMARK    3  A    between atoms: C_10  and  N_11 
REMARK       I    between atoms: N_11  and  C_12 
REMARK       I    between atoms: C_12  and  N_13 
REMARK    4  A    between atoms: N_13  and  C_14 
REMARK    5  A    between atoms: C_14  and  C_15 
ROOT
HETATM    1  N   UNL     1      41.818 -16.489   4.835  1.00  0.00    -0.306 N 
HETATM    2  C   UNL     1      42.118 -15.247   4.349  1.00  0.00     0.321 C 
HETATM    3  N   UNL     1      41.284 -14.754   3.391  1.00  0.00    -0.337 N 
HETATM    4  O   UNL     1      43.067 -14.542   4.678  1.00  0.00    -0.247 OA
HETATM    5  H   UNL     1      40.872 -16.833   4.670  1.00  0.00     0.171 HD
HETATM    6  H   UNL     1      41.575 -13.841   3.067  1.00  0.00     0.164 HD
ENDROOT
BRANCH   1   7
HETATM    7  C   UNL     1      42.551 -17.249   5.779  1.00  0.00     0.071 A 
HETATM    8  C   UNL     1      43.065 -18.495   5.367  1.00  0.00     0.117 A 
HETATM    9  C   UNL     1      43.693 -19.340   6.297  1.00  0.00     0.069 A 
HETATM   10 CL   UNL     1      44.189 -20.946   5.895  1.00  0.00    -0.081 Cl
HETATM   11  C   UNL     1      43.903 -18.906   7.606  1.00  0.00     0.027 A 
HETATM   12  C   UNL     1      43.464 -17.643   7.997  1.00  0.00     0.004 A 
HETATM   13  C   UNL     1      42.786 -16.824   7.091  1.00  0.00     0.032 A 
BRANCH   8  14
HETATM   14  O   UNL     1      42.854 -18.878   4.062  1.00  0.00    -0.343 OA
BRANCH  14  15
HETATM   15  C   UNL     1      44.042 -18.780   3.253  1.00  0.00     0.121 C 
HETATM   16  C   UNL     1      43.904 -17.640   2.246  1.00  0.00     0.040 C 
HETATM   17  C   UNL     1      44.195 -20.110   2.520  1.00  0.00     0.040 C 
ENDBRANCH  14  15
ENDBRANCH   8  14
ENDBRANCH   1   7
BRANCH   3  18
HETATM   18  C   UNL     1      40.228 -15.435   2.670  1.00  0.00     0.183 C 
BRANCH  18  19
HETATM   19  C   UNL     1      40.141 -14.991   1.230  1.00  0.00     0.053 A 
HETATM   20  N   UNL     1      41.105 -15.455   0.395  1.00  0.00    -0.264 NA
HETATM   21  C   UNL     1      41.022 -15.124  -0.912  1.00  0.00     0.118 A 
HETATM   22  C   UNL     1      40.017 -14.339  -1.438  1.00  0.00     0.043 A 
HETATM   23  C   UNL     1      39.040 -13.880  -0.565  1.00  0.00     0.037 A 
HETATM   24 CL   UNL     1      37.757 -12.902  -1.162  1.00  0.00    -0.084 Cl
HETATM   25  C   UNL     1      39.084 -14.209   0.785  1.00  0.00     0.052 A 
ENDBRANCH  18  19
ENDBRANCH   3  18
TORSDOF 5
ENDMDL
MODEL 9
REMARK VINA RESULT:      -7.1      2.174      2.949
REMARK  5 active torsions:
REMARK  status: ('A' for Active; 'I' for Inactive)
REMARK    1  A    between atoms: C_2  and  O_3 
REMARK    2  A    between atoms: O_3  and  C_4 
REMARK    3  A    between atoms: C_10  and  N_11 
REMARK       I    between atoms: N_11  and  C_12 
REMARK       I    between atoms: C_12  and  N_13 
REMARK    4  A    between atoms: N_13  and  C_14 
REMARK    5  A    between atoms: C_14  and  C_15 
ROOT
HETATM    1  N   UNL     1      42.888 -18.085   2.244  1.00  0.00    -0.306 N 
HETATM    2  C   UNL     1      43.551 -17.312   1.332  1.00  0.00     0.321 C 
HETATM    3  N   UNL     1      42.778 -16.584   0.479  1.00  0.00    -0.337 N 
HETATM    4  O   UNL     1      44.768 -17.220   1.198  1.00  0.00    -0.247 OA
HETATM    5  H   UNL     1      41.908 -17.861   2.413  1.00  0.00     0.171 HD
HETATM    6  H   UNL     1      43.333 -16.050  -0.176  1.00  0.00     0.164 HD
ENDROOT
BRANCH   1   7
HETATM    7  C   UNL     1      43.447 -18.977   3.192  1.00  0.00     0.071 A 
HETATM    8  C   UNL     1      43.263 -18.687   4.560  1.00  0.00     0.117 A 
HETATM    9  C   UNL     1      43.897 -19.472   5.537  1.00  0.00     0.069 A 
HETATM   10 CL   UNL     1      43.851 -19.066   7.217  1.00  0.00    -0.081 Cl
HETATM   11  C   UNL     1      44.627 -20.600   5.162  1.00  0.00     0.027 A 
HETATM   12  C   UNL     1      44.746 -20.934   3.816  1.00  0.00     0.004 A 
HETATM   13  C   UNL     1      44.167 -20.122   2.837  1.00  0.00     0.032 A 
BRANCH   8  14
HETATM   14  O   UNL     1      42.520 -17.575   4.887  1.00  0.00    -0.343 OA
BRANCH  14  15
HETATM   15  C   UNL     1      43.327 -16.391   5.039  1.00  0.00     0.121 C 
HETATM   16  C   UNL     1      43.350 -15.951   6.501  1.00  0.00     0.040 C 
HETATM   17  C   UNL     1      42.693 -15.304   4.175  1.00  0.00     0.040 C 
ENDBRANCH  14  15
ENDBRANCH   8  14
ENDBRANCH   1   7
BRANCH   3  18
HETATM   18  C   UNL     1      41.346 -16.653   0.269  1.00  0.00     0.183 C 
BRANCH  18  19
HETATM   19  C   UNL     1      40.627 -15.454   0.836  1.00  0.00     0.053 A 
HETATM   20  N   UNL     1      39.866 -15.672   1.939  1.00  0.00    -0.264 NA
HETATM   21  C   UNL     1      39.255 -14.607   2.506  1.00  0.00     0.118 A 
HETATM   22  C   UNL     1      39.360 -13.320   2.020  1.00  0.00     0.043 A 
HETATM   23  C   UNL     1      40.147 -13.122   0.894  1.00  0.00     0.037 A 
HETATM   24 CL   UNL     1      40.322 -11.539   0.245  1.00  0.00    -0.084 Cl
HETATM   25  C   UNL     1      40.801 -14.190   0.290  1.00  0.00     0.052 A 
ENDBRANCH  18  19
ENDBRANCH   3  18
TORSDOF 5
ENDMDL
MODEL 10
REMARK VINA RESULT:      -7.1      2.717      3.382
REMARK  5 active torsions:
REMARK  status: ('A' for Active; 'I' for Inactive)
REMARK    1  A    between atoms: C_2  and  O_3 
REMARK    2  A    between atoms: O_3  and  C_4 
REMARK    3  A    between atoms: C_10  and  N_11 
REMARK       I    between atoms: N_11  and  C_12 
REMARK       I    between atoms: C_12  and  N_13 
REMARK    4  A    between atoms: N_13  and  C_14 
REMARK    5  A    between atoms: C_14  and  C_15 
ROOT
HETATM    1  N   UNL     1      41.616 -17.195   2.451  1.00  0.00    -0.306 N 
HETATM    2  C   UNL     1      41.476 -16.651   1.205  1.00  0.00     0.321 C 
HETATM    3  N   UNL     1      40.425 -15.802   1.028  1.00  0.00    -0.337 N 
HETATM    4  O   UNL     1      42.192 -16.862   0.230  1.00  0.00    -0.247 OA
HETATM    5  H   UNL     1      41.121 -16.734   3.213  1.00  0.00     0.171 HD
HETATM    6  H   UNL     1      40.375 -15.451   0.081  1.00  0.00     0.164 HD
ENDROOT
BRANCH   1   7
HETATM    7  C   UNL     1      42.575 -18.146   2.878  1.00  0.00     0.071 A 
HETATM    8  C   UNL     1      43.240 -17.911   4.098  1.00  0.00     0.117 A 
HETATM    9  C   UNL     1      44.283 -18.758   4.507  1.00  0.00     0.069 A 
HETATM   10 CL   UNL     1      45.250 -18.425   5.901  1.00  0.00    -0.081 Cl
HETATM   11  C   UNL     1      44.595 -19.894   3.758  1.00  0.00     0.027 A 
HETATM   12  C   UNL     1      43.886 -20.172   2.592  1.00  0.00     0.004 A 
HETATM   13  C   UNL     1      42.888 -19.299   2.151  1.00  0.00     0.032 A 
BRANCH   8  14
HETATM   14  O   UNL     1      42.890 -16.789   4.816  1.00  0.00    -0.343 OA
BRANCH  14  15
HETATM   15  C   UNL     1      41.776 -17.019   5.701  1.00  0.00     0.121 C 
HETATM   16  C   UNL     1      40.803 -15.844   5.644  1.00  0.00     0.040 C 
HETATM   17  C   UNL     1      42.346 -17.159   7.110  1.00  0.00     0.040 C 
ENDBRANCH  14  15
ENDBRANCH   8  14
ENDBRANCH   1   7
BRANCH   3  18
HETATM   18  C   UNL     1      39.315 -15.536   1.920  1.00  0.00     0.183 C 
BRANCH  18  19
HETATM   19  C   UNL     1      38.737 -14.157   1.717  1.00  0.00     0.053 A 
HETATM   20  N   UNL     1      37.747 -14.046   0.796  1.00  0.00    -0.264 NA
HETATM   21  C   UNL     1      37.168 -12.836   0.632  1.00  0.00     0.118 A 
HETATM   22  C   UNL     1      37.533 -11.713   1.346  1.00  0.00     0.043 A 
HETATM   23  C   UNL     1      38.545 -11.853   2.285  1.00  0.00     0.037 A 
HETATM   24 CL   UNL     1      39.042 -10.490   3.211  1.00  0.00    -0.084 Cl
HETATM   25  C   UNL     1      39.158 -13.084   2.491  1.00  0.00     0.052 A 
ENDBRANCH  18  19
ENDBRANCH   3  18
TORSDOF 5
ENDMDL
