MODEL 1
REMARK VINA RESULT:      -8.6      0.000      0.000
REMARK  6 active torsions:
REMARK  status: ('A' for Active; 'I' for Inactive)
REMARK    1  A    between atoms: C_2  and  O_3 
REMARK    2  A    between atoms: C_2  and  C_4 
REMARK    3  A    between atoms: C_6  and  N_7 
REMARK       I    between atoms: N_7  and  C_8 
REMARK    4  A    between atoms: C_8  and  C_9 
REMARK    5  A    between atoms: C_12  and  C_13 
REMARK    6  A    between atoms: C_18  and  C_19 
ROOT
HETATM    1  C   UNL     1      42.777 -15.499   3.094  1.00  0.00     0.096 A 
HETATM    2  C   UNL     1      42.276 -14.792   2.016  1.00  0.00     0.138 A 
HETATM    3  N   UNL     1      42.530 -13.471   2.261  1.00  0.00    -0.240 N 
HETATM    4  C   UNL     1      42.101 -12.379   1.407  1.00  0.00     0.221 C 
HETATM    5  C   UNL     1      41.777 -12.902  -0.005  1.00  0.00     0.068 C 
HETATM    6  C   UNL     1      41.003 -14.234  -0.020  1.00  0.00     0.143 C 
HETATM    7  N   UNL     1      41.652 -15.182   0.880  1.00  0.00    -0.363 N 
HETATM    8  N   UNL     1      43.254 -13.259   3.372  1.00  0.00    -0.181 NA
HETATM    9  C   UNL     1      43.377 -14.486   3.890  1.00  0.00     0.160 A 
HETATM   10  H   UNL     1      41.355 -16.158   0.791  1.00  0.00     0.162 HD
ENDROOT
BRANCH   1  11
HETATM   11  C   UNL     1      42.673 -16.944   3.283  1.00  0.00     0.261 C 
HETATM   12  N   UNL     1      43.745 -17.665   2.783  1.00  0.00    -0.323 N 
HETATM   13  H   UNL     1      44.484 -17.146   2.335  1.00  0.00     0.169 HD
HETATM   14  O   UNL     1      41.702 -17.430   3.857  1.00  0.00    -0.267 OA
BRANCH  12  15
HETATM   15  C   UNL     1      43.947 -19.062   2.837  1.00  0.00     0.035 A 
HETATM   16  C   UNL     1      44.445 -19.743   3.952  1.00  0.00     0.039 A 
HETATM   17  C   UNL     1      44.631 -21.138   3.931  1.00  0.00    -0.028 A 
HETATM   18  C   UNL     1      44.293 -21.848   2.772  1.00  0.00     0.010 A 
HETATM   19  C   UNL     1      43.796 -21.181   1.656  1.00  0.00     0.003 A 
HETATM   20  C   UNL     1      43.623 -19.795   1.689  1.00  0.00     0.029 A 
BRANCH  17  21
HETATM   21  C   UNL     1      45.149 -21.840   5.167  1.00  0.00     0.147 C 
HETATM   22  C   UNL     1      44.211 -21.646   6.352  1.00  0.00     0.044 C 
BRANCH  21  23
HETATM   23  O   UNL     1      45.297 -23.236   4.913  1.00  0.00    -0.391 OA
HETATM   24  H   UNL     1      45.450 -23.665   5.771  1.00  0.00     0.210 HD
ENDBRANCH  21  23
ENDBRANCH  17  21
ENDBRANCH  12  15
ENDBRANCH   1  11
BRANCH   4  25
HETATM   25  C   UNL     1      40.962 -11.631   2.064  1.00  0.00     0.409 C 
HETATM   26  F   UNL     1      40.071 -11.119   1.193  1.00  0.00    -0.169 F 
HETATM   27  F   UNL     1      40.272 -12.417   2.925  1.00  0.00    -0.169 F 
HETATM   28  F   UNL     1      41.440 -10.598   2.804  1.00  0.00    -0.169 F 
ENDBRANCH   4  25
BRANCH   6  29
HETATM   29  C   UNL     1      39.533 -14.071   0.194  1.00  0.00     0.075 A 
HETATM   30  O   UNL     1      38.864 -13.300  -0.712  1.00  0.00    -0.325 OA
HETATM   31  C   UNL     1      37.556 -13.296  -0.345  1.00  0.00     0.142 A 
HETATM   32  C   UNL     1      37.370 -14.064   0.780  1.00  0.00     0.027 A 
HETATM   33  C   UNL     1      38.644 -14.572   1.125  1.00  0.00     0.037 A 
ENDBRANCH   6  29
TORSDOF 6
ENDMDL
MODEL 2
REMARK VINA RESULT:      -8.5      3.168      7.904
REMARK  6 active torsions:
REMARK  status: ('A' for Active; 'I' for Inactive)
REMARK    1  A    between atoms: C_2  and  O_3 
REMARK    2  A    between atoms: C_2  and  C_4 
REMARK    3  A    between atoms: C_6  and  N_7 
REMARK       I    between atoms: N_7  and  C_8 
REMARK    4  A    between atoms: C_8  and  C_9 
REMARK    5  A    between atoms: C_12  and  C_13 
REMARK    6  A    between atoms: C_18  and  C_19 
ROOT
HETATM    1  C   UNL     1      42.214 -14.688   2.762  1.00  0.00     0.096 A 
HETATM    2  C   UNL     1      42.008 -15.609   3.774  1.00  0.00     0.138 A 
HETATM    3  N   UNL     1      42.310 -14.975   4.947  1.00  0.00    -0.240 N 
HETATM    4  C   UNL     1      42.295 -15.610   6.252  1.00  0.00     0.221 C 
HETATM    5  C   UNL     1      41.447 -16.895   6.211  1.00  0.00     0.068 C 
HETATM    6  C   UNL     1      41.662 -17.749   4.946  1.00  0.00     0.143 C 
HETATM    7  N   UNL     1      41.587 -16.895   3.765  1.00  0.00    -0.363 N 
HETATM    8  N   UNL     1      42.600 -13.673   4.796  1.00  0.00    -0.181 NA
HETATM    9  C   UNL     1      42.570 -13.509   3.469  1.00  0.00     0.160 A 
HETATM   10  H   UNL     1      41.504 -17.380   2.867  1.00  0.00     0.162 HD
ENDROOT
BRANCH   1  11
HETATM   11  C   UNL     1      42.070 -14.954   1.332  1.00  0.00     0.261 C 
HETATM   12  N   UNL     1      41.518 -13.909   0.609  1.00  0.00    -0.323 N 
HETATM   13  H   UNL     1      41.261 -13.078   1.118  1.00  0.00     0.169 HD
HETATM   14  O   UNL     1      42.436 -16.025   0.856  1.00  0.00    -0.267 OA
BRANCH  12  15
HETATM   15  C   UNL     1      41.280 -13.852  -0.783  1.00  0.00     0.035 A 
HETATM   16  C   UNL     1      40.159 -14.399  -1.413  1.00  0.00     0.039 A 
HETATM   17  C   UNL     1      39.993 -14.312  -2.809  1.00  0.00    -0.028 A 
HETATM   18  C   UNL     1      40.968 -13.651  -3.566  1.00  0.00     0.010 A 
HETATM   19  C   UNL     1      42.088 -13.101  -2.948  1.00  0.00     0.003 A 
HETATM   20  C   UNL     1      42.242 -13.201  -1.564  1.00  0.00     0.029 A 
BRANCH  17  21
HETATM   21  C   UNL     1      38.753 -14.897  -3.450  1.00  0.00     0.147 C 
HETATM   22  C   UNL     1      39.046 -16.242  -4.103  1.00  0.00     0.044 C 
BRANCH  21  23
HETATM   23  O   UNL     1      37.729 -15.067  -2.471  1.00  0.00    -0.391 OA
HETATM   24  H   UNL     1      36.928 -15.344  -2.946  1.00  0.00     0.210 HD
ENDBRANCH  21  23
ENDBRANCH  17  21
ENDBRANCH  12  15
ENDBRANCH   1  11
BRANCH   4  25
HETATM   25  C   UNL     1      43.713 -15.821   6.735  1.00  0.00     0.409 C 
HETATM   26  F   UNL     1      44.570 -16.194   5.764  1.00  0.00    -0.169 F 
HETATM   27  F   UNL     1      44.222 -14.705   7.310  1.00  0.00    -0.169 F 
HETATM   28  F   UNL     1      43.747 -16.783   7.693  1.00  0.00    -0.169 F 
ENDBRANCH   4  25
BRANCH   6  29
HETATM   29  C   UNL     1      42.875 -18.620   5.015  1.00  0.00     0.075 A 
HETATM   30  O   UNL     1      43.092 -19.276   6.193  1.00  0.00    -0.325 OA
HETATM   31  C   UNL     1      44.222 -20.013   6.037  1.00  0.00     0.142 A 
HETATM   32  C   UNL     1      44.732 -19.851   4.771  1.00  0.00     0.027 A 
HETATM   33  C   UNL     1      43.859 -18.958   4.107  1.00  0.00     0.037 A 
ENDBRANCH   6  29
TORSDOF 6
ENDMDL
MODEL 3
REMARK VINA RESULT:      -8.4      5.071      7.782
REMARK  6 active torsions:
REMARK  status: ('A' for Active; 'I' for Inactive)
REMARK    1  A    between atoms: C_2  and  O_3 
REMARK    2  A    between atoms: C_2  and  C_4 
REMARK    3  A    between atoms: C_6  and  N_7 
REMARK       I    between atoms: N_7  and  C_8 
REMARK    4  A    between atoms: C_8  and  C_9 
REMARK    5  A    between atoms: C_12  and  C_13 
REMARK    6  A    between atoms: C_18  and  C_19 
ROOT
HETATM    1  C   UNL     1      43.696 -15.458   6.126  1.00  0.00     0.096 A 
HETATM    2  C   UNL     1      42.746 -15.855   5.202  1.00  0.00     0.138 A 
HETATM    3  N   UNL     1      43.094 -17.115   4.800  1.00  0.00    -0.240 N 
HETATM    4  C   UNL     1      42.397 -17.873   3.778  1.00  0.00     0.221 C 
HETATM    5  C   UNL     1      40.978 -17.309   3.569  1.00  0.00     0.068 C 
HETATM    6  C   UNL     1      40.908 -15.770   3.562  1.00  0.00     0.143 C 
HETATM    7  N   UNL     1      41.644 -15.245   4.709  1.00  0.00    -0.363 N 
HETATM    8  N   UNL     1      44.144 -17.622   5.465  1.00  0.00    -0.181 NA
HETATM    9  C   UNL     1      44.525 -16.605   6.247  1.00  0.00     0.160 A 
HETATM   10  H   UNL     1      41.490 -14.256   4.924  1.00  0.00     0.162 HD
ENDROOT
BRANCH   1  11
HETATM   11  C   UNL     1      43.752 -14.151   6.777  1.00  0.00     0.261 C 
HETATM   12  N   UNL     1      44.567 -14.102   7.895  1.00  0.00    -0.323 N 
HETATM   13  H   UNL     1      45.036 -14.953   8.165  1.00  0.00     0.169 HD
HETATM   14  O   UNL     1      43.121 -13.201   6.322  1.00  0.00    -0.267 OA
BRANCH  12  15
HETATM   15  C   UNL     1      44.847 -12.985   8.714  1.00  0.00     0.035 A 
HETATM   16  C   UNL     1      44.086 -12.614   9.826  1.00  0.00     0.039 A 
HETATM   17  C   UNL     1      44.418 -11.479  10.591  1.00  0.00    -0.028 A 
HETATM   18  C   UNL     1      45.542 -10.727  10.231  1.00  0.00     0.010 A 
HETATM   19  C   UNL     1      46.309 -11.088   9.125  1.00  0.00     0.003 A 
HETATM   20  C   UNL     1      45.962 -12.211   8.372  1.00  0.00     0.029 A 
BRANCH  17  21
HETATM   21  C   UNL     1      43.582 -11.125  11.802  1.00  0.00     0.147 C 
HETATM   22  C   UNL     1      43.389  -9.619  11.923  1.00  0.00     0.044 C 
BRANCH  21  23
HETATM   23  O   UNL     1      42.304 -11.754  11.715  1.00  0.00    -0.391 OA
HETATM   24  H   UNL     1      41.872 -11.407  10.917  1.00  0.00     0.210 HD
ENDBRANCH  21  23
ENDBRANCH  17  21
ENDBRANCH  12  15
ENDBRANCH   1  11
BRANCH   4  25
HETATM   25  C   UNL     1      43.232 -17.923   2.517  1.00  0.00     0.409 C 
HETATM   26  F   UNL     1      43.975 -16.818   2.311  1.00  0.00    -0.169 F 
HETATM   27  F   UNL     1      44.078 -18.980   2.514  1.00  0.00    -0.169 F 
HETATM   28  F   UNL     1      42.435 -18.080   1.429  1.00  0.00    -0.169 F 
ENDBRANCH   4  25
BRANCH   6  29
HETATM   29  C   UNL     1      41.280 -15.164   2.247  1.00  0.00     0.075 A 
HETATM   30  O   UNL     1      40.667 -15.679   1.141  1.00  0.00    -0.325 OA
HETATM   31  C   UNL     1      41.130 -14.984   0.069  1.00  0.00     0.142 A 
HETATM   32  C   UNL     1      42.025 -14.021   0.470  1.00  0.00     0.027 A 
HETATM   33  C   UNL     1      42.117 -14.130   1.877  1.00  0.00     0.037 A 
ENDBRANCH   6  29
TORSDOF 6
ENDMDL
MODEL 4
REMARK VINA RESULT:      -8.3      3.067      7.987
REMARK  6 active torsions:
REMARK  status: ('A' for Active; 'I' for Inactive)
REMARK    1  A    between atoms: C_2  and  O_3 
REMARK    2  A    between atoms: C_2  and  C_4 
REMARK    3  A    between atoms: C_6  and  N_7 
REMARK       I    between atoms: N_7  and  C_8 
REMARK    4  A    between atoms: C_8  and  C_9 
REMARK    5  A    between atoms: C_12  and  C_13 
REMARK    6  A    between atoms: C_18  and  C_19 
ROOT
HETATM    1  C   UNL     1      40.480 -14.621   3.036  1.00  0.00     0.096 A 
HETATM    2  C   UNL     1      40.827 -15.551   4.000  1.00  0.00     0.138 A 
HETATM    3  N   UNL     1      41.468 -14.864   4.994  1.00  0.00    -0.240 N 
HETATM    4  C   UNL     1      42.061 -15.479   6.166  1.00  0.00     0.221 C 
HETATM    5  C   UNL     1      41.467 -16.882   6.393  1.00  0.00     0.068 C 
HETATM    6  C   UNL     1      41.292 -17.706   5.102  1.00  0.00     0.143 C 
HETATM    7  N   UNL     1      40.633 -16.887   4.089  1.00  0.00    -0.363 N 
HETATM    8  N   UNL     1      41.478 -13.535   4.809  1.00  0.00    -0.181 NA
HETATM    9  C   UNL     1      40.905 -13.393   3.608  1.00  0.00     0.160 A 
HETATM   10  H   UNL     1      40.276 -17.389   3.271  1.00  0.00     0.162 HD
ENDROOT
BRANCH   1  11
HETATM   11  C   UNL     1      39.827 -14.922   1.764  1.00  0.00     0.261 C 
HETATM   12  N   UNL     1      40.521 -14.486   0.647  1.00  0.00    -0.323 N 
HETATM   13  H   UNL     1      41.392 -14.003   0.802  1.00  0.00     0.169 HD
HETATM   14  O   UNL     1      38.758 -15.526   1.739  1.00  0.00    -0.267 OA
BRANCH  12  15
HETATM   15  C   UNL     1      40.165 -14.650  -0.710  1.00  0.00     0.035 A 
HETATM   16  C   UNL     1      39.074 -14.026  -1.320  1.00  0.00     0.039 A 
HETATM   17  C   UNL     1      38.773 -14.245  -2.678  1.00  0.00    -0.028 A 
HETATM   18  C   UNL     1      39.599 -15.095  -3.424  1.00  0.00     0.010 A 
HETATM   19  C   UNL     1      40.690 -15.722  -2.828  1.00  0.00     0.003 A 
HETATM   20  C   UNL     1      40.971 -15.500  -1.478  1.00  0.00     0.029 A 
BRANCH  17  21
HETATM   21  C   UNL     1      37.596 -13.531  -3.306  1.00  0.00     0.147 C 
HETATM   22  C   UNL     1      37.911 -12.063  -3.567  1.00  0.00     0.044 C 
BRANCH  21  23
HETATM   23  O   UNL     1      37.242 -14.158  -4.537  1.00  0.00    -0.391 OA
HETATM   24  H   UNL     1      37.318 -13.482  -5.231  1.00  0.00     0.210 HD
ENDBRANCH  21  23
ENDBRANCH  17  21
ENDBRANCH  12  15
ENDBRANCH   1  11
BRANCH   4  25
HETATM   25  C   UNL     1      43.569 -15.460   6.047  1.00  0.00     0.409 C 
HETATM   26  F   UNL     1      44.179 -16.483   6.678  1.00  0.00    -0.169 F 
HETATM   27  F   UNL     1      43.973 -15.489   4.755  1.00  0.00    -0.169 F 
HETATM   28  F   UNL     1      44.070 -14.310   6.568  1.00  0.00    -0.169 F 
ENDBRANCH   4  25
BRANCH   6  29
HETATM   29  C   UNL     1      42.549 -18.375   4.649  1.00  0.00     0.075 A 
HETATM   30  O   UNL     1      43.218 -19.117   5.579  1.00  0.00    -0.325 OA
HETATM   31  C   UNL     1      44.308 -19.642   4.962  1.00  0.00     0.142 A 
HETATM   32  C   UNL     1      44.346 -19.258   3.643  1.00  0.00     0.027 A 
HETATM   33  C   UNL     1      43.207 -18.446   3.436  1.00  0.00     0.037 A 
ENDBRANCH   6  29
TORSDOF 6
ENDMDL
MODEL 5
REMARK VINA RESULT:      -8.2      2.278      3.109
REMARK  6 active torsions:
REMARK  status: ('A' for Active; 'I' for Inactive)
REMARK    1  A    between atoms: C_2  and  O_3 
REMARK    2  A    between atoms: C_2  and  C_4 
REMARK    3  A    between atoms: C_6  and  N_7 
REMARK       I    between atoms: N_7  and  C_8 
REMARK    4  A    between atoms: C_8  and  C_9 
REMARK    5  A    between atoms: C_12  and  C_13 
REMARK    6  A    between atoms: C_18  and  C_19 
ROOT
HETATM    1  C   UNL     1      41.462 -14.876   2.924  1.00  0.00     0.096 A 
HETATM    2  C   UNL     1      41.253 -14.062   1.825  1.00  0.00     0.138 A 
HETATM    3  N   UNL     1      40.031 -13.474   1.999  1.00  0.00    -0.240 N 
HETATM    4  C   UNL     1      39.396 -12.596   1.034  1.00  0.00     0.221 C 
HETATM    5  C   UNL     1      40.444 -12.032   0.055  1.00  0.00     0.068 C 
HETATM    6  C   UNL     1      41.482 -13.067  -0.419  1.00  0.00     0.143 C 
HETATM    7  N   UNL     1      42.008 -13.791   0.735  1.00  0.00    -0.363 N 
HETATM    8  N   UNL     1      39.461 -13.757   3.181  1.00  0.00    -0.181 NA
HETATM    9  C   UNL     1      40.316 -14.629   3.727  1.00  0.00     0.160 A 
HETATM   10  H   UNL     1      42.850 -14.349   0.567  1.00  0.00     0.162 HD
ENDROOT
BRANCH   1  11
HETATM   11  C   UNL     1      42.619 -15.744   3.129  1.00  0.00     0.261 C 
HETATM   12  N   UNL     1      42.323 -16.964   3.715  1.00  0.00    -0.323 N 
HETATM   13  H   UNL     1      41.359 -17.143   3.952  1.00  0.00     0.169 HD
HETATM   14  O   UNL     1      43.739 -15.382   2.781  1.00  0.00    -0.267 OA
BRANCH  12  15
HETATM   15  C   UNL     1      43.214 -18.019   4.012  1.00  0.00     0.035 A 
HETATM   16  C   UNL     1      43.414 -19.134   3.194  1.00  0.00     0.039 A 
HETATM   17  C   UNL     1      44.313 -20.155   3.559  1.00  0.00    -0.028 A 
HETATM   18  C   UNL     1      45.024 -20.031   4.759  1.00  0.00     0.010 A 
HETATM   19  C   UNL     1      44.834 -18.924   5.582  1.00  0.00     0.003 A 
HETATM   20  C   UNL     1      43.934 -17.923   5.209  1.00  0.00     0.029 A 
BRANCH  17  21
HETATM   21  C   UNL     1      44.518 -21.335   2.634  1.00  0.00     0.147 C 
HETATM   22  C   UNL     1      44.648 -22.637   3.414  1.00  0.00     0.044 C 
BRANCH  21  23
HETATM   23  O   UNL     1      43.424 -21.442   1.726  1.00  0.00    -0.391 OA
HETATM   24  H   UNL     1      42.974 -20.581   1.724  1.00  0.00     0.210 HD
ENDBRANCH  21  23
ENDBRANCH  17  21
ENDBRANCH  12  15
ENDBRANCH   1  11
BRANCH   4  25
HETATM   25  C   UNL     1      38.249 -13.317   0.361  1.00  0.00     0.409 C 
HETATM   26  F   UNL     1      38.428 -14.648   0.256  1.00  0.00    -0.169 F 
HETATM   27  F   UNL     1      37.079 -13.122   1.014  1.00  0.00    -0.169 F 
HETATM   28  F   UNL     1      38.060 -12.836  -0.894  1.00  0.00    -0.169 F 
ENDBRANCH   4  25
BRANCH   6  29
HETATM   29  C   UNL     1      40.992 -13.935  -1.533  1.00  0.00     0.075 A 
HETATM   30  O   UNL     1      40.496 -13.296  -2.634  1.00  0.00    -0.325 OA
HETATM   31  C   UNL     1      40.126 -14.257  -3.519  1.00  0.00     0.142 A 
HETATM   32  C   UNL     1      40.385 -15.507  -3.010  1.00  0.00     0.027 A 
HETATM   33  C   UNL     1      40.952 -15.301  -1.731  1.00  0.00     0.037 A 
ENDBRANCH   6  29
TORSDOF 6
ENDMDL
MODEL 6
REMARK VINA RESULT:      -8.0      2.512      3.216
REMARK  6 active torsions:
REMARK  status: ('A' for Active; 'I' for Inactive)
REMARK    1  A    between atoms: C_2  and  O_3 
REMARK    2  A    between atoms: C_2  and  C_4 
REMARK    3  A    between atoms: C_6  and  N_7 
REMARK       I    between atoms: N_7  and  C_8 
REMARK    4  A    between atoms: C_8  and  C_9 
REMARK    5  A    between atoms: C_12  and  C_13 
REMARK    6  A    between atoms: C_18  and  C_19 
ROOT
HETATM    1  C   UNL     1      41.046 -14.477   2.440  1.00  0.00     0.096 A 
HETATM    2  C   UNL     1      40.885 -13.727   1.288  1.00  0.00     0.138 A 
HETATM    3  N   UNL     1      39.687 -13.080   1.406  1.00  0.00    -0.240 N 
HETATM    4  C   UNL     1      39.101 -12.240   0.378  1.00  0.00     0.221 C 
HETATM    5  C   UNL     1      40.183 -11.783  -0.619  1.00  0.00     0.068 C 
HETATM    6  C   UNL     1      41.183 -12.888  -1.011  1.00  0.00     0.143 C 
HETATM    7  N   UNL     1      41.664 -13.557   0.195  1.00  0.00    -0.363 N 
HETATM    8  N   UNL     1      39.091 -13.263   2.595  1.00  0.00    -0.181 NA
HETATM    9  C   UNL     1      39.902 -14.133   3.207  1.00  0.00     0.160 A 
HETATM   10  H   UNL     1      42.484 -14.158   0.075  1.00  0.00     0.162 HD
ENDROOT
BRANCH   1  11
HETATM   11  C   UNL     1      42.164 -15.376   2.716  1.00  0.00     0.261 C 
HETATM   12  N   UNL     1      41.813 -16.713   2.811  1.00  0.00    -0.323 N 
HETATM   13  H   UNL     1      40.839 -16.946   2.692  1.00  0.00     0.169 HD
HETATM   14  O   UNL     1      43.304 -14.936   2.833  1.00  0.00    -0.267 OA
BRANCH  12  15
HETATM   15  C   UNL     1      42.665 -17.816   3.040  1.00  0.00     0.035 A 
HETATM   16  C   UNL     1      43.306 -18.077   4.254  1.00  0.00     0.039 A 
HETATM   17  C   UNL     1      44.151 -19.193   4.407  1.00  0.00    -0.028 A 
HETATM   18  C   UNL     1      44.333 -20.058   3.321  1.00  0.00     0.010 A 
HETATM   19  C   UNL     1      43.698 -19.808   2.107  1.00  0.00     0.003 A 
HETATM   20  C   UNL     1      42.868 -18.694   1.968  1.00  0.00     0.029 A 
BRANCH  17  21
HETATM   21  C   UNL     1      44.808 -19.454   5.746  1.00  0.00     0.147 C 
HETATM   22  C   UNL     1      45.184 -18.152   6.443  1.00  0.00     0.044 C 
BRANCH  21  23
HETATM   23  O   UNL     1      43.927 -20.196   6.588  1.00  0.00    -0.391 OA
HETATM   24  H   UNL     1      44.271 -21.104   6.625  1.00  0.00     0.210 HD
ENDBRANCH  21  23
ENDBRANCH  17  21
ENDBRANCH  12  15
ENDBRANCH   1  11
BRANCH   4  25
HETATM   25  C   UNL     1      37.933 -12.956  -0.265  1.00  0.00     0.409 C 
HETATM   26  F   UNL     1      38.114 -14.285  -0.397  1.00  0.00    -0.169 F 
HETATM   27  F   UNL     1      36.786 -12.775   0.432  1.00  0.00    -0.169 F 
HETATM   28  F   UNL     1      37.698 -12.456  -1.505  1.00  0.00    -0.169 F 
ENDBRANCH   4  25
BRANCH   6  29
HETATM   29  C   UNL     1      40.671 -13.804  -2.075  1.00  0.00     0.075 A 
HETATM   30  O   UNL     1      40.859 -15.141  -1.874  1.00  0.00    -0.325 OA
HETATM   31  C   UNL     1      40.314 -15.784  -2.939  1.00  0.00     0.142 A 
HETATM   32  C   UNL     1      39.767 -14.882  -3.819  1.00  0.00     0.027 A 
HETATM   33  C   UNL     1      39.989 -13.602  -3.259  1.00  0.00     0.037 A 
ENDBRANCH   6  29
TORSDOF 6
ENDMDL
MODEL 7
REMARK VINA RESULT:      -7.8      2.316      3.484
REMARK  6 active torsions:
REMARK  status: ('A' for Active; 'I' for Inactive)
REMARK    1  A    between atoms: C_2  and  O_3 
REMARK    2  A    between atoms: C_2  and  C_4 
REMARK    3  A    between atoms: C_6  and  N_7 
REMARK       I    between atoms: N_7  and  C_8 
REMARK    4  A    between atoms: C_8  and  C_9 
REMARK    5  A    between atoms: C_12  and  C_13 
REMARK    6  A    between atoms: C_18  and  C_19 
ROOT
HETATM    1  C   UNL     1      40.900 -15.835   0.583  1.00  0.00     0.096 A 
HETATM    2  C   UNL     1      39.911 -14.873   0.692  1.00  0.00     0.138 A 
HETATM    3  N   UNL     1      39.915 -14.172  -0.482  1.00  0.00    -0.240 N 
HETATM    4  C   UNL     1      39.074 -13.022  -0.754  1.00  0.00     0.221 C 
HETATM    5  C   UNL     1      37.873 -12.997   0.210  1.00  0.00     0.068 C 
HETATM    6  C   UNL     1      38.228 -13.358   1.665  1.00  0.00     0.143 C 
HETATM    7  N   UNL     1      39.037 -14.573   1.681  1.00  0.00    -0.363 N 
HETATM    8  N   UNL     1      40.760 -14.665  -1.400  1.00  0.00    -0.181 NA
HETATM    9  C   UNL     1      41.377 -15.654  -0.742  1.00  0.00     0.160 A 
HETATM   10  H   UNL     1      39.152 -15.022   2.594  1.00  0.00     0.162 HD
ENDROOT
BRANCH   1  11
HETATM   11  C   UNL     1      41.288 -16.776   1.631  1.00  0.00     0.261 C 
HETATM   12  N   UNL     1      42.569 -17.286   1.498  1.00  0.00    -0.323 N 
HETATM   13  H   UNL     1      43.109 -16.979   0.704  1.00  0.00     0.169 HD
HETATM   14  O   UNL     1      40.511 -17.049   2.543  1.00  0.00    -0.267 OA
BRANCH  12  15
HETATM   15  C   UNL     1      43.235 -18.185   2.359  1.00  0.00     0.035 A 
HETATM   16  C   UNL     1      43.595 -19.490   2.010  1.00  0.00     0.039 A 
HETATM   17  C   UNL     1      44.250 -20.336   2.925  1.00  0.00    -0.028 A 
HETATM   18  C   UNL     1      44.554 -19.845   4.201  1.00  0.00     0.010 A 
HETATM   19  C   UNL     1      44.202 -18.546   4.560  1.00  0.00     0.003 A 
HETATM   20  C   UNL     1      43.547 -17.721   3.643  1.00  0.00     0.029 A 
BRANCH  17  21
HETATM   21  C   UNL     1      44.643 -21.734   2.500  1.00  0.00     0.147 C 
HETATM   22  C   UNL     1      44.548 -22.716   3.661  1.00  0.00     0.044 C 
BRANCH  21  23
HETATM   23  O   UNL     1      43.797 -22.180   1.441  1.00  0.00    -0.391 OA
HETATM   24  H   UNL     1      44.337 -22.191   0.634  1.00  0.00     0.210 HD
ENDBRANCH  21  23
ENDBRANCH  17  21
ENDBRANCH  12  15
ENDBRANCH   1  11
BRANCH   4  25
HETATM   25  C   UNL     1      39.909 -11.760  -0.731  1.00  0.00     0.409 C 
HETATM   26  F   UNL     1      40.937 -11.801   0.139  1.00  0.00    -0.169 F 
HETATM   27  F   UNL     1      40.427 -11.477  -1.950  1.00  0.00    -0.169 F 
HETATM   28  F   UNL     1      39.140 -10.692  -0.396  1.00  0.00    -0.169 F 
ENDBRANCH   4  25
BRANCH   6  29
HETATM   29  C   UNL     1      38.799 -12.214   2.440  1.00  0.00     0.075 A 
HETATM   30  O   UNL     1      40.042 -12.396   2.975  1.00  0.00    -0.325 OA
HETATM   31  C   UNL     1      40.373 -11.245   3.615  1.00  0.00     0.142 A 
HETATM   32  C   UNL     1      39.365 -10.318   3.492  1.00  0.00     0.027 A 
HETATM   33  C   UNL     1      38.351 -10.939   2.726  1.00  0.00     0.037 A 
ENDBRANCH   6  29
TORSDOF 6
ENDMDL
MODEL 8
REMARK VINA RESULT:      -7.7      2.332      3.341
REMARK  6 active torsions:
REMARK  status: ('A' for Active; 'I' for Inactive)
REMARK    1  A    between atoms: C_2  and  O_3 
REMARK    2  A    between atoms: C_2  and  C_4 
REMARK    3  A    between atoms: C_6  and  N_7 
REMARK       I    between atoms: N_7  and  C_8 
REMARK    4  A    between atoms: C_8  and  C_9 
REMARK    5  A    between atoms: C_12  and  C_13 
REMARK    6  A    between atoms: C_18  and  C_19 
ROOT
HETATM    1  C   UNL     1      41.215 -16.297   0.961  1.00  0.00     0.096 A 
HETATM    2  C   UNL     1      40.173 -15.387   0.954  1.00  0.00     0.138 A 
HETATM    3  N   UNL     1      40.172 -14.802  -0.282  1.00  0.00    -0.240 N 
HETATM    4  C   UNL     1      39.278 -13.733  -0.684  1.00  0.00     0.221 C 
HETATM    5  C   UNL     1      38.049 -13.686   0.244  1.00  0.00     0.068 C 
HETATM    6  C   UNL     1      38.381 -13.886   1.735  1.00  0.00     0.143 C 
HETATM    7  N   UNL     1      39.255 -15.046   1.887  1.00  0.00    -0.363 N 
HETATM    8  N   UNL     1      41.070 -15.331  -1.128  1.00  0.00    -0.181 NA
HETATM    9  C   UNL     1      41.720 -16.215  -0.363  1.00  0.00     0.160 A 
HETATM   10  H   UNL     1      39.367 -15.398   2.842  1.00  0.00     0.162 HD
ENDROOT
BRANCH   1  11
HETATM   11  C   UNL     1      41.624 -17.109   2.105  1.00  0.00     0.261 C 
HETATM   12  N   UNL     1      42.809 -17.802   1.921  1.00  0.00    -0.323 N 
HETATM   13  H   UNL     1      43.275 -17.697   1.033  1.00  0.00     0.169 HD
HETATM   14  O   UNL     1      40.945 -17.132   3.128  1.00  0.00    -0.267 OA
BRANCH  12  15
HETATM   15  C   UNL     1      43.472 -18.641   2.844  1.00  0.00     0.035 A 
HETATM   16  C   UNL     1      43.766 -18.283   4.163  1.00  0.00     0.039 A 
HETATM   17  C   UNL     1      44.440 -19.169   5.026  1.00  0.00    -0.028 A 
HETATM   18  C   UNL     1      44.804 -20.433   4.547  1.00  0.00     0.010 A 
HETATM   19  C   UNL     1      44.516 -20.801   3.235  1.00  0.00     0.003 A 
HETATM   20  C   UNL     1      43.853 -19.909   2.389  1.00  0.00     0.029 A 
BRANCH  17  21
HETATM   21  C   UNL     1      44.718 -18.752   6.454  1.00  0.00     0.147 C 
HETATM   22  C   UNL     1      44.704 -17.236   6.603  1.00  0.00     0.044 C 
BRANCH  21  23
HETATM   23  O   UNL     1      43.742 -19.316   7.328  1.00  0.00    -0.391 OA
HETATM   24  H   UNL     1      42.994 -19.594   6.773  1.00  0.00     0.210 HD
ENDBRANCH  21  23
ENDBRANCH  17  21
ENDBRANCH  12  15
ENDBRANCH   1  11
BRANCH   4  25
HETATM   25  C   UNL     1      40.040 -12.429  -0.764  1.00  0.00     0.409 C 
HETATM   26  F   UNL     1      39.280 -11.338  -0.545  1.00  0.00    -0.169 F 
HETATM   27  F   UNL     1      41.063 -12.388   0.124  1.00  0.00    -0.169 F 
HETATM   28  F   UNL     1      40.605 -12.286  -1.990  1.00  0.00    -0.169 F 
ENDBRANCH   4  25
BRANCH   6  29
HETATM   29  C   UNL     1      38.865 -12.642   2.409  1.00  0.00     0.075 A 
HETATM   30  O   UNL     1      40.093 -12.705   3.001  1.00  0.00    -0.325 OA
HETATM   31  C   UNL     1      40.342 -11.481   3.533  1.00  0.00     0.142 A 
HETATM   32  C   UNL     1      39.297 -10.625   3.282  1.00  0.00     0.027 A 
HETATM   33  C   UNL     1      38.345 -11.370   2.549  1.00  0.00     0.037 A 
ENDBRANCH   6  29
TORSDOF 6
ENDMDL
MODEL 9
REMARK VINA RESULT:      -7.7      1.968      2.790
REMARK  6 active torsions:
REMARK  status: ('A' for Active; 'I' for Inactive)
REMARK    1  A    between atoms: C_2  and  O_3 
REMARK    2  A    between atoms: C_2  and  C_4 
REMARK    3  A    between atoms: C_6  and  N_7 
REMARK       I    between atoms: N_7  and  C_8 
REMARK    4  A    between atoms: C_8  and  C_9 
REMARK    5  A    between atoms: C_12  and  C_13 
REMARK    6  A    between atoms: C_18  and  C_19 
ROOT
HETATM    1  C   UNL     1      42.242 -14.476   1.637  1.00  0.00     0.096 A 
HETATM    2  C   UNL     1      42.045 -14.068   0.330  1.00  0.00     0.138 A 
HETATM    3  N   UNL     1      42.086 -12.701   0.335  1.00  0.00    -0.240 N 
HETATM    4  C   UNL     1      41.851 -11.868  -0.829  1.00  0.00     0.221 C 
HETATM    5  C   UNL     1      42.039 -12.687  -2.120  1.00  0.00     0.068 C 
HETATM    6  C   UNL     1      41.434 -14.103  -2.058  1.00  0.00     0.143 C 
HETATM    7  N   UNL     1      41.850 -14.755  -0.820  1.00  0.00    -0.363 N 
HETATM    8  N   UNL     1      42.400 -12.177   1.530  1.00  0.00    -0.181 NA
HETATM    9  C   UNL     1      42.465 -13.253   2.323  1.00  0.00     0.160 A 
HETATM   10  H   UNL     1      41.686 -15.765  -0.769  1.00  0.00     0.162 HD
ENDROOT
BRANCH   1  11
HETATM   11  C   UNL     1      42.216 -15.859   2.107  1.00  0.00     0.261 C 
HETATM   12  N   UNL     1      43.371 -16.264   2.757  1.00  0.00    -0.323 N 
HETATM   13  H   UNL     1      44.116 -15.591   2.841  1.00  0.00     0.169 HD
HETATM   14  O   UNL     1      41.224 -16.560   1.929  1.00  0.00    -0.267 OA
BRANCH  12  15
HETATM   15  C   UNL     1      43.636 -17.522   3.344  1.00  0.00     0.035 A 
HETATM   16  C   UNL     1      43.844 -18.700   2.621  1.00  0.00     0.039 A 
HETATM   17  C   UNL     1      44.094 -19.922   3.275  1.00  0.00    -0.028 A 
HETATM   18  C   UNL     1      44.147 -19.941   4.674  1.00  0.00     0.010 A 
HETATM   19  C   UNL     1      43.942 -18.773   5.404  1.00  0.00     0.003 A 
HETATM   20  C   UNL     1      43.689 -17.570   4.742  1.00  0.00     0.029 A 
BRANCH  17  21
HETATM   21  C   UNL     1      44.338 -21.170   2.455  1.00  0.00     0.147 C 
HETATM   22  C   UNL     1      44.523 -22.393   3.345  1.00  0.00     0.044 C 
BRANCH  21  23
HETATM   23  O   UNL     1      43.242 -21.398   1.571  1.00  0.00    -0.391 OA
HETATM   24  H   UNL     1      43.617 -21.711   0.732  1.00  0.00     0.210 HD
ENDBRANCH  21  23
ENDBRANCH  17  21
ENDBRANCH  12  15
ENDBRANCH   1  11
BRANCH   4  25
HETATM   25  C   UNL     1      40.499 -11.197  -0.715  1.00  0.00     0.409 C 
HETATM   26  F   UNL     1      39.625 -11.862   0.065  1.00  0.00    -0.169 F 
HETATM   27  F   UNL     1      40.601  -9.940  -0.222  1.00  0.00    -0.169 F 
HETATM   28  F   UNL     1      39.930 -11.072  -1.941  1.00  0.00    -0.169 F 
ENDBRANCH   4  25
BRANCH   6  29
HETATM   29  C   UNL     1      39.963 -14.134  -2.321  1.00  0.00     0.075 A 
HETATM   30  O   UNL     1      39.150 -14.281  -1.234  1.00  0.00    -0.325 OA
HETATM   31  C   UNL     1      37.871 -14.269  -1.689  1.00  0.00     0.142 A 
HETATM   32  C   UNL     1      37.846 -14.105  -3.053  1.00  0.00     0.027 A 
HETATM   33  C   UNL     1      39.196 -14.010  -3.463  1.00  0.00     0.037 A 
ENDBRANCH   6  29
TORSDOF 6
ENDMDL
MODEL 10
REMARK VINA RESULT:      -7.6      3.380      7.634
REMARK  6 active torsions:
REMARK  status: ('A' for Active; 'I' for Inactive)
REMARK    1  A    between atoms: C_2  and  O_3 
REMARK    2  A    between atoms: C_2  and  C_4 
REMARK    3  A    between atoms: C_6  and  N_7 
REMARK       I    between atoms: N_7  and  C_8 
REMARK    4  A    between atoms: C_8  and  C_9 
REMARK    5  A    between atoms: C_12  and  C_13 
REMARK    6  A    between atoms: C_18  and  C_19 
ROOT
HETATM    1  C   UNL     1      41.439 -13.093   3.564  1.00  0.00     0.096 A 
HETATM    2  C   UNL     1      41.333 -14.403   3.994  1.00  0.00     0.138 A 
HETATM    3  N   UNL     1      41.760 -14.424   5.293  1.00  0.00    -0.240 N 
HETATM    4  C   UNL     1      41.877 -15.624   6.100  1.00  0.00     0.221 C 
HETATM    5  C   UNL     1      41.021 -16.756   5.501  1.00  0.00     0.068 C 
HETATM    6  C   UNL     1      41.097 -16.856   3.966  1.00  0.00     0.143 C 
HETATM    7  N   UNL     1      40.905 -15.532   3.383  1.00  0.00    -0.363 N 
HETATM    8  N   UNL     1      42.041 -13.208   5.787  1.00  0.00    -0.181 NA
HETATM    9  C   UNL     1      41.875 -12.407   4.729  1.00  0.00     0.160 A 
HETATM   10  H   UNL     1      40.725 -15.509   2.375  1.00  0.00     0.162 HD
ENDROOT
BRANCH   1  11
HETATM   11  C   UNL     1      41.145 -12.617   2.213  1.00  0.00     0.261 C 
HETATM   12  N   UNL     1      42.134 -12.890   1.282  1.00  0.00    -0.323 N 
HETATM   13  H   UNL     1      42.956 -13.375   1.608  1.00  0.00     0.169 HD
HETATM   14  O   UNL     1      40.088 -12.041   1.972  1.00  0.00    -0.267 OA
BRANCH  12  15
HETATM   15  C   UNL     1      42.129 -12.586  -0.097  1.00  0.00     0.035 A 
HETATM   16  C   UNL     1      41.636 -13.438  -1.089  1.00  0.00     0.039 A 
HETATM   17  C   UNL     1      41.673 -13.073  -2.449  1.00  0.00    -0.028 A 
HETATM   18  C   UNL     1      42.203 -11.825  -2.799  1.00  0.00     0.010 A 
HETATM   19  C   UNL     1      42.697 -10.968  -1.819  1.00  0.00     0.003 A 
HETATM   20  C   UNL     1      42.659 -11.347  -0.475  1.00  0.00     0.029 A 
BRANCH  17  21
HETATM   21  C   UNL     1      41.106 -14.013  -3.490  1.00  0.00     0.147 C 
HETATM   22  C   UNL     1      41.050 -15.445  -2.973  1.00  0.00     0.044 C 
BRANCH  21  23
HETATM   23  O   UNL     1      39.793 -13.599  -3.862  1.00  0.00    -0.391 OA
HETATM   24  H   UNL     1      39.880 -12.726  -4.279  1.00  0.00     0.210 HD
ENDBRANCH  21  23
ENDBRANCH  17  21
ENDBRANCH  12  15
ENDBRANCH   1  11
BRANCH   4  25
HETATM   25  C   UNL     1      43.336 -15.983   6.278  1.00  0.00     0.409 C 
HETATM   26  F   UNL     1      44.094 -15.736   5.192  1.00  0.00    -0.169 F 
HETATM   27  F   UNL     1      43.896 -15.317   7.316  1.00  0.00    -0.169 F 
HETATM   28  F   UNL     1      43.466 -17.302   6.568  1.00  0.00    -0.169 F 
ENDBRANCH   4  25
BRANCH   6  29
HETATM   29  C   UNL     1      42.305 -17.589   3.476  1.00  0.00     0.075 A 
HETATM   30  O   UNL     1      43.012 -16.999   2.469  1.00  0.00    -0.325 OA
HETATM   31  C   UNL     1      44.063 -17.813   2.190  1.00  0.00     0.142 A 
HETATM   32  C   UNL     1      44.050 -18.915   3.011  1.00  0.00     0.027 A 
HETATM   33  C   UNL     1      42.920 -18.768   3.849  1.00  0.00     0.037 A 
ENDBRANCH   6  29
TORSDOF 6
ENDMDL
