MODEL 1
REMARK VINA RESULT:      -8.1      0.000      0.000
REMARK  7 active torsions:
REMARK  status: ('A' for Active; 'I' for Inactive)
REMARK    1  A    between atoms: C_7  and  C_8 
REMARK    2  A    between atoms: C_8  and  C_9 
REMARK    3  A    between atoms: C_9  and  C_10 
REMARK    4  A    between atoms: C_10  and  O_11 
REMARK    5  A    between atoms: C_13  and  C_14 
REMARK    6  A    between atoms: C_21  and  C_22 
REMARK       I    between atoms: C_22  and  N_23 
REMARK    7  A    between atoms: N_23  and  C_24 
ROOT
HETATM    1  C   UNL     1      44.417 -15.298   6.848  1.00  0.00     0.070 C 
HETATM    2  C   UNL     1      43.215 -14.618   6.239  1.00  0.00     0.037 C 
HETATM    3  N   UNL     1      43.060 -13.275   6.567  1.00  0.00    -0.192 N 
HETATM    4  C   UNL     1      41.939 -12.577   6.304  1.00  0.00     0.726 A 
HETATM    5  N   UNL     1      40.946 -13.156   5.562  1.00  0.00    -0.083 N 
HETATM    6  N   UNL     1      39.875 -12.339   5.455  1.00  0.00    -0.140 NA
HETATM    7  C   UNL     1      40.309 -11.266   6.130  1.00  0.00     0.166 A 
HETATM    8  N   UNL     1      41.571 -11.377   6.667  1.00  0.00    -0.046 NA
HETATM    9  C   UNL     1      41.017 -14.512   5.006  1.00  0.00     0.202 C 
HETATM   10  C   UNL     1      42.277 -15.235   5.477  1.00  0.00     0.062 C 
HETATM   11  H   UNL     1      43.738 -12.862   7.204  1.00  0.00     0.184 HD
ENDROOT
BRANCH  10  12
HETATM   12  C   UNL     1      42.304 -16.679   5.122  1.00  0.00     0.256 C 
HETATM   13  N   UNL     1      43.229 -16.987   4.147  1.00  0.00    -0.323 N 
HETATM   14  H   UNL     1      43.770 -16.221   3.768  1.00  0.00     0.169 HD
HETATM   15  O   UNL     1      41.512 -17.434   5.668  1.00  0.00    -0.267 OA
BRANCH  13  16
HETATM   16  C   UNL     1      43.529 -18.265   3.631  1.00  0.00     0.035 A 
HETATM   17  C   UNL     1      44.354 -19.193   4.271  1.00  0.00     0.031 A 
HETATM   18  C   UNL     1      44.617 -20.436   3.685  1.00  0.00     0.026 A 
HETATM   19  C   UNL     1      44.059 -20.753   2.450  1.00  0.00     0.034 A 
HETATM   20 CL   UNL     1      44.392 -22.276   1.723  1.00  0.00    -0.084 Cl
HETATM   21  C   UNL     1      43.233 -19.841   1.799  1.00  0.00     0.026 A 
HETATM   22  C   UNL     1      42.965 -18.603   2.393  1.00  0.00     0.031 A 
ENDBRANCH  13  16
ENDBRANCH  10  12
BRANCH   9  23
HETATM   23  C   UNL     1      40.909 -14.467   3.482  1.00  0.00    -0.028 A 
HETATM   24  C   UNL     1      41.854 -13.789   2.690  1.00  0.00     0.012 A 
HETATM   25  C   UNL     1      41.726 -13.766   1.300  1.00  0.00     0.043 A 
HETATM   26  C   UNL     1      40.661 -14.423   0.697  1.00  0.00     0.116 A 
HETATM   27  F   UNL     1      40.539 -14.396  -0.637  1.00  0.00    -0.206 F 
HETATM   28  C   UNL     1      39.722 -15.108   1.456  1.00  0.00     0.043 A 
HETATM   29  C   UNL     1      39.846 -15.135   2.845  1.00  0.00     0.012 A 
ENDBRANCH   9  23
BRANCH   7  30
HETATM   30  C   UNL     1      39.492 -10.034   6.278  1.00  0.00     0.085 C 
BRANCH  30  31
HETATM   31  C   UNL     1      39.393  -9.218   4.991  1.00  0.00     0.034 C 
BRANCH  31  32
HETATM   32  C   UNL     1      38.016  -9.293   4.345  1.00  0.00     0.164 C 
BRANCH  32  33
HETATM   33  O   UNL     1      37.596 -10.651   4.270  1.00  0.00    -0.401 OA
HETATM   34  H   UNL     1      38.185 -11.105   3.643  1.00  0.00     0.209 HD
ENDBRANCH  32  33
ENDBRANCH  31  32
ENDBRANCH  30  31
ENDBRANCH   7  30
TORSDOF 7
ENDMDL
MODEL 2
REMARK VINA RESULT:      -7.8      2.630      4.274
REMARK  7 active torsions:
REMARK  status: ('A' for Active; 'I' for Inactive)
REMARK    1  A    between atoms: C_7  and  C_8 
REMARK    2  A    between atoms: C_8  and  C_9 
REMARK    3  A    between atoms: C_9  and  C_10 
REMARK    4  A    between atoms: C_10  and  O_11 
REMARK    5  A    between atoms: C_13  and  C_14 
REMARK    6  A    between atoms: C_21  and  C_22 
REMARK       I    between atoms: C_22  and  N_23 
REMARK    7  A    between atoms: N_23  and  C_24 
ROOT
HETATM    1  C   UNL     1      39.477 -15.455   1.869  1.00  0.00     0.070 C 
HETATM    2  C   UNL     1      40.217 -14.830   3.026  1.00  0.00     0.037 C 
HETATM    3  N   UNL     1      39.559 -13.781   3.659  1.00  0.00    -0.192 N 
HETATM    4  C   UNL     1      40.156 -12.968   4.551  1.00  0.00     0.726 A 
HETATM    5  N   UNL     1      41.427 -13.248   4.970  1.00  0.00    -0.083 N 
HETATM    6  N   UNL     1      41.888 -12.294   5.808  1.00  0.00    -0.140 NA
HETATM    7  C   UNL     1      40.822 -11.484   5.878  1.00  0.00     0.166 A 
HETATM    8  N   UNL     1      39.741 -11.865   5.117  1.00  0.00    -0.046 NA
HETATM    9  C   UNL     1      42.206 -14.406   4.517  1.00  0.00     0.202 C 
HETATM   10  C   UNL     1      41.468 -15.173   3.423  1.00  0.00     0.062 C 
HETATM   11  H   UNL     1      38.655 -13.496   3.288  1.00  0.00     0.184 HD
ENDROOT
BRANCH  10  12
HETATM   12  C   UNL     1      42.291 -16.231   2.777  1.00  0.00     0.256 C 
HETATM   13  N   UNL     1      42.334 -17.408   3.492  1.00  0.00    -0.323 N 
HETATM   14  H   UNL     1      41.830 -17.431   4.369  1.00  0.00     0.169 HD
HETATM   15  O   UNL     1      42.871 -15.968   1.732  1.00  0.00    -0.267 OA
BRANCH  13  16
HETATM   16  C   UNL     1      42.983 -18.605   3.126  1.00  0.00     0.035 A 
HETATM   17  C   UNL     1      42.729 -19.300   1.941  1.00  0.00     0.031 A 
HETATM   18  C   UNL     1      43.405 -20.493   1.657  1.00  0.00     0.026 A 
HETATM   19  C   UNL     1      44.335 -20.997   2.562  1.00  0.00     0.034 A 
HETATM   20 CL   UNL     1      45.156 -22.468   2.219  1.00  0.00    -0.084 Cl
HETATM   21  C   UNL     1      44.601 -20.315   3.745  1.00  0.00     0.026 A 
HETATM   22  C   UNL     1      43.931 -19.118   4.022  1.00  0.00     0.031 A 
ENDBRANCH  13  16
ENDBRANCH  10  12
BRANCH   9  23
HETATM   23  C   UNL     1      42.572 -15.296   5.705  1.00  0.00    -0.028 A 
HETATM   24  C   UNL     1      41.644 -16.182   6.283  1.00  0.00     0.012 A 
HETATM   25  C   UNL     1      42.009 -16.980   7.368  1.00  0.00     0.043 A 
HETATM   26  C   UNL     1      43.300 -16.903   7.875  1.00  0.00     0.116 A 
HETATM   27  F   UNL     1      43.647 -17.668   8.918  1.00  0.00    -0.206 F 
HETATM   28  C   UNL     1      44.238 -16.045   7.316  1.00  0.00     0.043 A 
HETATM   29  C   UNL     1      43.877 -15.245   6.230  1.00  0.00     0.012 A 
ENDBRANCH   9  23
BRANCH   7  30
HETATM   30  C   UNL     1      40.802 -10.266   6.728  1.00  0.00     0.085 C 
BRANCH  30  31
HETATM   31  C   UNL     1      39.629 -10.233   7.705  1.00  0.00     0.034 C 
BRANCH  31  32
HETATM   32  C   UNL     1      39.934 -10.932   9.024  1.00  0.00     0.164 C 
BRANCH  32  33
HETATM   33  O   UNL     1      39.085 -12.066   9.171  1.00  0.00    -0.401 OA
HETATM   34  H   UNL     1      38.187 -11.795   8.914  1.00  0.00     0.209 HD
ENDBRANCH  32  33
ENDBRANCH  31  32
ENDBRANCH  30  31
ENDBRANCH   7  30
TORSDOF 7
ENDMDL
MODEL 3
REMARK VINA RESULT:      -7.4      3.573      6.030
REMARK  7 active torsions:
REMARK  status: ('A' for Active; 'I' for Inactive)
REMARK    1  A    between atoms: C_7  and  C_8 
REMARK    2  A    between atoms: C_8  and  C_9 
REMARK    3  A    between atoms: C_9  and  C_10 
REMARK    4  A    between atoms: C_10  and  O_11 
REMARK    5  A    between atoms: C_13  and  C_14 
REMARK    6  A    between atoms: C_21  and  C_22 
REMARK       I    between atoms: C_22  and  N_23 
REMARK    7  A    between atoms: N_23  and  C_24 
ROOT
HETATM    1  C   UNL     1      39.807 -11.830   3.126  1.00  0.00     0.070 C 
HETATM    2  C   UNL     1      41.004 -12.629   3.580  1.00  0.00     0.037 C 
HETATM    3  N   UNL     1      41.290 -12.556   4.939  1.00  0.00    -0.192 N 
HETATM    4  C   UNL     1      42.437 -13.014   5.476  1.00  0.00     0.726 A 
HETATM    5  N   UNL     1      43.318 -13.705   4.691  1.00  0.00    -0.083 N 
HETATM    6  N   UNL     1      44.437 -14.027   5.376  1.00  0.00    -0.140 NA
HETATM    7  C   UNL     1      44.144 -13.527   6.585  1.00  0.00     0.166 A 
HETATM    8  N   UNL     1      42.925 -12.896   6.683  1.00  0.00    -0.046 NA
HETATM    9  C   UNL     1      43.096 -14.004   3.272  1.00  0.00     0.202 C 
HETATM   10  C   UNL     1      41.826 -13.329   2.758  1.00  0.00     0.062 C 
HETATM   11  H   UNL     1      40.700 -11.961   5.516  1.00  0.00     0.184 HD
ENDROOT
BRANCH  10  12
HETATM   12  C   UNL     1      41.658 -13.419   1.283  1.00  0.00     0.256 C 
HETATM   13  N   UNL     1      40.707 -14.338   0.893  1.00  0.00    -0.323 N 
HETATM   14  H   UNL     1      40.244 -14.858   1.626  1.00  0.00     0.169 HD
HETATM   15  O   UNL     1      42.372 -12.731   0.566  1.00  0.00    -0.267 OA
BRANCH  13  16
HETATM   16  C   UNL     1      40.284 -14.620  -0.422  1.00  0.00     0.035 A 
HETATM   17  C   UNL     1      39.175 -14.027  -1.030  1.00  0.00     0.031 A 
HETATM   18  C   UNL     1      38.809 -14.373  -2.336  1.00  0.00     0.026 A 
HETATM   19  C   UNL     1      39.549 -15.322  -3.036  1.00  0.00     0.034 A 
HETATM   20 CL   UNL     1      39.091 -15.756  -4.636  1.00  0.00    -0.084 Cl
HETATM   21  C   UNL     1      40.657 -15.920  -2.446  1.00  0.00     0.026 A 
HETATM   22  C   UNL     1      41.026 -15.565  -1.144  1.00  0.00     0.031 A 
ENDBRANCH  13  16
ENDBRANCH  10  12
BRANCH   9  23
HETATM   23  C   UNL     1      43.083 -15.515   3.043  1.00  0.00    -0.028 A 
HETATM   24  C   UNL     1      43.950 -16.136   2.124  1.00  0.00     0.012 A 
HETATM   25  C   UNL     1      43.911 -17.518   1.938  1.00  0.00     0.043 A 
HETATM   26  C   UNL     1      43.015 -18.286   2.671  1.00  0.00     0.116 A 
HETATM   27  F   UNL     1      42.978 -19.612   2.487  1.00  0.00    -0.206 F 
HETATM   28  C   UNL     1      42.157 -17.700   3.591  1.00  0.00     0.043 A 
HETATM   29  C   UNL     1      42.192 -16.318   3.781  1.00  0.00     0.012 A 
ENDBRANCH   9  23
BRANCH   7  30
HETATM   30  C   UNL     1      45.064 -13.655   7.744  1.00  0.00     0.085 C 
BRANCH  30  31
HETATM   31  C   UNL     1      45.398 -12.317   8.399  1.00  0.00     0.034 C 
BRANCH  31  32
HETATM   32  C   UNL     1      44.581 -12.051   9.657  1.00  0.00     0.164 C 
BRANCH  32  33
HETATM   33  O   UNL     1      44.346 -13.276  10.343  1.00  0.00    -0.401 OA
HETATM   34  H   UNL     1      44.736 -13.990   9.810  1.00  0.00     0.209 HD
ENDBRANCH  32  33
ENDBRANCH  31  32
ENDBRANCH  30  31
ENDBRANCH   7  30
TORSDOF 7
ENDMDL
MODEL 4
REMARK VINA RESULT:      -7.1      4.265      6.814
REMARK  7 active torsions:
REMARK  status: ('A' for Active; 'I' for Inactive)
REMARK    1  A    between atoms: C_7  and  C_8 
REMARK    2  A    between atoms: C_8  and  C_9 
REMARK    3  A    between atoms: C_9  and  C_10 
REMARK    4  A    between atoms: C_10  and  O_11 
REMARK    5  A    between atoms: C_13  and  C_14 
REMARK    6  A    between atoms: C_21  and  C_22 
REMARK       I    between atoms: C_22  and  N_23 
REMARK    7  A    between atoms: N_23  and  C_24 
ROOT
HETATM    1  C   UNL     1      39.774 -11.495   3.017  1.00  0.00     0.070 C 
HETATM    2  C   UNL     1      40.909 -12.395   3.443  1.00  0.00     0.037 C 
HETATM    3  N   UNL     1      41.170 -12.419   4.809  1.00  0.00    -0.192 N 
HETATM    4  C   UNL     1      42.274 -12.980   5.338  1.00  0.00     0.726 A 
HETATM    5  N   UNL     1      43.126 -13.680   4.529  1.00  0.00    -0.083 N 
HETATM    6  N   UNL     1      44.208 -14.112   5.213  1.00  0.00    -0.140 NA
HETATM    7  C   UNL     1      43.921 -13.664   6.444  1.00  0.00     0.166 A 
HETATM    8  N   UNL     1      42.743 -12.963   6.558  1.00  0.00    -0.046 NA
HETATM    9  C   UNL     1      42.916 -13.881   3.091  1.00  0.00     0.202 C 
HETATM   10  C   UNL     1      41.703 -13.097   2.596  1.00  0.00     0.062 C 
HETATM   11  H   UNL     1      40.607 -11.821   5.410  1.00  0.00     0.184 HD
ENDROOT
BRANCH  10  12
HETATM   12  C   UNL     1      41.560 -13.090   1.115  1.00  0.00     0.256 C 
HETATM   13  N   UNL     1      42.181 -12.020   0.508  1.00  0.00    -0.323 N 
HETATM   14  H   UNL     1      42.644 -11.354   1.112  1.00  0.00     0.169 HD
HETATM   15  O   UNL     1      40.898 -13.972   0.585  1.00  0.00    -0.267 OA
BRANCH  13  16
HETATM   16  C   UNL     1      42.268 -11.758  -0.875  1.00  0.00     0.035 A 
HETATM   17  C   UNL     1      42.356 -12.750  -1.854  1.00  0.00     0.031 A 
HETATM   18  C   UNL     1      42.456 -12.407  -3.208  1.00  0.00     0.026 A 
HETATM   19  C   UNL     1      42.475 -11.068  -3.586  1.00  0.00     0.034 A 
HETATM   20 CL   UNL     1      42.611 -10.647  -5.247  1.00  0.00    -0.084 Cl
HETATM   21  C   UNL     1      42.386 -10.067  -2.622  1.00  0.00     0.026 A 
HETATM   22  C   UNL     1      42.276 -10.413  -1.271  1.00  0.00     0.031 A 
ENDBRANCH  13  16
ENDBRANCH  10  12
BRANCH   9  23
HETATM   23  C   UNL     1      42.812 -15.373   2.773  1.00  0.00    -0.028 A 
HETATM   24  C   UNL     1      41.763 -16.168   3.272  1.00  0.00     0.012 A 
HETATM   25  C   UNL     1      41.698 -17.527   2.965  1.00  0.00     0.043 A 
HETATM   26  C   UNL     1      42.673 -18.097   2.155  1.00  0.00     0.116 A 
HETATM   27  F   UNL     1      42.610 -19.403   1.865  1.00  0.00    -0.206 F 
HETATM   28  C   UNL     1      43.713 -17.332   1.642  1.00  0.00     0.043 A 
HETATM   29  C   UNL     1      43.781 -15.972   1.946  1.00  0.00     0.012 A 
ENDBRANCH   9  23
BRANCH   7  30
HETATM   30  C   UNL     1      44.807 -13.919   7.610  1.00  0.00     0.085 C 
BRANCH  30  31
HETATM   31  C   UNL     1      45.737 -12.750   7.926  1.00  0.00     0.034 C 
BRANCH  31  32
HETATM   32  C   UNL     1      45.250 -11.901   9.093  1.00  0.00     0.164 C 
BRANCH  32  33
HETATM   33  O   UNL     1      45.982 -10.681   9.137  1.00  0.00    -0.401 OA
HETATM   34  H   UNL     1      46.706 -10.797   9.776  1.00  0.00     0.209 HD
ENDBRANCH  32  33
ENDBRANCH  31  32
ENDBRANCH  30  31
ENDBRANCH   7  30
TORSDOF 7
ENDMDL
MODEL 5
REMARK VINA RESULT:      -7.0      3.156      4.242
REMARK  7 active torsions:
REMARK  status: ('A' for Active; 'I' for Inactive)
REMARK    1  A    between atoms: C_7  and  C_8 
REMARK    2  A    between atoms: C_8  and  C_9 
REMARK    3  A    between atoms: C_9  and  C_10 
REMARK    4  A    between atoms: C_10  and  O_11 
REMARK    5  A    between atoms: C_13  and  C_14 
REMARK    6  A    between atoms: C_21  and  C_22 
REMARK       I    between atoms: C_22  and  N_23 
REMARK    7  A    between atoms: N_23  and  C_24 
ROOT
HETATM    1  C   UNL     1      41.492 -12.617   4.860  1.00  0.00     0.070 C 
HETATM    2  C   UNL     1      40.768 -12.663   3.536  1.00  0.00     0.037 C 
HETATM    3  N   UNL     1      39.683 -11.802   3.420  1.00  0.00    -0.192 N 
HETATM    4  C   UNL     1      38.794 -11.869   2.411  1.00  0.00     0.726 A 
HETATM    5  N   UNL     1      39.022 -12.727   1.370  1.00  0.00    -0.083 N 
HETATM    6  N   UNL     1      37.999 -12.710   0.488  1.00  0.00    -0.140 NA
HETATM    7  C   UNL     1      37.202 -11.787   1.045  1.00  0.00     0.166 A 
HETATM    8  N   UNL     1      37.657 -11.251   2.228  1.00  0.00    -0.046 NA
HETATM    9  C   UNL     1      40.200 -13.595   1.263  1.00  0.00     0.202 C 
HETATM   10  C   UNL     1      41.061 -13.514   2.521  1.00  0.00     0.062 C 
HETATM   11  H   UNL     1      39.442 -11.232   4.228  1.00  0.00     0.184 HD
ENDROOT
BRANCH  10  12
HETATM   12  C   UNL     1      42.153 -14.523   2.562  1.00  0.00     0.256 C 
HETATM   13  N   UNL     1      41.699 -15.820   2.671  1.00  0.00    -0.323 N 
HETATM   14  H   UNL     1      40.698 -15.953   2.728  1.00  0.00     0.169 HD
HETATM   15  O   UNL     1      43.313 -14.135   2.539  1.00  0.00    -0.267 OA
BRANCH  13  16
HETATM   16  C   UNL     1      42.477 -16.997   2.686  1.00  0.00     0.035 A 
HETATM   17  C   UNL     1      42.980 -17.615   1.539  1.00  0.00     0.031 A 
HETATM   18  C   UNL     1      43.731 -18.793   1.636  1.00  0.00     0.026 A 
HETATM   19  C   UNL     1      43.976 -19.359   2.883  1.00  0.00     0.034 A 
HETATM   20 CL   UNL     1      44.888 -20.812   3.001  1.00  0.00    -0.084 Cl
HETATM   21  C   UNL     1      43.483 -18.755   4.036  1.00  0.00     0.026 A 
HETATM   22  C   UNL     1      42.741 -17.573   3.936  1.00  0.00     0.031 A 
ENDBRANCH  13  16
ENDBRANCH  10  12
BRANCH   9  23
HETATM   23  C   UNL     1      40.989 -13.263  -0.004  1.00  0.00    -0.028 A 
HETATM   24  C   UNL     1      41.772 -12.097  -0.107  1.00  0.00     0.012 A 
HETATM   25  C   UNL     1      42.479 -11.823  -1.278  1.00  0.00     0.043 A 
HETATM   26  C   UNL     1      42.415 -12.710  -2.345  1.00  0.00     0.116 A 
HETATM   27  F   UNL     1      43.093 -12.442  -3.469  1.00  0.00    -0.206 F 
HETATM   28  C   UNL     1      41.658 -13.872  -2.264  1.00  0.00     0.043 A 
HETATM   29  C   UNL     1      40.949 -14.151  -1.095  1.00  0.00     0.012 A 
ENDBRANCH   9  23
BRANCH   7  30
HETATM   30  C   UNL     1      35.922 -11.361   0.424  1.00  0.00     0.085 C 
BRANCH  30  31
HETATM   31  C   UNL     1      35.150 -10.348   1.267  1.00  0.00     0.034 C 
BRANCH  31  32
HETATM   32  C   UNL     1      33.640 -10.491   1.135  1.00  0.00     0.164 C 
BRANCH  32  33
HETATM   33  O   UNL     1      33.109 -11.073   2.321  1.00  0.00    -0.401 OA
HETATM   34  H   UNL     1      32.190 -10.768   2.411  1.00  0.00     0.209 HD
ENDBRANCH  32  33
ENDBRANCH  31  32
ENDBRANCH  30  31
ENDBRANCH   7  30
TORSDOF 7
ENDMDL
MODEL 6
REMARK VINA RESULT:      -6.9      2.509      3.973
REMARK  7 active torsions:
REMARK  status: ('A' for Active; 'I' for Inactive)
REMARK    1  A    between atoms: C_7  and  C_8 
REMARK    2  A    between atoms: C_8  and  C_9 
REMARK    3  A    between atoms: C_9  and  C_10 
REMARK    4  A    between atoms: C_10  and  O_11 
REMARK    5  A    between atoms: C_13  and  C_14 
REMARK    6  A    between atoms: C_21  and  C_22 
REMARK       I    between atoms: C_22  and  N_23 
REMARK    7  A    between atoms: N_23  and  C_24 
ROOT
HETATM    1  C   UNL     1      39.447 -15.519   1.982  1.00  0.00     0.070 C 
HETATM    2  C   UNL     1      40.206 -14.867   3.112  1.00  0.00     0.037 C 
HETATM    3  N   UNL     1      39.548 -13.818   3.745  1.00  0.00    -0.192 N 
HETATM    4  C   UNL     1      40.154 -12.984   4.610  1.00  0.00     0.726 A 
HETATM    5  N   UNL     1      41.439 -13.240   5.003  1.00  0.00    -0.083 N 
HETATM    6  N   UNL     1      41.907 -12.267   5.816  1.00  0.00    -0.140 NA
HETATM    7  C   UNL     1      40.831 -11.472   5.900  1.00  0.00     0.166 A 
HETATM    8  N   UNL     1      39.737 -11.879   5.171  1.00  0.00    -0.046 NA
HETATM    9  C   UNL     1      42.224 -14.393   4.548  1.00  0.00     0.202 C 
HETATM   10  C   UNL     1      41.471 -15.187   3.483  1.00  0.00     0.062 C 
HETATM   11  H   UNL     1      38.631 -13.552   3.392  1.00  0.00     0.184 HD
ENDROOT
BRANCH  10  12
HETATM   12  C   UNL     1      42.294 -16.242   2.832  1.00  0.00     0.256 C 
HETATM   13  N   UNL     1      42.384 -17.402   3.571  1.00  0.00    -0.323 N 
HETATM   14  H   UNL     1      41.910 -17.416   4.464  1.00  0.00     0.169 HD
HETATM   15  O   UNL     1      42.833 -15.991   1.763  1.00  0.00    -0.267 OA
BRANCH  13  16
HETATM   16  C   UNL     1      43.045 -18.594   3.208  1.00  0.00     0.035 A 
HETATM   17  C   UNL     1      44.116 -19.141   3.919  1.00  0.00     0.031 A 
HETATM   18  C   UNL     1      44.731 -20.321   3.483  1.00  0.00     0.026 A 
HETATM   19  C   UNL     1      44.279 -20.955   2.330  1.00  0.00     0.034 A 
HETATM   20 CL   UNL     1      45.042 -22.398   1.788  1.00  0.00    -0.084 Cl
HETATM   21  C   UNL     1      43.211 -20.424   1.612  1.00  0.00     0.026 A 
HETATM   22  C   UNL     1      42.593 -19.250   2.055  1.00  0.00     0.031 A 
ENDBRANCH  13  16
ENDBRANCH  10  12
BRANCH   9  23
HETATM   23  C   UNL     1      42.631 -15.261   5.739  1.00  0.00    -0.028 A 
HETATM   24  C   UNL     1      43.910 -15.172   6.321  1.00  0.00     0.012 A 
HETATM   25  C   UNL     1      44.250 -15.980   7.406  1.00  0.00     0.043 A 
HETATM   26  C   UNL     1      43.317 -16.872   7.920  1.00  0.00     0.116 A 
HETATM   27  F   UNL     1      43.649 -17.648   8.960  1.00  0.00    -0.206 F 
HETATM   28  C   UNL     1      42.046 -16.972   7.370  1.00  0.00     0.043 A 
HETATM   29  C   UNL     1      41.700 -16.165   6.285  1.00  0.00     0.012 A 
ENDBRANCH   9  23
BRANCH   7  30
HETATM   30  C   UNL     1      40.813 -10.242   6.732  1.00  0.00     0.085 C 
BRANCH  30  31
HETATM   31  C   UNL     1      40.584  -8.968   5.921  1.00  0.00     0.034 C 
BRANCH  31  32
HETATM   32  C   UNL     1      41.630  -8.760   4.834  1.00  0.00     0.164 C 
BRANCH  32  33
HETATM   33  O   UNL     1      40.999  -8.293   3.646  1.00  0.00    -0.401 OA
HETATM   34  H   UNL     1      40.197  -8.828   3.511  1.00  0.00     0.209 HD
ENDBRANCH  32  33
ENDBRANCH  31  32
ENDBRANCH  30  31
ENDBRANCH   7  30
TORSDOF 7
ENDMDL
MODEL 7
REMARK VINA RESULT:      -6.7      0.781      1.167
REMARK  7 active torsions:
REMARK  status: ('A' for Active; 'I' for Inactive)
REMARK    1  A    between atoms: C_7  and  C_8 
REMARK    2  A    between atoms: C_8  and  C_9 
REMARK    3  A    between atoms: C_9  and  C_10 
REMARK    4  A    between atoms: C_10  and  O_11 
REMARK    5  A    between atoms: C_13  and  C_14 
REMARK    6  A    between atoms: C_21  and  C_22 
REMARK       I    between atoms: C_22  and  N_23 
REMARK    7  A    between atoms: N_23  and  C_24 
ROOT
HETATM    1  C   UNL     1      44.270 -14.438   6.762  1.00  0.00     0.070 C 
HETATM    2  C   UNL     1      42.991 -13.891   6.178  1.00  0.00     0.037 C 
HETATM    3  N   UNL     1      42.753 -12.543   6.420  1.00  0.00    -0.192 N 
HETATM    4  C   UNL     1      41.571 -11.947   6.174  1.00  0.00     0.726 A 
HETATM    5  N   UNL     1      40.586 -12.648   5.534  1.00  0.00    -0.083 N 
HETATM    6  N   UNL     1      39.452 -11.920   5.433  1.00  0.00    -0.140 NA
HETATM    7  C   UNL     1      39.841 -10.770   6.004  1.00  0.00     0.166 A 
HETATM    8  N   UNL     1      41.134 -10.752   6.473  1.00  0.00    -0.046 NA
HETATM    9  C   UNL     1      40.729 -14.033   5.073  1.00  0.00     0.202 C 
HETATM   10  C   UNL     1      42.062 -14.629   5.519  1.00  0.00     0.062 C 
HETATM   11  H   UNL     1      43.431 -12.036   6.984  1.00  0.00     0.184 HD
ENDROOT
BRANCH  10  12
HETATM   12  C   UNL     1      42.178 -16.090   5.265  1.00  0.00     0.256 C 
HETATM   13  N   UNL     1      43.043 -16.402   4.237  1.00  0.00    -0.323 N 
HETATM   14  H   UNL     1      43.487 -15.629   3.760  1.00  0.00     0.169 HD
HETATM   15  O   UNL     1      41.497 -16.858   5.930  1.00  0.00    -0.267 OA
BRANCH  13  16
HETATM   16  C   UNL     1      43.403 -17.689   3.789  1.00  0.00     0.035 A 
HETATM   17  C   UNL     1      42.996 -18.235   2.569  1.00  0.00     0.031 A 
HETATM   18  C   UNL     1      43.384 -19.529   2.203  1.00  0.00     0.026 A 
HETATM   19  C   UNL     1      44.177 -20.285   3.061  1.00  0.00     0.034 A 
HETATM   20 CL   UNL     1      44.642 -21.880   2.617  1.00  0.00    -0.084 Cl
HETATM   21  C   UNL     1      44.593 -19.756   4.279  1.00  0.00     0.026 A 
HETATM   22  C   UNL     1      44.212 -18.458   4.638  1.00  0.00     0.031 A 
ENDBRANCH  13  16
ENDBRANCH  10  12
BRANCH   9  23
HETATM   23  C   UNL     1      40.536 -14.110   3.558  1.00  0.00    -0.028 A 
HETATM   24  C   UNL     1      41.108 -13.164   2.687  1.00  0.00     0.012 A 
HETATM   25  C   UNL     1      40.912 -13.262   1.309  1.00  0.00     0.043 A 
HETATM   26  C   UNL     1      40.152 -14.305   0.795  1.00  0.00     0.116 A 
HETATM   27  F   UNL     1      39.963 -14.394  -0.528  1.00  0.00    -0.206 F 
HETATM   28  C   UNL     1      39.586 -15.258   1.632  1.00  0.00     0.043 A 
HETATM   29  C   UNL     1      39.780 -15.164   3.011  1.00  0.00     0.012 A 
ENDBRANCH   9  23
BRANCH   7  30
HETATM   30  C   UNL     1      38.943  -9.592   6.113  1.00  0.00     0.085 C 
BRANCH  30  31
HETATM   31  C   UNL     1      38.749  -8.858   4.788  1.00  0.00     0.034 C 
BRANCH  31  32
HETATM   32  C   UNL     1      37.667  -9.481   3.916  1.00  0.00     0.164 C 
BRANCH  32  33
HETATM   33  O   UNL     1      36.434  -8.800   4.124  1.00  0.00    -0.401 OA
HETATM   34  H   UNL     1      35.823  -9.078   3.420  1.00  0.00     0.209 HD
ENDBRANCH  32  33
ENDBRANCH  31  32
ENDBRANCH  30  31
ENDBRANCH   7  30
TORSDOF 7
ENDMDL
MODEL 8
REMARK VINA RESULT:      -6.7      4.501      7.155
REMARK  7 active torsions:
REMARK  status: ('A' for Active; 'I' for Inactive)
REMARK    1  A    between atoms: C_7  and  C_8 
REMARK    2  A    between atoms: C_8  and  C_9 
REMARK    3  A    between atoms: C_9  and  C_10 
REMARK    4  A    between atoms: C_10  and  O_11 
REMARK    5  A    between atoms: C_13  and  C_14 
REMARK    6  A    between atoms: C_21  and  C_22 
REMARK       I    between atoms: C_22  and  N_23 
REMARK    7  A    between atoms: N_23  and  C_24 
ROOT
HETATM    1  C   UNL     1      43.434 -16.998   3.486  1.00  0.00     0.070 C 
HETATM    2  C   UNL     1      42.770 -15.996   2.575  1.00  0.00     0.037 C 
HETATM    3  N   UNL     1      42.122 -16.534   1.468  1.00  0.00    -0.192 N 
HETATM    4  C   UNL     1      41.675 -15.786   0.441  1.00  0.00     0.726 A 
HETATM    5  N   UNL     1      41.730 -14.422   0.527  1.00  0.00    -0.083 N 
HETATM    6  N   UNL     1      41.305 -13.840  -0.615  1.00  0.00    -0.140 NA
HETATM    7  C   UNL     1      40.973 -14.920  -1.338  1.00  0.00     0.166 A 
HETATM    8  N   UNL     1      41.188 -16.132  -0.722  1.00  0.00    -0.046 NA
HETATM    9  C   UNL     1      42.243 -13.693   1.692  1.00  0.00     0.202 C 
HETATM   10  C   UNL     1      42.828 -14.649   2.729  1.00  0.00     0.062 C 
HETATM   11  H   UNL     1      42.163 -17.542   1.339  1.00  0.00     0.184 HD
ENDROOT
BRANCH  10  12
HETATM   12  C   UNL     1      43.550 -13.963   3.834  1.00  0.00     0.256 C 
HETATM   13  N   UNL     1      42.795 -13.818   4.978  1.00  0.00    -0.323 N 
HETATM   14  H   UNL     1      41.846 -14.166   4.949  1.00  0.00     0.169 HD
HETATM   15  O   UNL     1      44.689 -13.564   3.633  1.00  0.00    -0.267 OA
BRANCH  13  16
HETATM   16  C   UNL     1      43.206 -13.258   6.205  1.00  0.00     0.035 A 
HETATM   17  C   UNL     1      44.268 -13.746   6.970  1.00  0.00     0.031 A 
HETATM   18  C   UNL     1      44.604 -13.143   8.188  1.00  0.00     0.026 A 
HETATM   19  C   UNL     1      43.873 -12.052   8.648  1.00  0.00     0.034 A 
HETATM   20 CL   UNL     1      44.278 -11.319  10.150  1.00  0.00    -0.084 Cl
HETATM   21  C   UNL     1      42.814 -11.552   7.896  1.00  0.00     0.026 A 
HETATM   22  C   UNL     1      42.486 -12.150   6.675  1.00  0.00     0.031 A 
ENDBRANCH  13  16
ENDBRANCH  10  12
BRANCH   9  23
HETATM   23  C   UNL     1      41.152 -12.796   2.279  1.00  0.00    -0.028 A 
HETATM   24  C   UNL     1      41.246 -11.392   2.244  1.00  0.00     0.012 A 
HETATM   25  C   UNL     1      40.233 -10.602   2.790  1.00  0.00     0.043 A 
HETATM   26  C   UNL     1      39.123 -11.208   3.366  1.00  0.00     0.116 A 
HETATM   27  F   UNL     1      38.155 -10.447   3.892  1.00  0.00    -0.206 F 
HETATM   28  C   UNL     1      39.002 -12.591   3.404  1.00  0.00     0.043 A 
HETATM   29  C   UNL     1      40.012 -13.385   2.858  1.00  0.00     0.012 A 
ENDBRANCH   9  23
BRANCH   7  30
HETATM   30  C   UNL     1      40.398 -14.817  -2.704  1.00  0.00     0.085 C 
BRANCH  30  31
HETATM   31  C   UNL     1      40.033 -16.172  -3.307  1.00  0.00     0.034 C 
BRANCH  31  32
HETATM   32  C   UNL     1      38.731 -16.140  -4.096  1.00  0.00     0.164 C 
BRANCH  32  33
HETATM   33  O   UNL     1      38.948 -16.669  -5.400  1.00  0.00    -0.401 OA
HETATM   34  H   UNL     1      39.437 -16.000  -5.910  1.00  0.00     0.209 HD
ENDBRANCH  32  33
ENDBRANCH  31  32
ENDBRANCH  30  31
ENDBRANCH   7  30
TORSDOF 7
ENDMDL
MODEL 9
REMARK VINA RESULT:      -6.5      4.021      6.777
REMARK  7 active torsions:
REMARK  status: ('A' for Active; 'I' for Inactive)
REMARK    1  A    between atoms: C_7  and  C_8 
REMARK    2  A    between atoms: C_8  and  C_9 
REMARK    3  A    between atoms: C_9  and  C_10 
REMARK    4  A    between atoms: C_10  and  O_11 
REMARK    5  A    between atoms: C_13  and  C_14 
REMARK    6  A    between atoms: C_21  and  C_22 
REMARK       I    between atoms: C_22  and  N_23 
REMARK    7  A    between atoms: N_23  and  C_24 
ROOT
HETATM    1  C   UNL     1      43.439 -18.650   5.359  1.00  0.00     0.070 C 
HETATM    2  C   UNL     1      42.958 -17.546   4.450  1.00  0.00     0.037 C 
HETATM    3  N   UNL     1      42.433 -17.962   3.231  1.00  0.00    -0.192 N 
HETATM    4  C   UNL     1      42.170 -17.118   2.216  1.00  0.00     0.726 A 
HETATM    5  N   UNL     1      42.289 -15.770   2.414  1.00  0.00    -0.083 N 
HETATM    6  N   UNL     1      42.053 -15.084   1.274  1.00  0.00    -0.140 NA
HETATM    7  C   UNL     1      41.759 -16.087   0.434  1.00  0.00     0.166 A 
HETATM    8  N   UNL     1      41.823 -17.350   0.977  1.00  0.00    -0.046 NA
HETATM    9  C   UNL     1      42.683 -15.158   3.687  1.00  0.00     0.202 C 
HETATM   10  C   UNL     1      43.070 -16.219   4.714  1.00  0.00     0.062 C 
HETATM   11  H   UNL     1      42.435 -18.960   3.031  1.00  0.00     0.184 HD
ENDROOT
BRANCH  10  12
HETATM   12  C   UNL     1      43.677 -15.660   5.952  1.00  0.00     0.256 C 
HETATM   13  N   UNL     1      44.083 -14.349   5.821  1.00  0.00    -0.323 N 
HETATM   14  H   UNL     1      43.947 -13.914   4.918  1.00  0.00     0.169 HD
HETATM   15  O   UNL     1      43.800 -16.388   6.927  1.00  0.00    -0.267 OA
BRANCH  13  16
HETATM   16  C   UNL     1      44.645 -13.528   6.820  1.00  0.00     0.035 A 
HETATM   17  C   UNL     1      46.016 -13.306   6.968  1.00  0.00     0.031 A 
HETATM   18  C   UNL     1      46.498 -12.489   7.998  1.00  0.00     0.026 A 
HETATM   19  C   UNL     1      45.607 -11.895   8.888  1.00  0.00     0.034 A 
HETATM   20 CL   UNL     1      46.199 -10.901  10.160  1.00  0.00    -0.084 Cl
HETATM   21  C   UNL     1      44.238 -12.105   8.752  1.00  0.00     0.026 A 
HETATM   22  C   UNL     1      43.759 -12.914   7.716  1.00  0.00     0.031 A 
ENDBRANCH  13  16
ENDBRANCH  10  12
BRANCH   9  23
HETATM   23  C   UNL     1      41.576 -14.234   4.197  1.00  0.00    -0.028 A 
HETATM   24  C   UNL     1      41.619 -12.842   3.996  1.00  0.00     0.012 A 
HETATM   25  C   UNL     1      40.593 -12.026   4.475  1.00  0.00     0.043 A 
HETATM   26  C   UNL     1      39.519 -12.596   5.149  1.00  0.00     0.116 A 
HETATM   27  F   UNL     1      38.538 -11.810   5.610  1.00  0.00    -0.206 F 
HETATM   28  C   UNL     1      39.448 -13.968   5.350  1.00  0.00     0.043 A 
HETATM   29  C   UNL     1      40.472 -14.788   4.872  1.00  0.00     0.012 A 
ENDBRANCH   9  23
BRANCH   7  30
HETATM   30  C   UNL     1      41.377 -15.853  -0.982  1.00  0.00     0.085 C 
BRANCH  30  31
HETATM   31  C   UNL     1      41.382 -14.376  -1.372  1.00  0.00     0.034 C 
BRANCH  31  32
HETATM   32  C   UNL     1      41.322 -14.159  -2.878  1.00  0.00     0.164 C 
BRANCH  32  33
HETATM   33  O   UNL     1      42.196 -15.075  -3.529  1.00  0.00    -0.401 OA
HETATM   34  H   UNL     1      42.453 -14.681  -4.381  1.00  0.00     0.209 HD
ENDBRANCH  32  33
ENDBRANCH  31  32
ENDBRANCH  30  31
ENDBRANCH   7  30
TORSDOF 7
ENDMDL
MODEL 10
REMARK VINA RESULT:      -6.4      3.653      6.951
REMARK  7 active torsions:
REMARK  status: ('A' for Active; 'I' for Inactive)
REMARK    1  A    between atoms: C_7  and  C_8 
REMARK    2  A    between atoms: C_8  and  C_9 
REMARK    3  A    between atoms: C_9  and  C_10 
REMARK    4  A    between atoms: C_10  and  O_11 
REMARK    5  A    between atoms: C_13  and  C_14 
REMARK    6  A    between atoms: C_21  and  C_22 
REMARK       I    between atoms: C_22  and  N_23 
REMARK    7  A    between atoms: N_23  and  C_24 
ROOT
HETATM    1  C   UNL     1      39.855 -13.930   4.829  1.00  0.00     0.070 C 
HETATM    2  C   UNL     1      41.020 -14.876   4.992  1.00  0.00     0.037 C 
HETATM    3  N   UNL     1      41.054 -15.579   6.191  1.00  0.00    -0.192 N 
HETATM    4  C   UNL     1      42.124 -16.287   6.600  1.00  0.00     0.726 A 
HETATM    5  N   UNL     1      43.188 -16.446   5.755  1.00  0.00    -0.083 N 
HETATM    6  N   UNL     1      44.193 -17.122   6.354  1.00  0.00    -0.140 NA
HETATM    7  C   UNL     1      43.648 -17.372   7.553  1.00  0.00     0.166 A 
HETATM    8  N   UNL     1      42.380 -16.872   7.741  1.00  0.00    -0.046 NA
HETATM    9  C   UNL     1      43.247 -15.898   4.396  1.00  0.00     0.202 C 
HETATM   10  C   UNL     1      42.033 -15.020   4.101  1.00  0.00     0.062 C 
HETATM   11  H   UNL     1      40.321 -15.391   6.872  1.00  0.00     0.184 HD
ENDROOT
BRANCH  10  12
HETATM   12  C   UNL     1      42.136 -14.269   2.821  1.00  0.00     0.256 C 
HETATM   13  N   UNL     1      41.209 -14.659   1.879  1.00  0.00    -0.323 N 
HETATM   14  H   UNL     1      40.579 -15.408   2.137  1.00  0.00     0.169 HD
HETATM   15  O   UNL     1      43.021 -13.433   2.699  1.00  0.00    -0.267 OA
BRANCH  13  16
HETATM   16  C   UNL     1      41.018 -14.111   0.594  1.00  0.00     0.035 A 
HETATM   17  C   UNL     1      40.440 -12.862   0.355  1.00  0.00     0.031 A 
HETATM   18  C   UNL     1      40.269 -12.395  -0.954  1.00  0.00     0.026 A 
HETATM   19  C   UNL     1      40.671 -13.181  -2.030  1.00  0.00     0.034 A 
HETATM   20 CL   UNL     1      40.450 -12.613  -3.638  1.00  0.00    -0.084 Cl
HETATM   21  C   UNL     1      41.251 -14.427  -1.809  1.00  0.00     0.026 A 
HETATM   22  C   UNL     1      41.429 -14.887  -0.500  1.00  0.00     0.031 A 
ENDBRANCH  13  16
ENDBRANCH  10  12
BRANCH   9  23
HETATM   23  C   UNL     1      43.409 -17.025   3.376  1.00  0.00    -0.028 A 
HETATM   24  C   UNL     1      43.997 -16.809   2.115  1.00  0.00     0.012 A 
HETATM   25  C   UNL     1      44.128 -17.859   1.207  1.00  0.00     0.043 A 
HETATM   26  C   UNL     1      43.682 -19.129   1.553  1.00  0.00     0.116 A 
HETATM   27  F   UNL     1      43.807 -20.134   0.677  1.00  0.00    -0.206 F 
HETATM   28  C   UNL     1      43.108 -19.371   2.794  1.00  0.00     0.043 A 
HETATM   29  C   UNL     1      42.975 -18.323   3.707  1.00  0.00     0.012 A 
ENDBRANCH   9  23
BRANCH   7  30
HETATM   30  C   UNL     1      44.357 -18.147   8.603  1.00  0.00     0.085 C 
BRANCH  30  31
HETATM   31  C   UNL     1      44.299 -19.657   8.381  1.00  0.00     0.034 C 
BRANCH  31  32
HETATM   32  C   UNL     1      43.643 -20.038   7.060  1.00  0.00     0.164 C 
BRANCH  32  33
HETATM   33  O   UNL     1      43.566 -21.456   6.957  1.00  0.00    -0.401 OA
HETATM   34  H   UNL     1      42.724 -21.673   6.520  1.00  0.00     0.209 HD
ENDBRANCH  32  33
ENDBRANCH  31  32
ENDBRANCH  30  31
ENDBRANCH   7  30
TORSDOF 7
ENDMDL
