MODEL 1
REMARK VINA RESULT:      -8.9      0.000      0.000
REMARK  5 active torsions:
REMARK  status: ('A' for Active; 'I' for Inactive)
REMARK    1  A    between atoms: C_2  and  O_3 
REMARK    2  A    between atoms: O_3  and  C_4 
REMARK    3  A    between atoms: C_8  and  C_9 
REMARK    4  A    between atoms: C_9  and  N_10 
REMARK       I    between atoms: N_10  and  C_11 
REMARK       I    between atoms: C_11  and  N_12 
REMARK    5  A    between atoms: N_12  and  C_13 
ROOT
HETATM    1  N   UNL     1      44.224 -13.488   8.437  1.00  0.00    -0.339 N 
HETATM    2  C   UNL     1      44.577 -14.274   7.369  1.00  0.00     0.316 C 
HETATM    3  N   UNL     1      43.873 -15.457   7.348  1.00  0.00    -0.337 N 
HETATM    4  O   UNL     1      45.425 -13.962   6.543  1.00  0.00    -0.247 OA
HETATM    5  H   UNL     1      43.835 -13.955   9.242  1.00  0.00     0.164 HD
HETATM    6  H   UNL     1      42.963 -15.427   7.784  1.00  0.00     0.164 HD
ENDROOT
BRANCH   1   7
HETATM    7  C   UNL     1      44.857 -12.205   8.657  1.00  0.00     0.163 C 
BRANCH   7   8
HETATM    8  C   UNL     1      44.155 -11.350   9.681  1.00  0.00    -0.035 A 
HETATM    9  C   UNL     1      44.767 -10.939  10.868  1.00  0.00     0.028 A 
HETATM   10  C   UNL     1      44.062 -10.114  11.732  1.00  0.00     0.120 A 
HETATM   11  N   UNL     1      42.814  -9.662  11.493  1.00  0.00    -0.237 NA
HETATM   12  C   UNL     1      42.249 -10.033  10.332  1.00  0.00     0.165 A 
HETATM   13  C   UNL     1      42.871 -10.862   9.409  1.00  0.00     0.066 A 
BRANCH  12  14
HETATM   14  O   UNL     1      41.006  -9.568   9.970  1.00  0.00    -0.324 OA
BRANCH  14  15
HETATM   15  C   UNL     1      39.827 -10.337  10.269  1.00  0.00     0.058 C 
HETATM   16  C   UNL     1      40.001 -11.276  11.473  1.00  0.00     0.045 C 
HETATM   17  C   UNL     1      39.286 -11.067   9.033  1.00  0.00     0.045 C 
HETATM   18  C   UNL     1      38.790  -9.269  10.671  1.00  0.00     0.045 C 
ENDBRANCH  14  15
ENDBRANCH  12  14
ENDBRANCH   7   8
ENDBRANCH   1   7
BRANCH   3  19
HETATM   19  C   UNL     1      44.050 -16.389   6.270  1.00  0.00     0.100 A 
HETATM   20  C   UNL     1      42.901 -17.231   5.764  1.00  0.00     0.049 A 
HETATM   21  C   UNL     1      44.032 -17.870   6.556  1.00  0.00     0.024 A 
HETATM   22  C   UNL     1      42.982 -17.877   4.416  1.00  0.00    -0.045 A 
HETATM   23  C   UNL     1      44.786 -18.858   5.680  1.00  0.00     0.046 A 
HETATM   24  C   UNL     1      44.046 -18.799   4.363  1.00  0.00    -0.051 A 
HETATM   25  C   UNL     1      44.334 -19.516   3.212  1.00  0.00     0.007 A 
HETATM   26  C   UNL     1      43.537 -19.304   2.086  1.00  0.00     0.001 A 
HETATM   27  C   UNL     1      42.475 -18.388   2.125  1.00  0.00     0.001 A 
HETATM   28  C   UNL     1      42.195 -17.670   3.291  1.00  0.00     0.008 A 
ENDBRANCH   3  19
TORSDOF 5
ENDMDL
MODEL 2
REMARK VINA RESULT:      -8.6      6.782      8.947
REMARK  5 active torsions:
REMARK  status: ('A' for Active; 'I' for Inactive)
REMARK    1  A    between atoms: C_2  and  O_3 
REMARK    2  A    between atoms: O_3  and  C_4 
REMARK    3  A    between atoms: C_8  and  C_9 
REMARK    4  A    between atoms: C_9  and  N_10 
REMARK       I    between atoms: N_10  and  C_11 
REMARK       I    between atoms: C_11  and  N_12 
REMARK    5  A    between atoms: N_12  and  C_13 
ROOT
HETATM    1  N   UNL     1      40.633 -15.050   3.395  1.00  0.00    -0.339 N 
HETATM    2  C   UNL     1      40.941 -16.336   3.031  1.00  0.00     0.316 C 
HETATM    3  N   UNL     1      42.101 -16.774   3.630  1.00  0.00    -0.337 N 
HETATM    4  O   UNL     1      40.269 -17.007   2.259  1.00  0.00    -0.247 OA
HETATM    5  H   UNL     1      41.394 -14.463   3.699  1.00  0.00     0.164 HD
HETATM    6  H   UNL     1      42.321 -16.341   4.516  1.00  0.00     0.164 HD
ENDROOT
BRANCH   1   7
HETATM    7  C   UNL     1      39.459 -14.389   2.865  1.00  0.00     0.163 C 
BRANCH   7   8
HETATM    8  C   UNL     1      39.722 -13.599   1.608  1.00  0.00    -0.035 A 
HETATM    9  C   UNL     1      40.436 -12.398   1.607  1.00  0.00     0.028 A 
HETATM   10  C   UNL     1      40.671 -11.762   0.397  1.00  0.00     0.120 A 
HETATM   11  N   UNL     1      40.266 -12.239  -0.798  1.00  0.00    -0.237 NA
HETATM   12  C   UNL     1      39.613 -13.413  -0.789  1.00  0.00     0.165 A 
HETATM   13  C   UNL     1      39.323 -14.119   0.371  1.00  0.00     0.066 A 
BRANCH  12  14
HETATM   14  O   UNL     1      39.220 -14.012  -1.964  1.00  0.00    -0.324 OA
BRANCH  14  15
HETATM   15  C   UNL     1      40.181 -14.697  -2.787  1.00  0.00     0.058 C 
HETATM   16  C   UNL     1      41.082 -15.660  -1.999  1.00  0.00     0.045 C 
HETATM   17  C   UNL     1      40.986 -13.727  -3.662  1.00  0.00     0.045 C 
HETATM   18  C   UNL     1      39.307 -15.555  -3.725  1.00  0.00     0.045 C 
ENDBRANCH  14  15
ENDBRANCH  12  14
ENDBRANCH   7   8
ENDBRANCH   1   7
BRANCH   3  19
HETATM   19  C   UNL     1      42.559 -18.120   3.431  1.00  0.00     0.100 A 
HETATM   20  C   UNL     1      43.961 -18.538   3.813  1.00  0.00     0.049 A 
HETATM   21  C   UNL     1      43.568 -18.410   2.349  1.00  0.00     0.024 A 
HETATM   22  C   UNL     1      44.291 -19.987   3.984  1.00  0.00    -0.045 A 
HETATM   23  C   UNL     1      43.640 -19.771   1.673  1.00  0.00     0.046 A 
HETATM   24  C   UNL     1      44.112 -20.689   2.776  1.00  0.00    -0.051 A 
HETATM   25  C   UNL     1      44.342 -22.054   2.684  1.00  0.00     0.007 A 
HETATM   26  C   UNL     1      44.760 -22.731   3.830  1.00  0.00     0.001 A 
HETATM   27  C   UNL     1      44.941 -22.044   5.040  1.00  0.00     0.001 A 
HETATM   28  C   UNL     1      44.706 -20.668   5.120  1.00  0.00     0.008 A 
ENDBRANCH   3  19
TORSDOF 5
ENDMDL
MODEL 3
REMARK VINA RESULT:      -8.3      7.409      9.017
REMARK  5 active torsions:
REMARK  status: ('A' for Active; 'I' for Inactive)
REMARK    1  A    between atoms: C_2  and  O_3 
REMARK    2  A    between atoms: O_3  and  C_4 
REMARK    3  A    between atoms: C_8  and  C_9 
REMARK    4  A    between atoms: C_9  and  N_10 
REMARK       I    between atoms: N_10  and  C_11 
REMARK       I    between atoms: C_11  and  N_12 
REMARK    5  A    between atoms: N_12  and  C_13 
ROOT
HETATM    1  N   UNL     1      41.058 -15.064   2.287  1.00  0.00    -0.339 N 
HETATM    2  C   UNL     1      41.370 -16.389   2.119  1.00  0.00     0.316 C 
HETATM    3  N   UNL     1      42.317 -16.811   3.025  1.00  0.00    -0.337 N 
HETATM    4  O   UNL     1      40.872 -17.105   1.260  1.00  0.00    -0.247 OA
HETATM    5  H   UNL     1      41.754 -14.480   2.725  1.00  0.00     0.164 HD
HETATM    6  H   UNL     1      42.336 -16.305   3.899  1.00  0.00     0.164 HD
ENDROOT
BRANCH   1   7
HETATM    7  C   UNL     1      40.094 -14.413   1.426  1.00  0.00     0.163 C 
BRANCH   7   8
HETATM    8  C   UNL     1      40.655 -13.999   0.089  1.00  0.00    -0.035 A 
HETATM    9  C   UNL     1      40.149 -14.477  -1.122  1.00  0.00     0.028 A 
HETATM   10  C   UNL     1      40.697 -14.006  -2.306  1.00  0.00     0.120 A 
HETATM   11  N   UNL     1      41.688 -13.094  -2.369  1.00  0.00    -0.237 NA
HETATM   12  C   UNL     1      42.143 -12.614  -1.200  1.00  0.00     0.165 A 
HETATM   13  C   UNL     1      41.664 -13.030   0.036  1.00  0.00     0.066 A 
BRANCH  12  14
HETATM   14  O   UNL     1      43.105 -11.632  -1.164  1.00  0.00    -0.324 OA
BRANCH  14  15
HETATM   15  C   UNL     1      42.783 -10.285  -1.554  1.00  0.00     0.058 C 
HETATM   16  C   UNL     1      41.506  -9.748  -0.890  1.00  0.00     0.045 C 
HETATM   17  C   UNL     1      42.765 -10.114  -3.079  1.00  0.00     0.045 C 
HETATM   18  C   UNL     1      43.964  -9.458  -1.006  1.00  0.00     0.045 C 
ENDBRANCH  14  15
ENDBRANCH  12  14
ENDBRANCH   7   8
ENDBRANCH   1   7
BRANCH   3  19
HETATM   19  C   UNL     1      42.730 -18.186   3.059  1.00  0.00     0.100 A 
HETATM   20  C   UNL     1      44.080 -18.588   3.607  1.00  0.00     0.049 A 
HETATM   21  C   UNL     1      43.803 -18.664   2.113  1.00  0.00     0.024 A 
HETATM   22  C   UNL     1      44.333 -20.007   4.011  1.00  0.00    -0.045 A 
HETATM   23  C   UNL     1      43.865 -20.111   1.648  1.00  0.00     0.046 A 
HETATM   24  C   UNL     1      44.214 -20.872   2.906  1.00  0.00    -0.051 A 
HETATM   25  C   UNL     1      44.391 -22.242   3.030  1.00  0.00     0.007 A 
HETATM   26  C   UNL     1      44.692 -22.758   4.291  1.00  0.00     0.001 A 
HETATM   27  C   UNL     1      44.813 -21.906   5.400  1.00  0.00     0.001 A 
HETATM   28  C   UNL     1      44.632 -20.527   5.263  1.00  0.00     0.008 A 
ENDBRANCH   3  19
TORSDOF 5
ENDMDL
MODEL 4
REMARK VINA RESULT:      -8.3      1.811      2.925
REMARK  5 active torsions:
REMARK  status: ('A' for Active; 'I' for Inactive)
REMARK    1  A    between atoms: C_2  and  O_3 
REMARK    2  A    between atoms: O_3  and  C_4 
REMARK    3  A    between atoms: C_8  and  C_9 
REMARK    4  A    between atoms: C_9  and  N_10 
REMARK       I    between atoms: N_10  and  C_11 
REMARK       I    between atoms: C_11  and  N_12 
REMARK    5  A    between atoms: N_12  and  C_13 
ROOT
HETATM    1  N   UNL     1      41.474 -13.206   6.401  1.00  0.00    -0.339 N 
HETATM    2  C   UNL     1      42.342 -14.107   5.838  1.00  0.00     0.316 C 
HETATM    3  N   UNL     1      42.053 -15.399   6.213  1.00  0.00    -0.337 N 
HETATM    4  O   UNL     1      43.267 -13.795   5.099  1.00  0.00    -0.247 OA
HETATM    5  H   UNL     1      41.017 -13.481   7.257  1.00  0.00     0.164 HD
HETATM    6  H   UNL     1      41.086 -15.577   6.448  1.00  0.00     0.164 HD
ENDROOT
BRANCH   1   7
HETATM    7  C   UNL     1      41.610 -11.787   6.149  1.00  0.00     0.163 C 
BRANCH   7   8
HETATM    8  C   UNL     1      41.276 -10.924   7.340  1.00  0.00    -0.035 A 
HETATM    9  C   UNL     1      40.007 -10.375   7.541  1.00  0.00     0.028 A 
HETATM   10  C   UNL     1      39.776  -9.632   8.689  1.00  0.00     0.120 A 
HETATM   11  N   UNL     1      40.702  -9.413   9.646  1.00  0.00    -0.237 NA
HETATM   12  C   UNL     1      41.907  -9.976   9.460  1.00  0.00     0.165 A 
HETATM   13  C   UNL     1      42.235 -10.729   8.340  1.00  0.00     0.066 A 
BRANCH  12  14
HETATM   14  O   UNL     1      42.894  -9.865  10.412  1.00  0.00    -0.324 OA
BRANCH  14  15
HETATM   15  C   UNL     1      42.960 -10.801  11.502  1.00  0.00     0.058 C 
HETATM   16  C   UNL     1      43.924 -11.969  11.246  1.00  0.00     0.045 C 
HETATM   17  C   UNL     1      41.567 -11.278  11.938  1.00  0.00     0.045 C 
HETATM   18  C   UNL     1      43.550  -9.968  12.659  1.00  0.00     0.045 C 
ENDBRANCH  14  15
ENDBRANCH  12  14
ENDBRANCH   7   8
ENDBRANCH   1   7
BRANCH   3  19
HETATM   19  C   UNL     1      42.805 -16.499   5.676  1.00  0.00     0.100 A 
HETATM   20  C   UNL     1      42.125 -17.636   4.951  1.00  0.00     0.049 A 
HETATM   21  C   UNL     1      42.718 -17.852   6.334  1.00  0.00     0.024 A 
HETATM   22  C   UNL     1      42.920 -18.540   4.060  1.00  0.00    -0.045 A 
HETATM   23  C   UNL     1      43.865 -18.849   6.258  1.00  0.00     0.046 A 
HETATM   24  C   UNL     1      43.904 -19.230   4.796  1.00  0.00    -0.051 A 
HETATM   25  C   UNL     1      44.779 -20.118   4.189  1.00  0.00     0.007 A 
HETATM   26  C   UNL     1      44.665 -20.320   2.812  1.00  0.00     0.001 A 
HETATM   27  C   UNL     1      43.689 -19.640   2.069  1.00  0.00     0.001 A 
HETATM   28  C   UNL     1      42.813 -18.745   2.692  1.00  0.00     0.008 A 
ENDBRANCH   3  19
TORSDOF 5
ENDMDL
MODEL 5
REMARK VINA RESULT:      -8.2      6.094      7.705
REMARK  5 active torsions:
REMARK  status: ('A' for Active; 'I' for Inactive)
REMARK    1  A    between atoms: C_2  and  O_3 
REMARK    2  A    between atoms: O_3  and  C_4 
REMARK    3  A    between atoms: C_8  and  C_9 
REMARK    4  A    between atoms: C_9  and  N_10 
REMARK       I    between atoms: N_10  and  C_11 
REMARK       I    between atoms: C_11  and  N_12 
REMARK    5  A    between atoms: N_12  and  C_13 
ROOT
HETATM    1  N   UNL     1      40.909 -14.810   3.982  1.00  0.00    -0.339 N 
HETATM    2  C   UNL     1      41.186 -16.051   3.464  1.00  0.00     0.316 C 
HETATM    3  N   UNL     1      42.263 -16.637   4.089  1.00  0.00    -0.337 N 
HETATM    4  O   UNL     1      40.555 -16.566   2.550  1.00  0.00    -0.247 OA
HETATM    5  H   UNL     1      41.667 -14.319   4.429  1.00  0.00     0.164 HD
HETATM    6  H   UNL     1      42.423 -16.346   5.043  1.00  0.00     0.164 HD
ENDROOT
BRANCH   1   7
HETATM    7  C   UNL     1      39.822 -14.012   3.456  1.00  0.00     0.163 C 
BRANCH   7   8
HETATM    8  C   UNL     1      40.276 -12.765   2.740  1.00  0.00    -0.035 A 
HETATM    9  C   UNL     1      39.862 -11.485   3.119  1.00  0.00     0.028 A 
HETATM   10  C   UNL     1      40.367 -10.391   2.432  1.00  0.00     0.120 A 
HETATM   11  N   UNL     1      41.254 -10.478   1.421  1.00  0.00    -0.237 NA
HETATM   12  C   UNL     1      41.674 -11.710   1.089  1.00  0.00     0.165 A 
HETATM   13  C   UNL     1      41.220 -12.866   1.711  1.00  0.00     0.066 A 
BRANCH  12  14
HETATM   14  O   UNL     1      42.628 -11.895   0.116  1.00  0.00    -0.324 OA
BRANCH  14  15
HETATM   15  C   UNL     1      42.313 -11.646  -1.266  1.00  0.00     0.058 C 
HETATM   16  C   UNL     1      40.840 -11.277  -1.498  1.00  0.00     0.045 C 
HETATM   17  C   UNL     1      42.780 -12.788  -2.179  1.00  0.00     0.045 C 
HETATM   18  C   UNL     1      43.155 -10.401  -1.610  1.00  0.00     0.045 C 
ENDBRANCH  14  15
ENDBRANCH  12  14
ENDBRANCH   7   8
ENDBRANCH   1   7
BRANCH   3  19
HETATM   19  C   UNL     1      42.672 -17.968   3.737  1.00  0.00     0.100 A 
HETATM   20  C   UNL     1      44.053 -18.481   4.075  1.00  0.00     0.049 A 
HETATM   21  C   UNL     1      43.679 -18.171   2.634  1.00  0.00     0.024 A 
HETATM   22  C   UNL     1      44.326 -19.953   4.079  1.00  0.00    -0.045 A 
HETATM   23  C   UNL     1      43.705 -19.446   1.805  1.00  0.00     0.046 A 
HETATM   24  C   UNL     1      44.132 -20.503   2.797  1.00  0.00    -0.051 A 
HETATM   25  C   UNL     1      44.310 -21.856   2.549  1.00  0.00     0.007 A 
HETATM   26  C   UNL     1      44.692 -22.677   3.611  1.00  0.00     0.001 A 
HETATM   27  C   UNL     1      44.888 -22.141   4.893  1.00  0.00     0.001 A 
HETATM   28  C   UNL     1      44.704 -20.775   5.131  1.00  0.00     0.008 A 
ENDBRANCH   3  19
TORSDOF 5
ENDMDL
MODEL 6
REMARK VINA RESULT:      -8.2      2.060      9.901
REMARK  5 active torsions:
REMARK  status: ('A' for Active; 'I' for Inactive)
REMARK    1  A    between atoms: C_2  and  O_3 
REMARK    2  A    between atoms: O_3  and  C_4 
REMARK    3  A    between atoms: C_8  and  C_9 
REMARK    4  A    between atoms: C_9  and  N_10 
REMARK       I    between atoms: N_10  and  C_11 
REMARK       I    between atoms: C_11  and  N_12 
REMARK    5  A    between atoms: N_12  and  C_13 
ROOT
HETATM    1  N   UNL     1      43.581 -13.320   7.120  1.00  0.00    -0.339 N 
HETATM    2  C   UNL     1      43.735 -12.438   8.159  1.00  0.00     0.316 C 
HETATM    3  N   UNL     1      42.734 -11.492   8.180  1.00  0.00    -0.337 N 
HETATM    4  O   UNL     1      44.657 -12.483   8.963  1.00  0.00    -0.247 OA
HETATM    5  H   UNL     1      43.057 -13.001   6.319  1.00  0.00     0.164 HD
HETATM    6  H   UNL     1      41.855 -11.782   7.776  1.00  0.00     0.164 HD
ENDROOT
BRANCH   1   7
HETATM    7  C   UNL     1      44.535 -14.388   6.904  1.00  0.00     0.163 C 
BRANCH   7   8
HETATM    8  C   UNL     1      43.897 -15.729   6.645  1.00  0.00    -0.035 A 
HETATM    9  C   UNL     1      43.619 -16.642   7.666  1.00  0.00     0.028 A 
HETATM   10  C   UNL     1      42.988 -17.834   7.341  1.00  0.00     0.120 A 
HETATM   11  N   UNL     1      42.604 -18.169   6.092  1.00  0.00    -0.237 NA
HETATM   12  C   UNL     1      42.843 -17.268   5.125  1.00  0.00     0.165 A 
HETATM   13  C   UNL     1      43.476 -16.053   5.350  1.00  0.00     0.066 A 
BRANCH  12  14
HETATM   14  O   UNL     1      42.427 -17.491   3.833  1.00  0.00    -0.324 OA
BRANCH  14  15
HETATM   15  C   UNL     1      43.325 -18.076   2.872  1.00  0.00     0.058 C 
HETATM   16  C   UNL     1      44.313 -19.077   3.491  1.00  0.00     0.045 C 
HETATM   17  C   UNL     1      44.030 -17.012   2.019  1.00  0.00     0.045 C 
HETATM   18  C   UNL     1      42.390 -18.874   1.941  1.00  0.00     0.045 C 
ENDBRANCH  14  15
ENDBRANCH  12  14
ENDBRANCH   7   8
ENDBRANCH   1   7
BRANCH   3  19
HETATM   19  C   UNL     1      42.677 -10.517   9.232  1.00  0.00     0.100 A 
HETATM   20  C   UNL     1      42.112 -10.858  10.592  1.00  0.00     0.049 A 
HETATM   21  C   UNL     1      41.345  -9.945   9.647  1.00  0.00     0.024 A 
HETATM   22  C   UNL     1      42.423  -9.994  11.773  1.00  0.00    -0.045 A 
HETATM   23  C   UNL     1      41.230  -8.554  10.250  1.00  0.00     0.046 A 
HETATM   24  C   UNL     1      41.925  -8.689  11.585  1.00  0.00    -0.051 A 
HETATM   25  C   UNL     1      42.101  -7.697  12.538  1.00  0.00     0.007 A 
HETATM   26  C   UNL     1      42.793  -8.019  13.707  1.00  0.00     0.001 A 
HETATM   27  C   UNL     1      43.294  -9.315  13.905  1.00  0.00     0.001 A 
HETATM   28  C   UNL     1      43.111 -10.307  12.937  1.00  0.00     0.008 A 
ENDBRANCH   3  19
TORSDOF 5
ENDMDL
MODEL 7
REMARK VINA RESULT:      -7.7      6.842     10.239
REMARK  5 active torsions:
REMARK  status: ('A' for Active; 'I' for Inactive)
REMARK    1  A    between atoms: C_2  and  O_3 
REMARK    2  A    between atoms: O_3  and  C_4 
REMARK    3  A    between atoms: C_8  and  C_9 
REMARK    4  A    between atoms: C_9  and  N_10 
REMARK       I    between atoms: N_10  and  C_11 
REMARK       I    between atoms: C_11  and  N_12 
REMARK    5  A    between atoms: N_12  and  C_13 
ROOT
HETATM    1  N   UNL     1      41.356 -16.230  -0.386  1.00  0.00    -0.339 N 
HETATM    2  C   UNL     1      41.341 -14.862  -0.483  1.00  0.00     0.316 C 
HETATM    3  N   UNL     1      41.871 -14.428  -1.678  1.00  0.00    -0.337 N 
HETATM    4  O   UNL     1      40.918 -14.119   0.393  1.00  0.00    -0.247 OA
HETATM    5  H   UNL     1      42.040 -16.723  -0.939  1.00  0.00     0.164 HD
HETATM    6  H   UNL     1      41.790 -15.076  -2.448  1.00  0.00     0.164 HD
ENDROOT
BRANCH   1   7
HETATM    7  C   UNL     1      40.859 -16.896   0.800  1.00  0.00     0.163 C 
BRANCH   7   8
HETATM    8  C   UNL     1      41.947 -17.432   1.696  1.00  0.00    -0.035 A 
HETATM    9  C   UNL     1      43.248 -17.665   1.245  1.00  0.00     0.028 A 
HETATM   10  C   UNL     1      44.197 -18.116   2.151  1.00  0.00     0.120 A 
HETATM   11  N   UNL     1      43.949 -18.332   3.459  1.00  0.00    -0.237 NA
HETATM   12  C   UNL     1      42.704 -18.070   3.889  1.00  0.00     0.165 A 
HETATM   13  C   UNL     1      41.685 -17.624   3.058  1.00  0.00     0.066 A 
BRANCH  12  14
HETATM   14  O   UNL     1      42.373 -18.196   5.219  1.00  0.00    -0.324 OA
BRANCH  14  15
HETATM   15  C   UNL     1      42.260 -17.029   6.053  1.00  0.00     0.058 C 
HETATM   16  C   UNL     1      40.811 -16.556   6.245  1.00  0.00     0.045 C 
HETATM   17  C   UNL     1      43.187 -15.897   5.590  1.00  0.00     0.045 C 
HETATM   18  C   UNL     1      42.767 -17.515   7.426  1.00  0.00     0.045 C 
ENDBRANCH  14  15
ENDBRANCH  12  14
ENDBRANCH   7   8
ENDBRANCH   1   7
BRANCH   3  19
HETATM   19  C   UNL     1      41.884 -13.029  -2.002  1.00  0.00     0.100 A 
HETATM   20  C   UNL     1      42.812 -12.476  -3.060  1.00  0.00     0.049 A 
HETATM   21  C   UNL     1      43.060 -12.180  -1.589  1.00  0.00     0.024 A 
HETATM   22  C   UNL     1      42.541 -11.136  -3.668  1.00  0.00    -0.045 A 
HETATM   23  C   UNL     1      42.911 -10.689  -1.327  1.00  0.00     0.046 A 
HETATM   24  C   UNL     1      42.598 -10.121  -2.692  1.00  0.00    -0.051 A 
HETATM   25  C   UNL     1      42.367  -8.791  -3.009  1.00  0.00     0.007 A 
HETATM   26  C   UNL     1      42.073  -8.469  -4.335  1.00  0.00     0.001 A 
HETATM   27  C   UNL     1      42.014  -9.471  -5.316  1.00  0.00     0.001 A 
HETATM   28  C   UNL     1      42.247 -10.809  -4.984  1.00  0.00     0.008 A 
ENDBRANCH   3  19
TORSDOF 5
ENDMDL
MODEL 8
REMARK VINA RESULT:      -7.7      4.152      6.187
REMARK  5 active torsions:
REMARK  status: ('A' for Active; 'I' for Inactive)
REMARK    1  A    between atoms: C_2  and  O_3 
REMARK    2  A    between atoms: O_3  and  C_4 
REMARK    3  A    between atoms: C_8  and  C_9 
REMARK    4  A    between atoms: C_9  and  N_10 
REMARK       I    between atoms: N_10  and  C_11 
REMARK       I    between atoms: C_11  and  N_12 
REMARK    5  A    between atoms: N_12  and  C_13 
ROOT
HETATM    1  N   UNL     1      42.292 -13.673   5.996  1.00  0.00    -0.339 N 
HETATM    2  C   UNL     1      42.915 -14.695   5.327  1.00  0.00     0.316 C 
HETATM    3  N   UNL     1      42.954 -15.849   6.077  1.00  0.00    -0.337 N 
HETATM    4  O   UNL     1      43.389 -14.588   4.203  1.00  0.00    -0.247 OA
HETATM    5  H   UNL     1      42.285 -13.720   7.003  1.00  0.00     0.164 HD
HETATM    6  H   UNL     1      42.211 -15.952   6.753  1.00  0.00     0.164 HD
ENDROOT
BRANCH   1   7
HETATM    7  C   UNL     1      42.157 -12.364   5.393  1.00  0.00     0.163 C 
BRANCH   7   8
HETATM    8  C   UNL     1      40.874 -12.180   4.622  1.00  0.00    -0.035 A 
HETATM    9  C   UNL     1      39.744 -11.571   5.172  1.00  0.00     0.028 A 
HETATM   10  C   UNL     1      38.622 -11.401   4.374  1.00  0.00     0.120 A 
HETATM   11  N   UNL     1      38.553 -11.775   3.080  1.00  0.00    -0.237 NA
HETATM   12  C   UNL     1      39.657 -12.326   2.551  1.00  0.00     0.165 A 
HETATM   13  C   UNL     1      40.824 -12.545   3.271  1.00  0.00     0.066 A 
BRANCH  12  14
HETATM   14  O   UNL     1      39.705 -12.678   1.222  1.00  0.00    -0.324 OA
BRANCH  14  15
HETATM   15  C   UNL     1      39.511 -14.048   0.826  1.00  0.00     0.058 C 
HETATM   16  C   UNL     1      38.938 -14.931   1.946  1.00  0.00     0.045 C 
HETATM   17  C   UNL     1      40.773 -14.651   0.194  1.00  0.00     0.045 C 
HETATM   18  C   UNL     1      38.436 -13.957  -0.277  1.00  0.00     0.045 C 
ENDBRANCH  14  15
ENDBRANCH  12  14
ENDBRANCH   7   8
ENDBRANCH   1   7
BRANCH   3  19
HETATM   19  C   UNL     1      43.506 -17.056   5.527  1.00  0.00     0.100 A 
HETATM   20  C   UNL     1      42.644 -18.046   4.780  1.00  0.00     0.049 A 
HETATM   21  C   UNL     1      43.178 -18.383   6.164  1.00  0.00     0.024 A 
HETATM   22  C   UNL     1      43.275 -19.063   3.881  1.00  0.00    -0.045 A 
HETATM   23  C   UNL     1      44.132 -19.563   6.078  1.00  0.00     0.046 A 
HETATM   24  C   UNL     1      44.117 -19.925   4.611  1.00  0.00    -0.051 A 
HETATM   25  C   UNL     1      44.828 -20.944   3.995  1.00  0.00     0.007 A 
HETATM   26  C   UNL     1      44.692 -21.104   2.616  1.00  0.00     0.001 A 
HETATM   27  C   UNL     1      43.857 -20.252   1.877  1.00  0.00     0.001 A 
HETATM   28  C   UNL     1      43.146 -19.226   2.509  1.00  0.00     0.008 A 
ENDBRANCH   3  19
TORSDOF 5
ENDMDL
MODEL 9
REMARK VINA RESULT:      -7.7      6.136     10.103
REMARK  5 active torsions:
REMARK  status: ('A' for Active; 'I' for Inactive)
REMARK    1  A    between atoms: C_2  and  O_3 
REMARK    2  A    between atoms: O_3  and  C_4 
REMARK    3  A    between atoms: C_8  and  C_9 
REMARK    4  A    between atoms: C_9  and  N_10 
REMARK       I    between atoms: N_10  and  C_11 
REMARK       I    between atoms: C_11  and  N_12 
REMARK    5  A    between atoms: N_12  and  C_13 
ROOT
HETATM    1  N   UNL     1      42.684 -16.224   0.643  1.00  0.00    -0.339 N 
HETATM    2  C   UNL     1      41.789 -15.283   0.201  1.00  0.00     0.316 C 
HETATM    3  N   UNL     1      41.314 -15.579  -1.057  1.00  0.00    -0.337 N 
HETATM    4  O   UNL     1      41.464 -14.294   0.845  1.00  0.00    -0.247 OA
HETATM    5  H   UNL     1      43.171 -16.760  -0.059  1.00  0.00     0.164 HD
HETATM    6  H   UNL     1      41.307 -16.560  -1.297  1.00  0.00     0.164 HD
ENDROOT
BRANCH   1   7
HETATM    7  C   UNL     1      43.318 -16.096   1.937  1.00  0.00     0.163 C 
BRANCH   7   8
HETATM    8  C   UNL     1      43.486 -17.406   2.664  1.00  0.00    -0.035 A 
HETATM    9  C   UNL     1      44.128 -18.508   2.095  1.00  0.00     0.028 A 
HETATM   10  C   UNL     1      44.278 -19.659   2.854  1.00  0.00     0.120 A 
HETATM   11  N   UNL     1      43.854 -19.784   4.128  1.00  0.00    -0.237 NA
HETATM   12  C   UNL     1      43.271 -18.706   4.679  1.00  0.00     0.165 A 
HETATM   13  C   UNL     1      43.069 -17.514   3.996  1.00  0.00     0.066 A 
BRANCH  12  14
HETATM   14  O   UNL     1      42.867 -18.715   5.993  1.00  0.00    -0.324 OA
BRANCH  14  15
HETATM   15  C   UNL     1      43.813 -18.457   7.046  1.00  0.00     0.058 C 
HETATM   16  C   UNL     1      43.323 -17.419   8.066  1.00  0.00     0.045 C 
HETATM   17  C   UNL     1      45.208 -18.126   6.499  1.00  0.00     0.045 C 
HETATM   18  C   UNL     1      43.911 -19.809   7.783  1.00  0.00     0.045 C 
ENDBRANCH  14  15
ENDBRANCH  12  14
ENDBRANCH   7   8
ENDBRANCH   1   7
BRANCH   3  19
HETATM   19  C   UNL     1      40.314 -14.750  -1.670  1.00  0.00     0.100 A 
HETATM   20  C   UNL     1      39.855 -14.993  -3.090  1.00  0.00     0.049 A 
HETATM   21  C   UNL     1      40.712 -13.782  -2.755  1.00  0.00     0.024 A 
HETATM   22  C   UNL     1      38.562 -14.411  -3.570  1.00  0.00    -0.045 A 
HETATM   23  C   UNL     1      39.927 -12.504  -3.007  1.00  0.00     0.046 A 
HETATM   24  C   UNL     1      38.598 -13.003  -3.527  1.00  0.00    -0.051 A 
HETATM   25  C   UNL     1      37.510 -12.233  -3.910  1.00  0.00     0.007 A 
HETATM   26  C   UNL     1      36.358 -12.889  -4.346  1.00  0.00     0.001 A 
HETATM   27  C   UNL     1      36.310 -14.291  -4.393  1.00  0.00     0.001 A 
HETATM   28  C   UNL     1      37.413 -15.057  -4.004  1.00  0.00     0.008 A 
ENDBRANCH   3  19
TORSDOF 5
ENDMDL
MODEL 10
REMARK VINA RESULT:      -7.7      2.393      3.070
REMARK  5 active torsions:
REMARK  status: ('A' for Active; 'I' for Inactive)
REMARK    1  A    between atoms: C_2  and  O_3 
REMARK    2  A    between atoms: O_3  and  C_4 
REMARK    3  A    between atoms: C_8  and  C_9 
REMARK    4  A    between atoms: C_9  and  N_10 
REMARK       I    between atoms: N_10  and  C_11 
REMARK       I    between atoms: C_11  and  N_12 
REMARK    5  A    between atoms: N_12  and  C_13 
ROOT
HETATM    1  N   UNL     1      41.839 -13.587   6.035  1.00  0.00    -0.339 N 
HETATM    2  C   UNL     1      42.387 -14.607   5.299  1.00  0.00     0.316 C 
HETATM    3  N   UNL     1      42.989 -15.551   6.101  1.00  0.00    -0.337 N 
HETATM    4  O   UNL     1      42.353 -14.663   4.077  1.00  0.00    -0.247 OA
HETATM    5  H   UNL     1      42.229 -13.419   6.949  1.00  0.00     0.164 HD
HETATM    6  H   UNL     1      42.609 -15.632   7.034  1.00  0.00     0.164 HD
ENDROOT
BRANCH   1   7
HETATM    7  C   UNL     1      41.171 -12.479   5.385  1.00  0.00     0.163 C 
BRANCH   7   8
HETATM    8  C   UNL     1      41.400 -11.151   6.062  1.00  0.00    -0.035 A 
HETATM    9  C   UNL     1      41.333  -9.935   5.378  1.00  0.00     0.028 A 
HETATM   10  C   UNL     1      41.511  -8.758   6.091  1.00  0.00     0.120 A 
HETATM   11  N   UNL     1      41.733  -8.707   7.420  1.00  0.00    -0.237 NA
HETATM   12  C   UNL     1      41.759  -9.880   8.074  1.00  0.00     0.165 A 
HETATM   13  C   UNL     1      41.599 -11.109   7.447  1.00  0.00     0.066 A 
BRANCH  12  14
HETATM   14  O   UNL     1      41.911  -9.925   9.440  1.00  0.00    -0.324 OA
BRANCH  14  15
HETATM   15  C   UNL     1      40.775  -9.746  10.304  1.00  0.00     0.058 C 
HETATM   16  C   UNL     1      39.436  -9.714   9.551  1.00  0.00     0.045 C 
HETATM   17  C   UNL     1      40.947  -8.544  11.242  1.00  0.00     0.045 C 
HETATM   18  C   UNL     1      40.777 -11.020  11.174  1.00  0.00     0.045 C 
ENDBRANCH  14  15
ENDBRANCH  12  14
ENDBRANCH   7   8
ENDBRANCH   1   7
BRANCH   3  19
HETATM   19  C   UNL     1      43.564 -16.734   5.526  1.00  0.00     0.100 A 
HETATM   20  C   UNL     1      42.697 -17.821   4.933  1.00  0.00     0.049 A 
HETATM   21  C   UNL     1      43.430 -18.053   6.246  1.00  0.00     0.024 A 
HETATM   22  C   UNL     1      43.289 -18.826   3.994  1.00  0.00    -0.045 A 
HETATM   23  C   UNL     1      44.460 -19.159   6.076  1.00  0.00     0.046 A 
HETATM   24  C   UNL     1      44.287 -19.586   4.637  1.00  0.00    -0.051 A 
HETATM   25  C   UNL     1      44.994 -20.574   3.969  1.00  0.00     0.007 A 
HETATM   26  C   UNL     1      44.696 -20.806   2.626  1.00  0.00     0.001 A 
HETATM   27  C   UNL     1      43.706 -20.055   1.975  1.00  0.00     0.001 A 
HETATM   28  C   UNL     1      42.999 -19.061   2.658  1.00  0.00     0.008 A 
ENDBRANCH   3  19
TORSDOF 5
ENDMDL
