MODEL 1
REMARK VINA RESULT:      -8.6      0.000      0.000
REMARK  3 active torsions:
REMARK  status: ('A' for Active; 'I' for Inactive)
REMARK    1  A    between atoms: C_6  and  N_7 
REMARK       I    between atoms: N_7  and  C_8 
REMARK    2  A    between atoms: C_8  and  C_9 
REMARK    3  A    between atoms: C_9  and  C_10 
ROOT
HETATM    1  C   UNL     1      42.407 -15.408   5.896  1.00  0.00     0.286 C 
HETATM    2  N   UNL     1      42.441 -14.259   4.890  1.00  0.00    -0.056 N 
HETATM    3  H   UNL     1      41.919 -13.482   5.311  1.00  0.00     0.278 HD
HETATM    4  H   UNL     1      43.416 -13.891   4.848  1.00  0.00     0.278 HD
HETATM    5  C   UNL     1      41.888 -14.504   3.522  1.00  0.00     0.209 C 
HETATM    6  C   UNL     1      40.493 -15.153   3.653  1.00  0.00     0.115 C 
HETATM    7  N   UNL     1      40.517 -16.319   4.531  1.00  0.00    -0.353 N 
HETATM    8  C   UNL     1      41.243 -16.394   5.691  1.00  0.00     0.249 C 
HETATM    9  O   UNL     1      40.995 -17.278   6.506  1.00  0.00    -0.271 OA
HETATM   10  C   UNL     1      42.858 -15.331   2.679  1.00  0.00     0.035 C 
HETATM   11  C   UNL     1      42.259 -15.627   1.305  1.00  0.00     0.002 C 
HETATM   12  C   UNL     1      40.901 -16.316   1.423  1.00  0.00     0.002 C 
HETATM   13  C   UNL     1      39.923 -15.507   2.275  1.00  0.00     0.027 C 
HETATM   14  H   UNL     1      39.726 -16.963   4.512  1.00  0.00     0.163 HD
ENDROOT
BRANCH   1  15
HETATM   15  C   UNL     1      43.723 -16.204   5.986  1.00  0.00     0.146 C 
BRANCH  15  16
HETATM   16  C   UNL     1      43.680 -17.316   6.997  1.00  0.00     0.224 C 
HETATM   17  N   UNL     1      43.769 -18.626   6.662  1.00  0.00    -0.327 N 
HETATM   18  H   UNL     1      43.687 -19.219   7.485  1.00  0.00     0.169 HD
HETATM   19  O   UNL     1      43.602 -17.023   8.198  1.00  0.00    -0.273 OA
BRANCH  17  20
HETATM   20  C   UNL     1      43.941 -19.334   5.454  1.00  0.00     0.035 A 
HETATM   21  C   UNL     1      43.616 -18.878   4.177  1.00  0.00     0.037 A 
HETATM   22  C   UNL     1      43.819 -19.685   3.036  1.00  0.00    -0.054 A 
HETATM   23  C   UNL     1      44.403 -20.957   3.175  1.00  0.00    -0.056 A 
HETATM   24  C   UNL     1      43.442 -19.145   1.680  1.00  0.00     0.049 C 
HETATM   25  C   UNL     1      44.651 -21.852   1.991  1.00  0.00     0.049 C 
HETATM   26  C   UNL     1      44.732 -21.412   4.454  1.00  0.00     0.009 A 
HETATM   27  C   UNL     1      44.505 -20.610   5.576  1.00  0.00     0.030 A 
ENDBRANCH  17  20
ENDBRANCH  15  16
ENDBRANCH   1  15
TORSDOF 3
ENDMDL
MODEL 2
REMARK VINA RESULT:      -8.5      2.252      3.361
REMARK  3 active torsions:
REMARK  status: ('A' for Active; 'I' for Inactive)
REMARK    1  A    between atoms: C_6  and  N_7 
REMARK       I    between atoms: N_7  and  C_8 
REMARK    2  A    between atoms: C_8  and  C_9 
REMARK    3  A    between atoms: C_9  and  C_10 
ROOT
HETATM    1  C   UNL     1      41.952 -15.719   5.057  1.00  0.00     0.286 C 
HETATM    2  N   UNL     1      42.520 -14.317   4.841  1.00  0.00    -0.056 N 
HETATM    3  H   UNL     1      43.254 -14.184   5.548  1.00  0.00     0.278 HD
HETATM    4  H   UNL     1      43.054 -14.316   3.945  1.00  0.00     0.278 HD
HETATM    5  C   UNL     1      41.580 -13.156   4.922  1.00  0.00     0.209 C 
HETATM    6  C   UNL     1      40.741 -13.278   6.212  1.00  0.00     0.115 C 
HETATM    7  N   UNL     1      40.116 -14.592   6.332  1.00  0.00    -0.353 N 
HETATM    8  C   UNL     1      40.729 -15.769   5.990  1.00  0.00     0.249 C 
HETATM    9  O   UNL     1      40.257 -16.834   6.377  1.00  0.00    -0.271 OA
HETATM   10  C   UNL     1      40.727 -13.054   3.659  1.00  0.00     0.035 C 
HETATM   11  C   UNL     1      39.729 -11.902   3.774  1.00  0.00     0.002 C 
HETATM   12  C   UNL     1      38.858 -12.041   5.021  1.00  0.00     0.002 C 
HETATM   13  C   UNL     1      39.699 -12.158   6.294  1.00  0.00     0.027 C 
HETATM   14  H   UNL     1      39.360 -14.716   7.005  1.00  0.00     0.163 HD
ENDROOT
BRANCH   1  15
HETATM   15  C   UNL     1      41.614 -16.467   3.753  1.00  0.00     0.146 C 
BRANCH  15  16
HETATM   16  C   UNL     1      42.656 -16.303   2.683  1.00  0.00     0.224 C 
HETATM   17  N   UNL     1      43.630 -17.216   2.449  1.00  0.00    -0.327 N 
HETATM   18  H   UNL     1      44.252 -16.903   1.707  1.00  0.00     0.169 HD
HETATM   19  O   UNL     1      42.599 -15.306   1.948  1.00  0.00    -0.273 OA
BRANCH  17  20
HETATM   20  C   UNL     1      43.969 -18.470   2.997  1.00  0.00     0.035 A 
HETATM   21  C   UNL     1      44.052 -19.677   2.304  1.00  0.00     0.037 A 
HETATM   22  C   UNL     1      44.389 -20.880   2.964  1.00  0.00    -0.054 A 
HETATM   23  C   UNL     1      44.692 -20.862   4.337  1.00  0.00    -0.056 A 
HETATM   24  C   UNL     1      44.457 -22.158   2.167  1.00  0.00     0.049 C 
HETATM   25  C   UNL     1      45.067 -22.113   5.085  1.00  0.00     0.049 C 
HETATM   26  C   UNL     1      44.612 -19.652   5.030  1.00  0.00     0.009 A 
HETATM   27  C   UNL     1      44.257 -18.474   4.367  1.00  0.00     0.030 A 
ENDBRANCH  17  20
ENDBRANCH  15  16
ENDBRANCH   1  15
TORSDOF 3
ENDMDL
MODEL 3
REMARK VINA RESULT:      -8.5      2.157      4.259
REMARK  3 active torsions:
REMARK  status: ('A' for Active; 'I' for Inactive)
REMARK    1  A    between atoms: C_6  and  N_7 
REMARK       I    between atoms: N_7  and  C_8 
REMARK    2  A    between atoms: C_8  and  C_9 
REMARK    3  A    between atoms: C_9  and  C_10 
ROOT
HETATM    1  C   UNL     1      41.164 -15.743   3.243  1.00  0.00     0.286 C 
HETATM    2  N   UNL     1      40.497 -15.451   4.586  1.00  0.00    -0.056 N 
HETATM    3  H   UNL     1      40.138 -14.490   4.534  1.00  0.00     0.278 HD
HETATM    4  H   UNL     1      39.627 -16.024   4.648  1.00  0.00     0.278 HD
HETATM    5  C   UNL     1      41.326 -15.572   5.825  1.00  0.00     0.209 C 
HETATM    6  C   UNL     1      42.646 -14.799   5.624  1.00  0.00     0.115 C 
HETATM    7  N   UNL     1      43.319 -15.184   4.388  1.00  0.00    -0.353 N 
HETATM    8  C   UNL     1      42.673 -15.436   3.206  1.00  0.00     0.249 C 
HETATM    9  O   UNL     1      43.313 -15.476   2.160  1.00  0.00    -0.271 OA
HETATM   10  C   UNL     1      41.540 -17.039   6.199  1.00  0.00     0.035 C 
HETATM   11  C   UNL     1      42.436 -17.154   7.431  1.00  0.00     0.002 C 
HETATM   12  C   UNL     1      43.767 -16.435   7.224  1.00  0.00     0.002 C 
HETATM   13  C   UNL     1      43.569 -14.969   6.836  1.00  0.00     0.027 C 
HETATM   14  H   UNL     1      44.297 -14.925   4.260  1.00  0.00     0.163 HD
ENDROOT
BRANCH   1  15
HETATM   15  C   UNL     1      40.936 -17.176   2.726  1.00  0.00     0.146 C 
BRANCH  15  16
HETATM   16  C   UNL     1      41.671 -17.474   1.449  1.00  0.00     0.224 C 
HETATM   17  N   UNL     1      42.692 -18.361   1.371  1.00  0.00    -0.327 N 
HETATM   18  H   UNL     1      43.075 -18.394   0.429  1.00  0.00     0.169 HD
HETATM   19  O   UNL     1      41.299 -16.916   0.407  1.00  0.00    -0.273 OA
BRANCH  17  20
HETATM   20  C   UNL     1      43.332 -19.223   2.285  1.00  0.00     0.035 A 
HETATM   21  C   UNL     1      43.757 -18.893   3.572  1.00  0.00     0.037 A 
HETATM   22  C   UNL     1      44.403 -19.840   4.397  1.00  0.00    -0.054 A 
HETATM   23  C   UNL     1      44.587 -21.157   3.938  1.00  0.00    -0.056 A 
HETATM   24  C   UNL     1      44.849 -19.426   5.776  1.00  0.00     0.049 C 
HETATM   25  C   UNL     1      45.259 -22.206   4.781  1.00  0.00     0.049 C 
HETATM   26  C   UNL     1      44.157 -21.488   2.650  1.00  0.00     0.009 A 
HETATM   27  C   UNL     1      43.539 -20.534   1.838  1.00  0.00     0.030 A 
ENDBRANCH  17  20
ENDBRANCH  15  16
ENDBRANCH   1  15
TORSDOF 3
ENDMDL
MODEL 4
REMARK VINA RESULT:      -8.4      1.661      2.306
REMARK  3 active torsions:
REMARK  status: ('A' for Active; 'I' for Inactive)
REMARK    1  A    between atoms: C_6  and  N_7 
REMARK       I    between atoms: N_7  and  C_8 
REMARK    2  A    between atoms: C_8  and  C_9 
REMARK    3  A    between atoms: C_9  and  C_10 
ROOT
HETATM    1  C   UNL     1      42.091 -15.794   6.431  1.00  0.00     0.286 C 
HETATM    2  N   UNL     1      42.566 -14.353   6.263  1.00  0.00    -0.056 N 
HETATM    3  H   UNL     1      42.556 -13.928   7.199  1.00  0.00     0.278 HD
HETATM    4  H   UNL     1      43.581 -14.369   6.023  1.00  0.00     0.278 HD
HETATM    5  C   UNL     1      41.797 -13.461   5.340  1.00  0.00     0.209 C 
HETATM    6  C   UNL     1      40.293 -13.569   5.673  1.00  0.00     0.115 C 
HETATM    7  N   UNL     1      39.845 -14.958   5.712  1.00  0.00    -0.353 N 
HETATM    8  C   UNL     1      40.576 -15.989   6.242  1.00  0.00     0.249 C 
HETATM    9  O   UNL     1      40.026 -17.057   6.492  1.00  0.00    -0.271 OA
HETATM   10  C   UNL     1      42.113 -13.782   3.880  1.00  0.00     0.035 C 
HETATM   11  C   UNL     1      41.280 -12.909   2.944  1.00  0.00     0.002 C 
HETATM   12  C   UNL     1      39.786 -13.048   3.231  1.00  0.00     0.002 C 
HETATM   13  C   UNL     1      39.456 -12.742   4.693  1.00  0.00     0.027 C 
HETATM   14  H   UNL     1      38.844 -15.150   5.687  1.00  0.00     0.163 HD
ENDROOT
BRANCH   1  15
HETATM   15  C   UNL     1      42.837 -16.809   5.543  1.00  0.00     0.146 C 
BRANCH  15  16
HETATM   16  C   UNL     1      44.204 -17.162   6.057  1.00  0.00     0.224 C 
HETATM   17  N   UNL     1      44.911 -18.229   5.612  1.00  0.00    -0.327 N 
HETATM   18  H   UNL     1      45.796 -18.312   6.109  1.00  0.00     0.169 HD
HETATM   19  O   UNL     1      44.732 -16.419   6.898  1.00  0.00    -0.273 OA
BRANCH  17  20
HETATM   20  C   UNL     1      44.696 -19.230   4.642  1.00  0.00     0.035 A 
HETATM   21  C   UNL     1      44.828 -20.605   4.833  1.00  0.00     0.037 A 
HETATM   22  C   UNL     1      44.600 -21.516   3.779  1.00  0.00    -0.054 A 
HETATM   23  C   UNL     1      44.187 -21.042   2.521  1.00  0.00    -0.056 A 
HETATM   24  C   UNL     1      44.765 -22.992   4.039  1.00  0.00     0.049 C 
HETATM   25  C   UNL     1      43.920 -21.971   1.368  1.00  0.00     0.049 C 
HETATM   26  C   UNL     1      44.051 -19.664   2.332  1.00  0.00     0.009 A 
HETATM   27  C   UNL     1      44.302 -18.773   3.379  1.00  0.00     0.030 A 
ENDBRANCH  17  20
ENDBRANCH  15  16
ENDBRANCH   1  15
TORSDOF 3
ENDMDL
MODEL 5
REMARK VINA RESULT:      -8.4      3.678      5.079
REMARK  3 active torsions:
REMARK  status: ('A' for Active; 'I' for Inactive)
REMARK    1  A    between atoms: C_6  and  N_7 
REMARK       I    between atoms: N_7  and  C_8 
REMARK    2  A    between atoms: C_8  and  C_9 
REMARK    3  A    between atoms: C_9  and  C_10 
ROOT
HETATM    1  C   UNL     1      40.101 -13.557   0.900  1.00  0.00     0.286 C 
HETATM    2  N   UNL     1      40.870 -12.936  -0.264  1.00  0.00    -0.056 N 
HETATM    3  H   UNL     1      40.614 -11.942  -0.291  1.00  0.00     0.278 HD
HETATM    4  H   UNL     1      41.882 -12.911  -0.011  1.00  0.00     0.278 HD
HETATM    5  C   UNL     1      40.661 -13.507  -1.631  1.00  0.00     0.209 C 
HETATM    6  C   UNL     1      39.145 -13.623  -1.900  1.00  0.00     0.115 C 
HETATM    7  N   UNL     1      38.455 -14.325  -0.822  1.00  0.00    -0.353 N 
HETATM    8  C   UNL     1      38.742 -14.164   0.508  1.00  0.00     0.249 C 
HETATM    9  O   UNL     1      37.946 -14.562   1.354  1.00  0.00    -0.271 OA
HETATM   10  C   UNL     1      41.402 -14.833  -1.790  1.00  0.00     0.035 C 
HETATM   11  C   UNL     1      41.135 -15.438  -3.167  1.00  0.00     0.002 C 
HETATM   12  C   UNL     1      39.638 -15.606  -3.423  1.00  0.00     0.002 C 
HETATM   13  C   UNL     1      38.880 -14.288  -3.255  1.00  0.00     0.027 C 
HETATM   14  H   UNL     1      37.509 -14.669  -0.987  1.00  0.00     0.163 HD
ENDROOT
BRANCH   1  15
HETATM   15  C   UNL     1      40.903 -14.605   1.695  1.00  0.00     0.146 C 
BRANCH  15  16
HETATM   16  C   UNL     1      42.258 -14.119   2.127  1.00  0.00     0.224 C 
HETATM   17  N   UNL     1      43.268 -14.952   2.477  1.00  0.00    -0.327 N 
HETATM   18  H   UNL     1      44.089 -14.426   2.769  1.00  0.00     0.169 HD
HETATM   19  O   UNL     1      42.479 -12.899   2.123  1.00  0.00    -0.273 OA
BRANCH  17  20
HETATM   20  C   UNL     1      43.428 -16.352   2.532  1.00  0.00     0.035 A 
HETATM   21  C   UNL     1      43.524 -17.126   3.688  1.00  0.00     0.037 A 
HETATM   22  C   UNL     1      43.698 -18.526   3.621  1.00  0.00    -0.054 A 
HETATM   23  C   UNL     1      43.732 -19.167   2.369  1.00  0.00    -0.056 A 
HETATM   24  C   UNL     1      43.804 -19.313   4.902  1.00  0.00     0.049 C 
HETATM   25  C   UNL     1      43.904 -20.656   2.243  1.00  0.00     0.049 C 
HETATM   26  C   UNL     1      43.632 -18.391   1.212  1.00  0.00     0.009 A 
HETATM   27  C   UNL     1      43.481 -17.004   1.294  1.00  0.00     0.030 A 
ENDBRANCH  17  20
ENDBRANCH  15  16
ENDBRANCH   1  15
TORSDOF 3
ENDMDL
MODEL 6
REMARK VINA RESULT:      -8.4      2.263      3.261
REMARK  3 active torsions:
REMARK  status: ('A' for Active; 'I' for Inactive)
REMARK    1  A    between atoms: C_6  and  N_7 
REMARK       I    between atoms: N_7  and  C_8 
REMARK    2  A    between atoms: C_8  and  C_9 
REMARK    3  A    between atoms: C_9  and  C_10 
ROOT
HETATM    1  C   UNL     1      41.128 -16.309   2.905  1.00  0.00     0.286 C 
HETATM    2  N   UNL     1      40.186 -15.457   3.752  1.00  0.00    -0.056 N 
HETATM    3  H   UNL     1      39.489 -16.097   4.153  1.00  0.00     0.278 HD
HETATM    4  H   UNL     1      40.710 -15.126   4.590  1.00  0.00     0.278 HD
HETATM    5  C   UNL     1      39.456 -14.336   3.082  1.00  0.00     0.209 C 
HETATM    6  C   UNL     1      38.798 -14.865   1.790  1.00  0.00     0.115 C 
HETATM    7  N   UNL     1      39.753 -15.577   0.946  1.00  0.00    -0.353 N 
HETATM    8  C   UNL     1      40.725 -16.416   1.422  1.00  0.00     0.249 C 
HETATM    9  O   UNL     1      41.296 -17.184   0.653  1.00  0.00    -0.271 OA
HETATM   10  C   UNL     1      40.385 -13.147   2.838  1.00  0.00     0.035 C 
HETATM   11  C   UNL     1      39.648 -12.030   2.101  1.00  0.00     0.002 C 
HETATM   12  C   UNL     1      39.036 -12.532   0.795  1.00  0.00     0.002 C 
HETATM   13  C   UNL     1      38.113 -13.730   1.021  1.00  0.00     0.027 C 
HETATM   14  H   UNL     1      39.504 -15.765  -0.025  1.00  0.00     0.163 HD
ENDROOT
BRANCH   1  15
HETATM   15  C   UNL     1      42.607 -15.884   2.988  1.00  0.00     0.146 C 
BRANCH  15  16
HETATM   16  C   UNL     1      43.201 -16.052   4.358  1.00  0.00     0.224 C 
HETATM   17  N   UNL     1      43.759 -17.210   4.787  1.00  0.00    -0.327 N 
HETATM   18  H   UNL     1      44.072 -17.128   5.752  1.00  0.00     0.169 HD
HETATM   19  O   UNL     1      43.221 -15.075   5.120  1.00  0.00    -0.273 OA
BRANCH  17  20
HETATM   20  C   UNL     1      43.991 -18.476   4.210  1.00  0.00     0.035 A 
HETATM   21  C   UNL     1      44.374 -19.633   4.886  1.00  0.00     0.037 A 
HETATM   22  C   UNL     1      44.593 -20.847   4.198  1.00  0.00    -0.054 A 
HETATM   23  C   UNL     1      44.381 -20.911   2.810  1.00  0.00    -0.056 A 
HETATM   24  C   UNL     1      45.014 -22.066   4.979  1.00  0.00     0.049 C 
HETATM   25  C   UNL     1      44.589 -22.181   2.031  1.00  0.00     0.049 C 
HETATM   26  C   UNL     1      43.994 -19.752   2.133  1.00  0.00     0.009 A 
HETATM   27  C   UNL     1      43.801 -18.553   2.825  1.00  0.00     0.030 A 
ENDBRANCH  17  20
ENDBRANCH  15  16
ENDBRANCH   1  15
TORSDOF 3
ENDMDL
MODEL 7
REMARK VINA RESULT:      -8.2      1.850      5.845
REMARK  3 active torsions:
REMARK  status: ('A' for Active; 'I' for Inactive)
REMARK    1  A    between atoms: C_6  and  N_7 
REMARK       I    between atoms: N_7  and  C_8 
REMARK    2  A    between atoms: C_8  and  C_9 
REMARK    3  A    between atoms: C_9  and  C_10 
ROOT
HETATM    1  C   UNL     1      43.811 -18.124   5.088  1.00  0.00     0.286 C 
HETATM    2  N   UNL     1      45.170 -18.817   5.158  1.00  0.00    -0.056 N 
HETATM    3  H   UNL     1      45.849 -18.179   4.724  1.00  0.00     0.278 HD
HETATM    4  H   UNL     1      45.474 -18.838   6.156  1.00  0.00     0.278 HD
HETATM    5  C   UNL     1      45.313 -20.157   4.510  1.00  0.00     0.209 C 
HETATM    6  C   UNL     1      44.742 -20.087   3.078  1.00  0.00     0.115 C 
HETATM    7  N   UNL     1      43.393 -19.527   3.058  1.00  0.00    -0.353 N 
HETATM    8  C   UNL     1      42.983 -18.479   3.839  1.00  0.00     0.249 C 
HETATM    9  O   UNL     1      41.941 -17.891   3.568  1.00  0.00    -0.271 OA
HETATM   10  C   UNL     1      44.664 -21.248   5.362  1.00  0.00     0.035 C 
HETATM   11  C   UNL     1      44.761 -22.604   4.665  1.00  0.00     0.002 C 
HETATM   12  C   UNL     1      44.152 -22.558   3.265  1.00  0.00     0.002 C 
HETATM   13  C   UNL     1      44.782 -21.463   2.405  1.00  0.00     0.027 C 
HETATM   14  H   UNL     1      42.826 -19.645   2.218  1.00  0.00     0.163 HD
ENDROOT
BRANCH   1  15
HETATM   15  C   UNL     1      42.935 -18.331   6.339  1.00  0.00     0.146 C 
BRANCH  15  16
HETATM   16  C   UNL     1      43.052 -17.217   7.341  1.00  0.00     0.224 C 
HETATM   17  N   UNL     1      42.653 -15.947   7.087  1.00  0.00    -0.327 N 
HETATM   18  H   UNL     1      42.847 -15.339   7.880  1.00  0.00     0.169 HD
HETATM   19  O   UNL     1      43.493 -17.478   8.469  1.00  0.00    -0.273 OA
BRANCH  17  20
HETATM   20  C   UNL     1      42.050 -15.294   5.992  1.00  0.00     0.035 A 
HETATM   21  C   UNL     1      42.714 -14.650   4.948  1.00  0.00     0.037 A 
HETATM   22  C   UNL     1      42.001 -14.015   3.907  1.00  0.00    -0.054 A 
HETATM   23  C   UNL     1      40.596 -14.066   3.890  1.00  0.00    -0.056 A 
HETATM   24  C   UNL     1      42.770 -13.327   2.808  1.00  0.00     0.049 C 
HETATM   25  C   UNL     1      39.790 -13.415   2.798  1.00  0.00     0.049 C 
HETATM   26  C   UNL     1      39.932 -14.714   4.934  1.00  0.00     0.009 A 
HETATM   27  C   UNL     1      40.650 -15.320   5.968  1.00  0.00     0.030 A 
ENDBRANCH  17  20
ENDBRANCH  15  16
ENDBRANCH   1  15
TORSDOF 3
ENDMDL
MODEL 8
REMARK VINA RESULT:      -8.1      2.477      4.370
REMARK  3 active torsions:
REMARK  status: ('A' for Active; 'I' for Inactive)
REMARK    1  A    between atoms: C_6  and  N_7 
REMARK       I    between atoms: N_7  and  C_8 
REMARK    2  A    between atoms: C_8  and  C_9 
REMARK    3  A    between atoms: C_9  and  C_10 
ROOT
HETATM    1  C   UNL     1      41.801 -14.829   2.990  1.00  0.00     0.286 C 
HETATM    2  N   UNL     1      41.372 -15.411   4.336  1.00  0.00    -0.056 N 
HETATM    3  H   UNL     1      40.404 -15.105   4.494  1.00  0.00     0.278 HD
HETATM    4  H   UNL     1      41.277 -16.444   4.229  1.00  0.00     0.278 HD
HETATM    5  C   UNL     1      42.176 -15.055   5.546  1.00  0.00     0.209 C 
HETATM    6  C   UNL     1      42.377 -13.525   5.584  1.00  0.00     0.115 C 
HETATM    7  N   UNL     1      42.898 -13.014   4.320  1.00  0.00    -0.353 N 
HETATM    8  C   UNL     1      42.503 -13.462   3.087  1.00  0.00     0.249 C 
HETATM    9  O   UNL     1      42.769 -12.802   2.086  1.00  0.00    -0.271 OA
HETATM   10  C   UNL     1      43.490 -15.834   5.579  1.00  0.00     0.035 C 
HETATM   11  C   UNL     1      44.331 -15.421   6.785  1.00  0.00     0.002 C 
HETATM   12  C   UNL     1      44.579 -13.914   6.804  1.00  0.00     0.002 C 
HETATM   13  C   UNL     1      43.273 -13.120   6.759  1.00  0.00     0.027 C 
HETATM   14  H   UNL     1      43.291 -12.073   4.296  1.00  0.00     0.163 HD
ENDROOT
BRANCH   1  15
HETATM   15  C   UNL     1      42.675 -15.777   2.146  1.00  0.00     0.146 C 
BRANCH  15  16
HETATM   16  C   UNL     1      41.877 -16.737   1.309  1.00  0.00     0.224 C 
HETATM   17  N   UNL     1      42.021 -18.083   1.385  1.00  0.00    -0.327 N 
HETATM   18  H   UNL     1      41.415 -18.552   0.715  1.00  0.00     0.169 HD
HETATM   19  O   UNL     1      41.016 -16.282   0.543  1.00  0.00    -0.273 OA
BRANCH  17  20
HETATM   20  C   UNL     1      42.809 -18.956   2.162  1.00  0.00     0.035 A 
HETATM   21  C   UNL     1      43.394 -20.146   1.729  1.00  0.00     0.037 A 
HETATM   22  C   UNL     1      44.154 -20.951   2.605  1.00  0.00    -0.054 A 
HETATM   23  C   UNL     1      44.371 -20.532   3.929  1.00  0.00    -0.056 A 
HETATM   24  C   UNL     1      44.757 -22.232   2.085  1.00  0.00     0.049 C 
HETATM   25  C   UNL     1      45.183 -21.347   4.899  1.00  0.00     0.049 C 
HETATM   26  C   UNL     1      43.789 -19.337   4.362  1.00  0.00     0.009 A 
HETATM   27  C   UNL     1      43.020 -18.562   3.489  1.00  0.00     0.030 A 
ENDBRANCH  17  20
ENDBRANCH  15  16
ENDBRANCH   1  15
TORSDOF 3
ENDMDL
MODEL 9
REMARK VINA RESULT:      -7.9      2.929      5.481
REMARK  3 active torsions:
REMARK  status: ('A' for Active; 'I' for Inactive)
REMARK    1  A    between atoms: C_6  and  N_7 
REMARK       I    between atoms: N_7  and  C_8 
REMARK    2  A    between atoms: C_8  and  C_9 
REMARK    3  A    between atoms: C_9  and  C_10 
ROOT
HETATM    1  C   UNL     1      41.681 -14.848   1.651  1.00  0.00     0.286 C 
HETATM    2  N   UNL     1      42.853 -15.112   2.593  1.00  0.00    -0.056 N 
HETATM    3  H   UNL     1      43.608 -14.474   2.312  1.00  0.00     0.278 HD
HETATM    4  H   UNL     1      42.594 -14.766   3.542  1.00  0.00     0.278 HD
HETATM    5  C   UNL     1      43.414 -16.498   2.648  1.00  0.00     0.209 C 
HETATM    6  C   UNL     1      43.670 -16.995   1.209  1.00  0.00     0.115 C 
HETATM    7  N   UNL     1      42.491 -16.835   0.362  1.00  0.00    -0.353 N 
HETATM    8  C   UNL     1      41.655 -15.750   0.403  1.00  0.00     0.249 C 
HETATM    9  O   UNL     1      40.865 -15.557  -0.516  1.00  0.00    -0.271 OA
HETATM   10  C   UNL     1      42.503 -17.426   3.451  1.00  0.00     0.035 C 
HETATM   11  C   UNL     1      43.052 -18.851   3.452  1.00  0.00     0.002 C 
HETATM   12  C   UNL     1      43.260 -19.371   2.031  1.00  0.00     0.002 C 
HETATM   13  C   UNL     1      44.160 -18.447   1.211  1.00  0.00     0.027 C 
HETATM   14  H   UNL     1      42.455 -17.333  -0.527  1.00  0.00     0.163 HD
ENDROOT
BRANCH   1  15
HETATM   15  C   UNL     1      40.301 -14.905   2.333  1.00  0.00     0.146 C 
BRANCH  15  16
HETATM   16  C   UNL     1      40.046 -13.751   3.263  1.00  0.00     0.224 C 
HETATM   17  N   UNL     1      40.475 -13.727   4.548  1.00  0.00    -0.327 N 
HETATM   18  H   UNL     1      40.173 -12.875   5.017  1.00  0.00     0.169 HD
HETATM   19  O   UNL     1      39.454 -12.756   2.824  1.00  0.00    -0.273 OA
BRANCH  17  20
HETATM   20  C   UNL     1      41.223 -14.601   5.364  1.00  0.00     0.035 A 
HETATM   21  C   UNL     1      42.554 -14.437   5.745  1.00  0.00     0.037 A 
HETATM   22  C   UNL     1      43.207 -15.390   6.557  1.00  0.00    -0.054 A 
HETATM   23  C   UNL     1      42.497 -16.506   7.034  1.00  0.00    -0.056 A 
HETATM   24  C   UNL     1      44.650 -15.167   6.932  1.00  0.00     0.049 C 
HETATM   25  C   UNL     1      43.142 -17.544   7.911  1.00  0.00     0.049 C 
HETATM   26  C   UNL     1      41.161 -16.667   6.656  1.00  0.00     0.009 A 
HETATM   27  C   UNL     1      40.535 -15.727   5.834  1.00  0.00     0.030 A 
ENDBRANCH  17  20
ENDBRANCH  15  16
ENDBRANCH   1  15
TORSDOF 3
ENDMDL
MODEL 10
REMARK VINA RESULT:      -7.9      1.854      2.814
REMARK  3 active torsions:
REMARK  status: ('A' for Active; 'I' for Inactive)
REMARK    1  A    between atoms: C_6  and  N_7 
REMARK       I    between atoms: N_7  and  C_8 
REMARK    2  A    between atoms: C_8  and  C_9 
REMARK    3  A    between atoms: C_9  and  C_10 
ROOT
HETATM    1  C   UNL     1      42.329 -14.036   3.992  1.00  0.00     0.286 C 
HETATM    2  N   UNL     1      42.503 -13.994   2.475  1.00  0.00    -0.056 N 
HETATM    3  H   UNL     1      41.878 -13.257   2.127  1.00  0.00     0.278 HD
HETATM    4  H   UNL     1      43.452 -13.615   2.267  1.00  0.00     0.278 HD
HETATM    5  C   UNL     1      42.227 -15.243   1.699  1.00  0.00     0.209 C 
HETATM    6  C   UNL     1      40.861 -15.814   2.136  1.00  0.00     0.115 C 
HETATM    7  N   UNL     1      40.769 -15.951   3.587  1.00  0.00    -0.353 N 
HETATM    8  C   UNL     1      41.266 -15.039   4.479  1.00  0.00     0.249 C 
HETATM    9  O   UNL     1      40.908 -15.079   5.653  1.00  0.00    -0.271 OA
HETATM   10  C   UNL     1      43.372 -16.244   1.848  1.00  0.00     0.035 C 
HETATM   11  C   UNL     1      43.055 -17.539   1.101  1.00  0.00     0.002 C 
HETATM   12  C   UNL     1      41.729 -18.140   1.563  1.00  0.00     0.002 C 
HETATM   13  C   UNL     1      40.575 -17.145   1.433  1.00  0.00     0.027 C 
HETATM   14  H   UNL     1      40.024 -16.527   3.978  1.00  0.00     0.163 HD
ENDROOT
BRANCH   1  15
HETATM   15  C   UNL     1      43.637 -14.282   4.768  1.00  0.00     0.146 C 
BRANCH  15  16
HETATM   16  C   UNL     1      43.463 -14.237   6.261  1.00  0.00     0.224 C 
HETATM   17  N   UNL     1      43.459 -15.346   7.040  1.00  0.00    -0.327 N 
HETATM   18  H   UNL     1      43.295 -15.105   8.015  1.00  0.00     0.169 HD
HETATM   19  O   UNL     1      43.361 -13.133   6.813  1.00  0.00    -0.273 OA
BRANCH  17  20
HETATM   20  C   UNL     1      43.621 -16.727   6.805  1.00  0.00     0.035 A 
HETATM   21  C   UNL     1      43.841 -17.334   5.569  1.00  0.00     0.037 A 
HETATM   22  C   UNL     1      43.974 -18.735   5.453  1.00  0.00    -0.054 A 
HETATM   23  C   UNL     1      43.931 -19.539   6.605  1.00  0.00    -0.056 A 
HETATM   24  C   UNL     1      44.202 -19.338   4.090  1.00  0.00     0.049 C 
HETATM   25  C   UNL     1      44.078 -21.035   6.538  1.00  0.00     0.049 C 
HETATM   26  C   UNL     1      43.715 -18.930   7.844  1.00  0.00     0.009 A 
HETATM   27  C   UNL     1      43.563 -17.545   7.941  1.00  0.00     0.030 A 
ENDBRANCH  17  20
ENDBRANCH  15  16
ENDBRANCH   1  15
TORSDOF 3
ENDMDL
