MODEL 1
REMARK VINA RESULT:     -10.2      0.000      0.000
REMARK  6 active torsions:
REMARK  status: ('A' for Active; 'I' for Inactive)
REMARK    1  A    between atoms: N_4  and  C_5 
REMARK    2  A    between atoms: C_13  and  C_14 
REMARK    3  A    between atoms: C_18  and  C_19 
REMARK       I    between atoms: C_19  and  N_20 
REMARK    4  A    between atoms: N_20  and  N_21 
REMARK    5  A    between atoms: C_22  and  C_23 
REMARK    6  A    between atoms: C_24  and  O_25 
ROOT
HETATM    1  C   UNL     1      40.948 -14.253   5.103  1.00  0.00     0.093 A 
HETATM    2  N   UNL     1      39.626 -14.438   5.145  1.00  0.00    -0.173 NA
HETATM    3  N   UNL     1      39.183 -13.433   5.915  1.00  0.00    -0.272 N 
HETATM    4  H   UNL     1      38.187 -13.353   6.102  1.00  0.00     0.189 HD
HETATM    5  C   UNL     1      40.173 -12.611   6.387  1.00  0.00     0.121 A 
HETATM    6  C   UNL     1      41.343 -13.128   5.864  1.00  0.00     0.071 A 
ENDROOT
BRANCH   5   7
HETATM    7  C   UNL     1      39.860 -11.502   7.252  1.00  0.00     0.289 C 
HETATM    8  N   UNL     1      40.543 -11.487   8.461  1.00  0.00    -0.242 N 
HETATM    9  H   UNL     1      41.208 -12.214   8.687  1.00  0.00     0.192 HD
HETATM   10  O   UNL     1      39.042 -10.647   6.923  1.00  0.00    -0.264 OA
BRANCH   8  11
HETATM   11  N   UNL     1      40.281 -10.506   9.369  1.00  0.00    -0.183 NA
HETATM   12  C   UNL     1      40.264 -10.866  10.615  1.00  0.00     0.153 C 
BRANCH  12  13
HETATM   13  C   UNL     1      39.957  -9.889  11.692  1.00  0.00     0.027 A 
HETATM   14  C   UNL     1      38.677  -9.306  11.743  1.00  0.00     0.078 A 
HETATM   15  C   UNL     1      38.336  -8.429  12.763  1.00  0.00     0.038 A 
HETATM   16  C   UNL     1      39.270  -8.115  13.745  1.00  0.00     0.015 A 
HETATM   17  C   UNL     1      40.559  -8.666  13.718  1.00  0.00    -0.025 A 
HETATM   18  C   UNL     1      40.935  -9.567  12.684  1.00  0.00    -0.012 A 
HETATM   19  C   UNL     1      41.474  -8.316  14.724  1.00  0.00     0.012 A 
HETATM   20  C   UNL     1      42.265 -10.063  12.722  1.00  0.00     0.013 A 
HETATM   21  C   UNL     1      43.164  -9.700  13.730  1.00  0.00     0.001 A 
HETATM   22  C   UNL     1      42.767  -8.830  14.733  1.00  0.00     0.001 A 
BRANCH  14  23
HETATM   23  O   UNL     1      37.685  -9.551  10.831  1.00  0.00    -0.360 OA
HETATM   24  H   UNL     1      38.072  -9.523   9.926  1.00  0.00     0.217 HD
ENDBRANCH  14  23
ENDBRANCH  12  13
ENDBRANCH   8  11
ENDBRANCH   5   7
BRANCH   1  25
HETATM   25  C   UNL     1      41.849 -15.153   4.383  1.00  0.00     0.045 C 
HETATM   26  C   UNL     1      42.613 -14.850   3.239  1.00  0.00     0.066 C 
HETATM   27  C   UNL     1      42.682 -13.596   2.448  1.00  0.00     0.073 C 
HETATM   28  N   UNL     1      43.372 -15.885   2.875  1.00  0.00    -0.171 NA
HETATM   29  N   UNL     1      42.989 -16.918   3.678  1.00  0.00    -0.237 N 
HETATM   30  C   UNL     1      42.153 -16.469   4.694  1.00  0.00     0.047 C 
HETATM   31  C   UNL     1      41.744 -17.252   5.891  1.00  0.00     0.071 C 
BRANCH  29  32
HETATM   32  C   UNL     1      43.474 -18.231   3.383  1.00  0.00     0.058 A 
HETATM   33  C   UNL     1      43.083 -18.845   2.180  1.00  0.00     0.031 A 
HETATM   34  C   UNL     1      43.531 -20.127   1.854  1.00  0.00     0.002 A 
HETATM   35  C   UNL     1      44.362 -20.818   2.731  1.00  0.00     0.000 A 
HETATM   36  C   UNL     1      44.734 -20.232   3.939  1.00  0.00     0.002 A 
HETATM   37  C   UNL     1      44.290 -18.946   4.268  1.00  0.00     0.031 A 
ENDBRANCH  29  32
ENDBRANCH   1  25
TORSDOF 6
ENDMDL
MODEL 2
REMARK VINA RESULT:      -9.9      3.313     11.931
REMARK  6 active torsions:
REMARK  status: ('A' for Active; 'I' for Inactive)
REMARK    1  A    between atoms: N_4  and  C_5 
REMARK    2  A    between atoms: C_13  and  C_14 
REMARK    3  A    between atoms: C_18  and  C_19 
REMARK       I    between atoms: C_19  and  N_20 
REMARK    4  A    between atoms: N_20  and  N_21 
REMARK    5  A    between atoms: C_22  and  C_23 
REMARK    6  A    between atoms: C_24  and  O_25 
ROOT
HETATM    1  C   UNL     1      43.655 -10.946   9.529  1.00  0.00     0.093 A 
HETATM    2  N   UNL     1      44.969 -10.732   9.649  1.00  0.00    -0.173 NA
HETATM    3  N   UNL     1      45.521 -11.677   8.874  1.00  0.00    -0.272 N 
HETATM    4  H   UNL     1      46.533 -11.727   8.796  1.00  0.00     0.189 HD
HETATM    5  C   UNL     1      44.613 -12.507   8.268  1.00  0.00     0.121 A 
HETATM    6  C   UNL     1      43.378 -12.043   8.682  1.00  0.00     0.071 A 
ENDROOT
BRANCH   5   7
HETATM    7  C   UNL     1      45.051 -13.591   7.427  1.00  0.00     0.289 C 
HETATM    8  N   UNL     1      44.237 -14.715   7.443  1.00  0.00    -0.242 N 
HETATM    9  H   UNL     1      43.402 -14.739   8.012  1.00  0.00     0.192 HD
HETATM   10  O   UNL     1      46.077 -13.504   6.757  1.00  0.00    -0.264 OA
BRANCH   8  11
HETATM   11  N   UNL     1      44.592 -15.814   6.719  1.00  0.00    -0.183 NA
HETATM   12  C   UNL     1      43.631 -16.434   6.107  1.00  0.00     0.153 C 
BRANCH  12  13
HETATM   13  C   UNL     1      43.892 -17.663   5.315  1.00  0.00     0.027 A 
HETATM   14  C   UNL     1      44.246 -18.849   5.987  1.00  0.00     0.078 A 
HETATM   15  C   UNL     1      44.449 -20.029   5.285  1.00  0.00     0.038 A 
HETATM   16  C   UNL     1      44.307 -20.043   3.902  1.00  0.00     0.015 A 
HETATM   17  C   UNL     1      43.969 -18.879   3.198  1.00  0.00    -0.025 A 
HETATM   18  C   UNL     1      43.757 -17.656   3.892  1.00  0.00    -0.012 A 
HETATM   19  C   UNL     1      43.843 -18.935   1.801  1.00  0.00     0.012 A 
HETATM   20  C   UNL     1      43.436 -16.520   3.100  1.00  0.00     0.013 A 
HETATM   21  C   UNL     1      43.320 -16.594   1.709  1.00  0.00     0.001 A 
HETATM   22  C   UNL     1      43.520 -17.803   1.059  1.00  0.00     0.001 A 
BRANCH  14  23
HETATM   23  O   UNL     1      44.406 -18.943   7.344  1.00  0.00    -0.360 OA
HETATM   24  H   UNL     1      44.855 -18.129   7.668  1.00  0.00     0.217 HD
ENDBRANCH  14  23
ENDBRANCH  12  13
ENDBRANCH   8  11
ENDBRANCH   5   7
BRANCH   1  25
HETATM   25  C   UNL     1      42.658 -10.147  10.241  1.00  0.00     0.045 C 
HETATM   26  C   UNL     1      41.702  -9.282   9.672  1.00  0.00     0.066 C 
HETATM   27  C   UNL     1      41.475  -8.920   8.250  1.00  0.00     0.073 C 
HETATM   28  N   UNL     1      40.908  -8.755  10.607  1.00  0.00    -0.171 NA
HETATM   29  N   UNL     1      41.442  -9.144  11.800  1.00  0.00    -0.237 N 
HETATM   30  C   UNL     1      42.435 -10.098  11.609  1.00  0.00     0.047 C 
HETATM   31  C   UNL     1      43.059 -10.927  12.675  1.00  0.00     0.071 C 
BRANCH  29  32
HETATM   32  C   UNL     1      40.935  -8.555  13.000  1.00  0.00     0.058 A 
HETATM   33  C   UNL     1      39.588  -8.153  13.045  1.00  0.00     0.031 A 
HETATM   34  C   UNL     1      39.055  -7.572  14.197  1.00  0.00     0.002 A 
HETATM   35  C   UNL     1      39.861  -7.370  15.313  1.00  0.00     0.000 A 
HETATM   36  C   UNL     1      41.204  -7.738  15.272  1.00  0.00     0.002 A 
HETATM   37  C   UNL     1      41.743  -8.323  14.121  1.00  0.00     0.031 A 
ENDBRANCH  29  32
ENDBRANCH   1  25
TORSDOF 6
ENDMDL
MODEL 3
REMARK VINA RESULT:      -9.8      8.275     12.309
REMARK  6 active torsions:
REMARK  status: ('A' for Active; 'I' for Inactive)
REMARK    1  A    between atoms: N_4  and  C_5 
REMARK    2  A    between atoms: C_13  and  C_14 
REMARK    3  A    between atoms: C_18  and  C_19 
REMARK       I    between atoms: C_19  and  N_20 
REMARK    4  A    between atoms: N_20  and  N_21 
REMARK    5  A    between atoms: C_22  and  C_23 
REMARK    6  A    between atoms: C_24  and  O_25 
ROOT
HETATM    1  C   UNL     1      39.485 -13.848  -2.265  1.00  0.00     0.093 A 
HETATM    2  N   UNL     1      40.349 -12.830  -2.311  1.00  0.00    -0.173 NA
HETATM    3  N   UNL     1      41.227 -13.106  -1.335  1.00  0.00    -0.272 N 
HETATM    4  H   UNL     1      41.998 -12.466  -1.166  1.00  0.00     0.189 HD
HETATM    5  C   UNL     1      40.955 -14.259  -0.647  1.00  0.00     0.121 A 
HETATM    6  C   UNL     1      39.815 -14.767  -1.241  1.00  0.00     0.071 A 
ENDROOT
BRANCH   5   7
HETATM    7  C   UNL     1      41.789 -14.677   0.451  1.00  0.00     0.289 C 
HETATM    8  N   UNL     1      42.268 -15.977   0.365  1.00  0.00    -0.242 N 
HETATM    9  H   UNL     1      42.033 -16.563  -0.425  1.00  0.00     0.192 HD
HETATM   10  O   UNL     1      42.040 -13.920   1.386  1.00  0.00    -0.264 OA
BRANCH   8  11
HETATM   11  N   UNL     1      43.026 -16.484   1.378  1.00  0.00    -0.183 NA
HETATM   12  C   UNL     1      42.641 -17.620   1.871  1.00  0.00     0.153 C 
BRANCH  12  13
HETATM   13  C   UNL     1      43.369 -18.253   3.001  1.00  0.00     0.027 A 
HETATM   14  C   UNL     1      43.650 -17.488   4.149  1.00  0.00     0.078 A 
HETATM   15  C   UNL     1      44.284 -18.058   5.244  1.00  0.00     0.038 A 
HETATM   16  C   UNL     1      44.652 -19.399   5.208  1.00  0.00     0.015 A 
HETATM   17  C   UNL     1      44.401 -20.187   4.077  1.00  0.00    -0.025 A 
HETATM   18  C   UNL     1      43.755 -19.628   2.940  1.00  0.00    -0.012 A 
HETATM   19  C   UNL     1      44.797 -21.534   4.079  1.00  0.00     0.012 A 
HETATM   20  C   UNL     1      43.556 -20.492   1.830  1.00  0.00     0.013 A 
HETATM   21  C   UNL     1      43.961 -21.830   1.849  1.00  0.00     0.001 A 
HETATM   22  C   UNL     1      44.578 -22.352   2.975  1.00  0.00     0.001 A 
BRANCH  14  23
HETATM   23  O   UNL     1      43.326 -16.165   4.287  1.00  0.00    -0.360 OA
HETATM   24  H   UNL     1      43.425 -15.911   5.233  1.00  0.00     0.217 HD
ENDBRANCH  14  23
ENDBRANCH  12  13
ENDBRANCH   8  11
ENDBRANCH   5   7
BRANCH   1  25
HETATM   25  C   UNL     1      38.327 -13.941  -3.152  1.00  0.00     0.045 C 
HETATM   26  C   UNL     1      37.991 -15.018  -3.997  1.00  0.00     0.066 C 
HETATM   27  C   UNL     1      38.714 -16.290  -4.247  1.00  0.00     0.073 C 
HETATM   28  N   UNL     1      36.834 -14.798  -4.625  1.00  0.00    -0.171 NA
HETATM   29  N   UNL     1      36.491 -13.514  -4.320  1.00  0.00    -0.237 N 
HETATM   30  C   UNL     1      37.315 -13.008  -3.321  1.00  0.00     0.047 C 
HETATM   31  C   UNL     1      37.087 -11.748  -2.563  1.00  0.00     0.071 C 
BRANCH  29  32
HETATM   32  C   UNL     1      35.401 -12.911  -5.022  1.00  0.00     0.058 A 
HETATM   33  C   UNL     1      34.193 -12.686  -4.338  1.00  0.00     0.031 A 
HETATM   34  C   UNL     1      33.103 -12.103  -4.988  1.00  0.00     0.002 A 
HETATM   35  C   UNL     1      33.200 -11.750  -6.330  1.00  0.00     0.000 A 
HETATM   36  C   UNL     1      34.382 -11.993  -7.027  1.00  0.00     0.002 A 
HETATM   37  C   UNL     1      35.478 -12.575  -6.379  1.00  0.00     0.031 A 
ENDBRANCH  29  32
ENDBRANCH   1  25
TORSDOF 6
ENDMDL
MODEL 4
REMARK VINA RESULT:      -9.7      1.403      1.669
REMARK  6 active torsions:
REMARK  status: ('A' for Active; 'I' for Inactive)
REMARK    1  A    between atoms: N_4  and  C_5 
REMARK    2  A    between atoms: C_13  and  C_14 
REMARK    3  A    between atoms: C_18  and  C_19 
REMARK       I    between atoms: C_19  and  N_20 
REMARK    4  A    between atoms: N_20  and  N_21 
REMARK    5  A    between atoms: C_22  and  C_23 
REMARK    6  A    between atoms: C_24  and  O_25 
ROOT
HETATM    1  C   UNL     1      42.374 -14.470   4.004  1.00  0.00     0.093 A 
HETATM    2  N   UNL     1      42.839 -13.283   3.603  1.00  0.00    -0.173 NA
HETATM    3  N   UNL     1      42.272 -12.411   4.450  1.00  0.00    -0.272 N 
HETATM    4  H   UNL     1      42.473 -11.420   4.350  1.00  0.00     0.189 HD
HETATM    5  C   UNL     1      41.442 -12.988   5.376  1.00  0.00     0.121 A 
HETATM    6  C   UNL     1      41.495 -14.342   5.105  1.00  0.00     0.071 A 
ENDROOT
BRANCH   5   7
HETATM    7  C   UNL     1      40.735 -12.181   6.338  1.00  0.00     0.289 C 
HETATM    8  N   UNL     1      41.541 -11.471   7.218  1.00  0.00    -0.242 N 
HETATM    9  H   UNL     1      42.549 -11.535   7.160  1.00  0.00     0.192 HD
HETATM   10  O   UNL     1      39.508 -12.144   6.359  1.00  0.00    -0.264 OA
BRANCH   8  11
HETATM   11  N   UNL     1      40.968 -10.717   8.197  1.00  0.00    -0.183 NA
HETATM   12  C   UNL     1      41.280 -11.025   9.418  1.00  0.00     0.153 C 
BRANCH  12  13
HETATM   13  C   UNL     1      40.690 -10.294  10.569  1.00  0.00     0.027 A 
HETATM   14  C   UNL     1      39.310 -10.016  10.569  1.00  0.00     0.078 A 
HETATM   15  C   UNL     1      38.714  -9.380  11.649  1.00  0.00     0.038 A 
HETATM   16  C   UNL     1      39.487  -9.007  12.743  1.00  0.00     0.015 A 
HETATM   17  C   UNL     1      40.866  -9.255  12.771  1.00  0.00    -0.025 A 
HETATM   18  C   UNL     1      41.503  -9.903  11.678  1.00  0.00    -0.012 A 
HETATM   19  C   UNL     1      41.611  -8.853  13.892  1.00  0.00     0.012 A 
HETATM   20  C   UNL     1      42.906 -10.099  11.781  1.00  0.00     0.013 A 
HETATM   21  C   UNL     1      43.633  -9.689  12.902  1.00  0.00     0.001 A 
HETATM   22  C   UNL     1      42.985  -9.070  13.960  1.00  0.00     0.001 A 
BRANCH  14  23
HETATM   23  O   UNL     1      38.460 -10.345   9.546  1.00  0.00    -0.360 OA
HETATM   24  H   UNL     1      38.259  -9.534   9.027  1.00  0.00     0.217 HD
ENDBRANCH  14  23
ENDBRANCH  12  13
ENDBRANCH   8  11
ENDBRANCH   5   7
BRANCH   1  25
HETATM   25  C   UNL     1      42.719 -15.721   3.331  1.00  0.00     0.045 C 
HETATM   26  C   UNL     1      42.523 -16.034   1.971  1.00  0.00     0.066 C 
HETATM   27  C   UNL     1      41.895 -15.230   0.893  1.00  0.00     0.073 C 
HETATM   28  N   UNL     1      43.008 -17.241   1.676  1.00  0.00    -0.171 NA
HETATM   29  N   UNL     1      43.376 -17.787   2.870  1.00  0.00    -0.237 N 
HETATM   30  C   UNL     1      43.331 -16.836   3.883  1.00  0.00     0.047 C 
HETATM   31  C   UNL     1      43.897 -16.996   5.249  1.00  0.00     0.071 C 
BRANCH  29  32
HETATM   32  C   UNL     1      43.737 -19.171   2.908  1.00  0.00     0.058 A 
HETATM   33  C   UNL     1      43.340 -20.006   1.848  1.00  0.00     0.031 A 
HETATM   34  C   UNL     1      43.669 -21.363   1.847  1.00  0.00     0.002 A 
HETATM   35  C   UNL     1      44.383 -21.907   2.910  1.00  0.00     0.000 A 
HETATM   36  C   UNL     1      44.758 -21.097   3.979  1.00  0.00     0.002 A 
HETATM   37  C   UNL     1      44.434 -19.735   3.983  1.00  0.00     0.031 A 
ENDBRANCH  29  32
ENDBRANCH   1  25
TORSDOF 6
ENDMDL
MODEL 5
REMARK VINA RESULT:      -9.6      2.516     11.585
REMARK  6 active torsions:
REMARK  status: ('A' for Active; 'I' for Inactive)
REMARK    1  A    between atoms: N_4  and  C_5 
REMARK    2  A    between atoms: C_13  and  C_14 
REMARK    3  A    between atoms: C_18  and  C_19 
REMARK       I    between atoms: C_19  and  N_20 
REMARK    4  A    between atoms: N_20  and  N_21 
REMARK    5  A    between atoms: C_22  and  C_23 
REMARK    6  A    between atoms: C_24  and  O_25 
ROOT
HETATM    1  C   UNL     1      42.319 -10.542   8.372  1.00  0.00     0.093 A 
HETATM    2  N   UNL     1      41.849  -9.642   7.504  1.00  0.00    -0.173 NA
HETATM    3  N   UNL     1      41.651 -10.349   6.381  1.00  0.00    -0.272 N 
HETATM    4  H   UNL     1      41.290  -9.879   5.556  1.00  0.00     0.189 HD
HETATM    5  C   UNL     1      41.992 -11.672   6.485  1.00  0.00     0.121 A 
HETATM    6  C   UNL     1      42.432 -11.824   7.787  1.00  0.00     0.071 A 
ENDROOT
BRANCH   5   7
HETATM    7  C   UNL     1      41.865 -12.558   5.356  1.00  0.00     0.289 C 
HETATM    8  N   UNL     1      42.256 -13.870   5.589  1.00  0.00    -0.242 N 
HETATM    9  H   UNL     1      42.597 -14.153   6.498  1.00  0.00     0.192 HD
HETATM   10  O   UNL     1      41.444 -12.156   4.274  1.00  0.00    -0.264 OA
BRANCH   8  11
HETATM   11  N   UNL     1      42.220 -14.774   4.570  1.00  0.00    -0.183 NA
HETATM   12  C   UNL     1      43.230 -15.583   4.484  1.00  0.00     0.153 C 
BRANCH  12  13
HETATM   13  C   UNL     1      43.318 -16.589   3.394  1.00  0.00     0.027 A 
HETATM   14  C   UNL     1      42.922 -16.225   2.093  1.00  0.00     0.078 A 
HETATM   15  C   UNL     1      43.036 -17.121   1.040  1.00  0.00     0.038 A 
HETATM   16  C   UNL     1      43.542 -18.396   1.269  1.00  0.00     0.015 A 
HETATM   17  C   UNL     1      43.932 -18.798   2.554  1.00  0.00    -0.025 A 
HETATM   18  C   UNL     1      43.825 -17.900   3.651  1.00  0.00    -0.012 A 
HETATM   19  C   UNL     1      44.430 -20.097   2.743  1.00  0.00     0.012 A 
HETATM   20  C   UNL     1      44.225 -18.395   4.922  1.00  0.00     0.013 A 
HETATM   21  C   UNL     1      44.714 -19.693   5.093  1.00  0.00     0.001 A 
HETATM   22  C   UNL     1      44.820 -20.543   4.002  1.00  0.00     0.001 A 
BRANCH  14  23
HETATM   23  O   UNL     1      42.417 -14.996   1.760  1.00  0.00    -0.360 OA
HETATM   24  H   UNL     1      41.885 -14.656   2.515  1.00  0.00     0.217 HD
ENDBRANCH  14  23
ENDBRANCH  12  13
ENDBRANCH   8  11
ENDBRANCH   5   7
BRANCH   1  25
HETATM   25  C   UNL     1      42.703 -10.193   9.739  1.00  0.00     0.045 C 
HETATM   26  C   UNL     1      43.956 -10.406  10.348  1.00  0.00     0.066 C 
HETATM   27  C   UNL     1      45.175 -11.059   9.809  1.00  0.00     0.073 C 
HETATM   28  N   UNL     1      43.982  -9.912  11.588  1.00  0.00    -0.171 NA
HETATM   29  N   UNL     1      42.703  -9.520  11.852  1.00  0.00    -0.237 N 
HETATM   30  C   UNL     1      41.927  -9.560  10.699  1.00  0.00     0.047 C 
HETATM   31  C   UNL     1      40.569  -8.973  10.546  1.00  0.00     0.071 C 
BRANCH  29  32
HETATM   32  C   UNL     1      42.365  -9.145  13.189  1.00  0.00     0.058 A 
HETATM   33  C   UNL     1      42.253 -10.147  14.169  1.00  0.00     0.031 A 
HETATM   34  C   UNL     1      41.921  -9.823  15.487  1.00  0.00     0.002 A 
HETATM   35  C   UNL     1      41.682  -8.499  15.840  1.00  0.00     0.000 A 
HETATM   36  C   UNL     1      41.762  -7.500  14.872  1.00  0.00     0.002 A 
HETATM   37  C   UNL     1      42.097  -7.819  13.551  1.00  0.00     0.031 A 
ENDBRANCH  29  32
ENDBRANCH   1  25
TORSDOF 6
ENDMDL
MODEL 6
REMARK VINA RESULT:      -9.4      2.191     11.561
REMARK  6 active torsions:
REMARK  status: ('A' for Active; 'I' for Inactive)
REMARK    1  A    between atoms: N_4  and  C_5 
REMARK    2  A    between atoms: C_13  and  C_14 
REMARK    3  A    between atoms: C_18  and  C_19 
REMARK       I    between atoms: C_19  and  N_20 
REMARK    4  A    between atoms: N_20  and  N_21 
REMARK    5  A    between atoms: C_22  and  C_23 
REMARK    6  A    between atoms: C_24  and  O_25 
ROOT
HETATM    1  C   UNL     1      40.627 -10.664   8.722  1.00  0.00     0.093 A 
HETATM    2  N   UNL     1      39.485 -11.235   8.330  1.00  0.00    -0.173 NA
HETATM    3  N   UNL     1      39.828 -11.921   7.229  1.00  0.00    -0.272 N 
HETATM    4  H   UNL     1      39.117 -12.453   6.734  1.00  0.00     0.189 HD
HETATM    5  C   UNL     1      41.149 -11.802   6.885  1.00  0.00     0.121 A 
HETATM    6  C   UNL     1      41.696 -10.982   7.854  1.00  0.00     0.071 A 
ENDROOT
BRANCH   5   7
HETATM    7  C   UNL     1      41.667 -12.456   5.710  1.00  0.00     0.289 C 
HETATM    8  N   UNL     1      42.063 -13.773   5.895  1.00  0.00    -0.242 N 
HETATM    9  H   UNL     1      41.979 -14.215   6.801  1.00  0.00     0.192 HD
HETATM   10  O   UNL     1      41.746 -11.867   4.635  1.00  0.00    -0.264 OA
BRANCH   8  11
HETATM   11  N   UNL     1      42.612 -14.463   4.856  1.00  0.00    -0.183 NA
HETATM   12  C   UNL     1      42.242 -15.700   4.728  1.00  0.00     0.153 C 
BRANCH  12  13
HETATM   13  C   UNL     1      42.800 -16.560   3.653  1.00  0.00     0.027 A 
HETATM   14  C   UNL     1      42.767 -16.102   2.322  1.00  0.00     0.078 A 
HETATM   15  C   UNL     1      43.322 -16.855   1.298  1.00  0.00     0.038 A 
HETATM   16  C   UNL     1      43.916 -18.080   1.584  1.00  0.00     0.015 A 
HETATM   17  C   UNL     1      43.955 -18.574   2.895  1.00  0.00    -0.025 A 
HETATM   18  C   UNL     1      43.392 -17.824   3.964  1.00  0.00    -0.012 A 
HETATM   19  C   UNL     1      44.557 -19.819   3.140  1.00  0.00     0.012 A 
HETATM   20  C   UNL     1      43.458 -18.407   5.258  1.00  0.00     0.013 A 
HETATM   21  C   UNL     1      44.057 -19.650   5.482  1.00  0.00     0.001 A 
HETATM   22  C   UNL     1      44.610 -20.354   4.424  1.00  0.00     0.001 A 
BRANCH  14  23
HETATM   23  O   UNL     1      42.212 -14.911   1.934  1.00  0.00    -0.360 OA
HETATM   24  H   UNL     1      41.248 -14.931   2.133  1.00  0.00     0.217 HD
ENDBRANCH  14  23
ENDBRANCH  12  13
ENDBRANCH   8  11
ENDBRANCH   5   7
BRANCH   1  25
HETATM   25  C   UNL     1      40.709  -9.786   9.889  1.00  0.00     0.045 C 
HETATM   26  C   UNL     1      40.791  -8.379   9.886  1.00  0.00     0.066 C 
HETATM   27  C   UNL     1      40.858  -7.434   8.743  1.00  0.00     0.073 C 
HETATM   28  N   UNL     1      40.792  -7.891  11.129  1.00  0.00    -0.171 NA
HETATM   29  N   UNL     1      40.874  -8.978  11.947  1.00  0.00    -0.237 N 
HETATM   30  C   UNL     1      40.696 -10.154  11.226  1.00  0.00     0.047 C 
HETATM   31  C   UNL     1      40.473 -11.504  11.808  1.00  0.00     0.071 C 
BRANCH  29  32
HETATM   32  C   UNL     1      41.112  -8.769  13.341  1.00  0.00     0.058 A 
HETATM   33  C   UNL     1      42.274  -9.309  13.921  1.00  0.00     0.031 A 
HETATM   34  C   UNL     1      42.543  -9.130  15.280  1.00  0.00     0.002 A 
HETATM   35  C   UNL     1      41.650  -8.424  16.080  1.00  0.00     0.000 A 
HETATM   36  C   UNL     1      40.481  -7.908  15.523  1.00  0.00     0.002 A 
HETATM   37  C   UNL     1      40.208  -8.082  14.162  1.00  0.00     0.031 A 
ENDBRANCH  29  32
ENDBRANCH   1  25
TORSDOF 6
ENDMDL
MODEL 7
REMARK VINA RESULT:      -8.8      1.824      2.637
REMARK  6 active torsions:
REMARK  status: ('A' for Active; 'I' for Inactive)
REMARK    1  A    between atoms: N_4  and  C_5 
REMARK    2  A    between atoms: C_13  and  C_14 
REMARK    3  A    between atoms: C_18  and  C_19 
REMARK       I    between atoms: C_19  and  N_20 
REMARK    4  A    between atoms: N_20  and  N_21 
REMARK    5  A    between atoms: C_22  and  C_23 
REMARK    6  A    between atoms: C_24  and  O_25 
ROOT
HETATM    1  C   UNL     1      42.945 -15.159   4.844  1.00  0.00     0.093 A 
HETATM    2  N   UNL     1      43.246 -14.297   3.868  1.00  0.00    -0.173 NA
HETATM    3  N   UNL     1      42.662 -13.153   4.257  1.00  0.00    -0.272 N 
HETATM    4  H   UNL     1      42.747 -12.329   3.669  1.00  0.00     0.189 HD
HETATM    5  C   UNL     1      41.980 -13.247   5.442  1.00  0.00     0.121 A 
HETATM    6  C   UNL     1      42.154 -14.557   5.849  1.00  0.00     0.071 A 
ENDROOT
BRANCH   5   7
HETATM    7  C   UNL     1      41.275 -12.111   5.979  1.00  0.00     0.289 C 
HETATM    8  N   UNL     1      41.824 -11.568   7.132  1.00  0.00    -0.242 N 
HETATM    9  H   UNL     1      42.661 -11.962   7.540  1.00  0.00     0.192 HD
HETATM   10  O   UNL     1      40.261 -11.677   5.438  1.00  0.00    -0.264 OA
BRANCH   8  11
HETATM   11  N   UNL     1      41.202 -10.522   7.745  1.00  0.00    -0.183 NA
HETATM   12  C   UNL     1      41.158 -10.558   9.041  1.00  0.00     0.153 C 
BRANCH  12  13
HETATM   13  C   UNL     1      40.477  -9.490   9.817  1.00  0.00     0.027 A 
HETATM   14  C   UNL     1      39.201  -9.055   9.410  1.00  0.00     0.078 A 
HETATM   15  C   UNL     1      38.513  -8.095  10.137  1.00  0.00     0.038 A 
HETATM   16  C   UNL     1      39.089  -7.549  11.280  1.00  0.00     0.015 A 
HETATM   17  C   UNL     1      40.363  -7.948  11.707  1.00  0.00    -0.025 A 
HETATM   18  C   UNL     1      41.091  -8.929  10.979  1.00  0.00    -0.012 A 
HETATM   19  C   UNL     1      40.911  -7.366  12.862  1.00  0.00     0.012 A 
HETATM   20  C   UNL     1      42.382  -9.261  11.471  1.00  0.00     0.013 A 
HETATM   21  C   UNL     1      42.914  -8.668  12.620  1.00  0.00     0.001 A 
HETATM   22  C   UNL     1      42.177  -7.723  13.318  1.00  0.00     0.001 A 
BRANCH  14  23
HETATM   23  O   UNL     1      38.545  -9.530   8.305  1.00  0.00    -0.360 OA
HETATM   24  H   UNL     1      39.173  -9.552   7.548  1.00  0.00     0.217 HD
ENDBRANCH  14  23
ENDBRANCH  12  13
ENDBRANCH   8  11
ENDBRANCH   5   7
BRANCH   1  25
HETATM   25  C   UNL     1      43.364 -16.560   4.815  1.00  0.00     0.045 C 
HETATM   26  C   UNL     1      44.129 -17.235   5.788  1.00  0.00     0.066 C 
HETATM   27  C   UNL     1      44.737 -16.724   7.042  1.00  0.00     0.073 C 
HETATM   28  N   UNL     1      44.279 -18.525   5.476  1.00  0.00    -0.171 NA
HETATM   29  N   UNL     1      43.755 -18.661   4.225  1.00  0.00    -0.237 N 
HETATM   30  C   UNL     1      43.074 -17.509   3.847  1.00  0.00     0.047 C 
HETATM   31  C   UNL     1      42.172 -17.380   2.671  1.00  0.00     0.071 C 
BRANCH  29  32
HETATM   32  C   UNL     1      43.963 -19.891   3.526  1.00  0.00     0.058 A 
HETATM   33  C   UNL     1      44.548 -20.972   4.211  1.00  0.00     0.031 A 
HETATM   34  C   UNL     1      44.771 -22.189   3.564  1.00  0.00     0.002 A 
HETATM   35  C   UNL     1      44.427 -22.340   2.225  1.00  0.00     0.000 A 
HETATM   36  C   UNL     1      43.873 -21.268   1.527  1.00  0.00     0.002 A 
HETATM   37  C   UNL     1      43.645 -20.047   2.171  1.00  0.00     0.031 A 
ENDBRANCH  29  32
ENDBRANCH   1  25
TORSDOF 6
ENDMDL
MODEL 8
REMARK VINA RESULT:      -8.6      1.733      2.718
REMARK  6 active torsions:
REMARK  status: ('A' for Active; 'I' for Inactive)
REMARK    1  A    between atoms: N_4  and  C_5 
REMARK    2  A    between atoms: C_13  and  C_14 
REMARK    3  A    between atoms: C_18  and  C_19 
REMARK       I    between atoms: C_19  and  N_20 
REMARK    4  A    between atoms: N_20  and  N_21 
REMARK    5  A    between atoms: C_22  and  C_23 
REMARK    6  A    between atoms: C_24  and  O_25 
ROOT
HETATM    1  C   UNL     1      41.015 -13.859   4.364  1.00  0.00     0.093 A 
HETATM    2  N   UNL     1      40.503 -12.830   3.684  1.00  0.00    -0.173 NA
HETATM    3  N   UNL     1      40.344 -11.876   4.613  1.00  0.00    -0.272 N 
HETATM    4  H   UNL     1      39.961 -10.975   4.340  1.00  0.00     0.189 HD
HETATM    5  C   UNL     1      40.720 -12.255   5.875  1.00  0.00     0.121 A 
HETATM    6  C   UNL     1      41.168 -13.556   5.736  1.00  0.00     0.071 A 
ENDROOT
BRANCH   5   7
HETATM    7  C   UNL     1      40.583 -11.351   6.989  1.00  0.00     0.289 C 
HETATM    8  N   UNL     1      41.748 -11.120   7.707  1.00  0.00    -0.242 N 
HETATM    9  H   UNL     1      42.616 -11.566   7.440  1.00  0.00     0.192 HD
HETATM   10  O   UNL     1      39.501 -10.840   7.266  1.00  0.00    -0.264 OA
BRANCH   8  11
HETATM   11  N   UNL     1      41.712 -10.319   8.808  1.00  0.00    -0.183 NA
HETATM   12  C   UNL     1      41.878 -10.906   9.953  1.00  0.00     0.153 C 
BRANCH  12  13
HETATM   13  C   UNL     1      41.825 -10.140  11.224  1.00  0.00     0.027 A 
HETATM   14  C   UNL     1      43.014  -9.931  11.948  1.00  0.00     0.078 A 
HETATM   15  C   UNL     1      43.012  -9.178  13.114  1.00  0.00     0.038 A 
HETATM   16  C   UNL     1      41.823  -8.626  13.578  1.00  0.00     0.015 A 
HETATM   17  C   UNL     1      40.618  -8.825  12.891  1.00  0.00    -0.025 A 
HETATM   18  C   UNL     1      40.590  -9.594  11.695  1.00  0.00    -0.012 A 
HETATM   19  C   UNL     1      39.438  -8.257  13.399  1.00  0.00     0.012 A 
HETATM   20  C   UNL     1      39.324  -9.761  11.073  1.00  0.00     0.013 A 
HETATM   21  C   UNL     1      38.159  -9.192  11.596  1.00  0.00     0.001 A 
HETATM   22  C   UNL     1      38.217  -8.437  12.757  1.00  0.00     0.001 A 
BRANCH  14  23
HETATM   23  O   UNL     1      44.236 -10.425  11.576  1.00  0.00    -0.360 OA
HETATM   24  H   UNL     1      44.935  -9.970  12.099  1.00  0.00     0.217 HD
ENDBRANCH  14  23
ENDBRANCH  12  13
ENDBRANCH   8  11
ENDBRANCH   5   7
BRANCH   1  25
HETATM   25  C   UNL     1      41.324 -15.144   3.736  1.00  0.00     0.045 C 
HETATM   26  C   UNL     1      40.576 -15.801   2.739  1.00  0.00     0.066 C 
HETATM   27  C   UNL     1      39.294 -15.411   2.102  1.00  0.00     0.073 C 
HETATM   28  N   UNL     1      41.176 -16.927   2.347  1.00  0.00    -0.171 NA
HETATM   29  N   UNL     1      42.229 -17.094   3.196  1.00  0.00    -0.237 N 
HETATM   30  C   UNL     1      42.422 -15.957   3.973  1.00  0.00     0.047 C 
HETATM   31  C   UNL     1      43.611 -15.677   4.822  1.00  0.00     0.071 C 
BRANCH  29  32
HETATM   32  C   UNL     1      42.942 -18.333   3.167  1.00  0.00     0.058 A 
HETATM   33  C   UNL     1      43.663 -18.730   4.308  1.00  0.00     0.031 A 
HETATM   34  C   UNL     1      44.375 -19.931   4.320  1.00  0.00     0.002 A 
HETATM   35  C   UNL     1      44.390 -20.744   3.190  1.00  0.00     0.000 A 
HETATM   36  C   UNL     1      43.703 -20.348   2.044  1.00  0.00     0.002 A 
HETATM   37  C   UNL     1      42.985 -19.147   2.028  1.00  0.00     0.031 A 
ENDBRANCH  29  32
ENDBRANCH   1  25
TORSDOF 6
ENDMDL
MODEL 9
REMARK VINA RESULT:      -8.6      7.538     11.811
REMARK  6 active torsions:
REMARK  status: ('A' for Active; 'I' for Inactive)
REMARK    1  A    between atoms: N_4  and  C_5 
REMARK    2  A    between atoms: C_13  and  C_14 
REMARK    3  A    between atoms: C_18  and  C_19 
REMARK       I    between atoms: C_19  and  N_20 
REMARK    4  A    between atoms: N_20  and  N_21 
REMARK    5  A    between atoms: C_22  and  C_23 
REMARK    6  A    between atoms: C_24  and  O_25 
ROOT
HETATM    1  C   UNL     1      39.930 -13.944  -1.861  1.00  0.00     0.093 A 
HETATM    2  N   UNL     1      41.132 -13.804  -2.429  1.00  0.00    -0.173 NA
HETATM    3  N   UNL     1      41.975 -14.347  -1.538  1.00  0.00    -0.272 N 
HETATM    4  H   UNL     1      42.970 -14.363  -1.742  1.00  0.00     0.189 HD
HETATM    5  C   UNL     1      41.365 -14.820  -0.405  1.00  0.00     0.121 A 
HETATM    6  C   UNL     1      40.019 -14.570  -0.596  1.00  0.00     0.071 A 
ENDROOT
BRANCH   5   7
HETATM    7  C   UNL     1      42.139 -15.407   0.660  1.00  0.00     0.289 C 
HETATM    8  N   UNL     1      42.781 -16.594   0.337  1.00  0.00    -0.242 N 
HETATM    9  H   UNL     1      42.696 -16.991  -0.589  1.00  0.00     0.192 HD
HETATM   10  O   UNL     1      42.205 -14.877   1.766  1.00  0.00    -0.264 OA
BRANCH   8  11
HETATM   11  N   UNL     1      43.498 -17.252   1.290  1.00  0.00    -0.183 NA
HETATM   12  C   UNL     1      42.903 -18.247   1.872  1.00  0.00     0.153 C 
BRANCH  12  13
HETATM   13  C   UNL     1      43.573 -19.018   2.951  1.00  0.00     0.027 A 
HETATM   14  C   UNL     1      43.990 -20.337   2.692  1.00  0.00     0.078 A 
HETATM   15  C   UNL     1      44.664 -21.071   3.658  1.00  0.00     0.038 A 
HETATM   16  C   UNL     1      44.927 -20.502   4.900  1.00  0.00     0.015 A 
HETATM   17  C   UNL     1      44.514 -19.196   5.197  1.00  0.00    -0.025 A 
HETATM   18  C   UNL     1      43.821 -18.422   4.227  1.00  0.00    -0.012 A 
HETATM   19  C   UNL     1      44.793 -18.662   6.466  1.00  0.00     0.012 A 
HETATM   20  C   UNL     1      43.423 -17.116   4.618  1.00  0.00     0.013 A 
HETATM   21  C   UNL     1      43.705 -16.602   5.887  1.00  0.00     0.001 A 
HETATM   22  C   UNL     1      44.394 -17.374   6.810  1.00  0.00     0.001 A 
BRANCH  14  23
HETATM   23  O   UNL     1      43.785 -20.988   1.504  1.00  0.00    -0.360 OA
HETATM   24  H   UNL     1      44.476 -21.681   1.399  1.00  0.00     0.217 HD
ENDBRANCH  14  23
ENDBRANCH  12  13
ENDBRANCH   8  11
ENDBRANCH   5   7
BRANCH   1  25
HETATM   25  C   UNL     1      38.702 -13.456  -2.486  1.00  0.00     0.045 C 
HETATM   26  C   UNL     1      37.887 -14.146  -3.407  1.00  0.00     0.066 C 
HETATM   27  C   UNL     1      38.065 -15.490  -4.011  1.00  0.00     0.073 C 
HETATM   28  N   UNL     1      36.809 -13.429  -3.731  1.00  0.00    -0.171 NA
HETATM   29  N   UNL     1      36.994 -12.209  -3.152  1.00  0.00    -0.237 N 
HETATM   30  C   UNL     1      38.077 -12.235  -2.280  1.00  0.00     0.047 C 
HETATM   31  C   UNL     1      38.423 -11.177  -1.294  1.00  0.00     0.071 C 
BRANCH  29  32
HETATM   32  C   UNL     1      36.103 -11.145  -3.498  1.00  0.00     0.058 A 
HETATM   33  C   UNL     1      34.847 -11.079  -2.869  1.00  0.00     0.031 A 
HETATM   34  C   UNL     1      33.946 -10.058  -3.181  1.00  0.00     0.002 A 
HETATM   35  C   UNL     1      34.281  -9.100  -4.133  1.00  0.00     0.000 A 
HETATM   36  C   UNL     1      35.511  -9.171  -4.783  1.00  0.00     0.002 A 
HETATM   37  C   UNL     1      36.418 -10.190  -4.472  1.00  0.00     0.031 A 
ENDBRANCH  29  32
ENDBRANCH   1  25
TORSDOF 6
ENDMDL
MODEL 10
REMARK VINA RESULT:      -8.5      5.868     10.051
REMARK  6 active torsions:
REMARK  status: ('A' for Active; 'I' for Inactive)
REMARK    1  A    between atoms: N_4  and  C_5 
REMARK    2  A    between atoms: C_13  and  C_14 
REMARK    3  A    between atoms: C_18  and  C_19 
REMARK       I    between atoms: C_19  and  N_20 
REMARK    4  A    between atoms: N_20  and  N_21 
REMARK    5  A    between atoms: C_22  and  C_23 
REMARK    6  A    between atoms: C_24  and  O_25 
ROOT
HETATM    1  C   UNL     1      42.092 -14.731   4.701  1.00  0.00     0.093 A 
HETATM    2  N   UNL     1      41.171 -14.106   5.440  1.00  0.00    -0.173 NA
HETATM    3  N   UNL     1      40.795 -13.067   4.679  1.00  0.00    -0.272 N 
HETATM    4  H   UNL     1      40.089 -12.426   5.029  1.00  0.00     0.189 HD
HETATM    5  C   UNL     1      41.452 -12.987   3.479  1.00  0.00     0.121 A 
HETATM    6  C   UNL     1      42.308 -14.072   3.468  1.00  0.00     0.071 A 
ENDROOT
BRANCH   5   7
HETATM    7  C   UNL     1      41.181 -11.909   2.561  1.00  0.00     0.289 C 
HETATM    8  N   UNL     1      42.086 -11.784   1.516  1.00  0.00    -0.242 N 
HETATM    9  H   UNL     1      42.867 -12.421   1.430  1.00  0.00     0.192 HD
HETATM   10  O   UNL     1      40.215 -11.166   2.717  1.00  0.00    -0.264 OA
BRANCH   8  11
HETATM   11  N   UNL     1      41.945 -10.766   0.622  1.00  0.00    -0.183 NA
HETATM   12  C   UNL     1      42.814 -10.721  -0.340  1.00  0.00     0.153 C 
BRANCH  12  13
HETATM   13  C   UNL     1      42.781  -9.636  -1.355  1.00  0.00     0.027 A 
HETATM   14  C   UNL     1      43.013  -8.309  -0.947  1.00  0.00     0.078 A 
HETATM   15  C   UNL     1      43.039  -7.276  -1.873  1.00  0.00     0.038 A 
HETATM   16  C   UNL     1      42.829  -7.550  -3.220  1.00  0.00     0.015 A 
HETATM   17  C   UNL     1      42.581  -8.857  -3.661  1.00  0.00    -0.025 A 
HETATM   18  C   UNL     1      42.547  -9.934  -2.733  1.00  0.00    -0.012 A 
HETATM   19  C   UNL     1      42.366  -9.089  -5.029  1.00  0.00     0.012 A 
HETATM   20  C   UNL     1      42.271 -11.224  -3.263  1.00  0.00     0.013 A 
HETATM   21  C   UNL     1      42.055 -11.435  -4.628  1.00  0.00     0.001 A 
HETATM   22  C   UNL     1      42.106 -10.368  -5.512  1.00  0.00     0.001 A 
BRANCH  14  23
HETATM   23  O   UNL     1      43.235  -7.933   0.351  1.00  0.00    -0.360 OA
HETATM   24  H   UNL     1      42.528  -8.317   0.919  1.00  0.00     0.217 HD
ENDBRANCH  14  23
ENDBRANCH  12  13
ENDBRANCH   8  11
ENDBRANCH   5   7
BRANCH   1  25
HETATM   25  C   UNL     1      42.800 -15.923   5.165  1.00  0.00     0.045 C 
HETATM   26  C   UNL     1      43.791 -15.984   6.165  1.00  0.00     0.066 C 
HETATM   27  C   UNL     1      44.401 -14.893   6.966  1.00  0.00     0.073 C 
HETATM   28  N   UNL     1      44.184 -17.241   6.381  1.00  0.00    -0.171 NA
HETATM   29  N   UNL     1      43.574 -17.985   5.416  1.00  0.00    -0.237 N 
HETATM   30  C   UNL     1      42.623 -17.230   4.738  1.00  0.00     0.047 C 
HETATM   31  C   UNL     1      41.596 -17.764   3.803  1.00  0.00     0.071 C 
BRANCH  29  32
HETATM   32  C   UNL     1      43.969 -19.349   5.250  1.00  0.00     0.058 A 
HETATM   33  C   UNL     1      43.909 -20.214   6.358  1.00  0.00     0.031 A 
HETATM   34  C   UNL     1      44.289 -21.553   6.240  1.00  0.00     0.002 A 
HETATM   35  C   UNL     1      44.748 -22.042   5.021  1.00  0.00     0.000 A 
HETATM   36  C   UNL     1      44.839 -21.189   3.923  1.00  0.00     0.002 A 
HETATM   37  C   UNL     1      44.457 -19.847   4.036  1.00  0.00     0.031 A 
ENDBRANCH  29  32
ENDBRANCH   1  25
TORSDOF 6
ENDMDL
