MODEL 1
REMARK VINA RESULT:      -9.5      0.000      0.000
REMARK  8 active torsions:
REMARK  status: ('A' for Active; 'I' for Inactive)
REMARK    1  A    between atoms: C_8  and  C_9 
REMARK    2  A    between atoms: N_10  and  C_11 
REMARK    3  A    between atoms: C_11  and  C_12 
REMARK    4  A    between atoms: C_17  and  S_18 
REMARK    5  A    between atoms: S_18  and  C_19 
REMARK    6  A    between atoms: C_19  and  C_20 
REMARK       I    between atoms: C_20  and  N_21 
REMARK    7  A    between atoms: N_21  and  C_22 
REMARK    8  A    between atoms: C_30  and  O_31 
ROOT
HETATM    1  C   UNL     1      43.303 -15.879   5.862  1.00  0.00     0.167 A 
HETATM    2  N   UNL     1      42.261 -15.181   5.271  1.00  0.00    -0.301 N 
HETATM    3  C   UNL     1      42.541 -13.856   5.496  1.00  0.00     0.192 A 
HETATM    4  N   UNL     1      43.654 -13.739   6.174  1.00  0.00    -0.122 NA
HETATM    5  N   UNL     1      44.134 -14.992   6.393  1.00  0.00    -0.128 NA
ENDROOT
BRANCH   1   6
HETATM    6  C   UNL     1      43.594 -17.323   5.879  1.00  0.00     0.046 A 
HETATM    7  C   UNL     1      43.944 -18.052   4.735  1.00  0.00     0.030 A 
HETATM    8  C   UNL     1      44.192 -19.440   4.786  1.00  0.00    -0.025 A 
HETATM    9  C   UNL     1      44.555 -20.163   3.637  1.00  0.00     0.012 A 
HETATM   10  C   UNL     1      44.066 -20.126   6.013  1.00  0.00    -0.023 A 
HETATM   11  C   UNL     1      44.783 -21.539   3.700  1.00  0.00     0.001 A 
HETATM   12  C   UNL     1      44.649 -22.213   4.910  1.00  0.00     0.001 A 
HETATM   13  C   UNL     1      44.293 -21.511   6.061  1.00  0.00     0.012 A 
HETATM   14  C   UNL     1      43.700 -19.411   7.158  1.00  0.00     0.049 A 
HETATM   15  C   UNL     1      43.462 -18.040   7.085  1.00  0.00     0.080 A 
BRANCH  15  16
HETATM   16  O   UNL     1      43.079 -17.448   8.265  1.00  0.00    -0.360 OA
HETATM   17  H   UNL     1      43.820 -17.532   8.901  1.00  0.00     0.217 HD
ENDBRANCH  15  16
ENDBRANCH   1   6
BRANCH   2  18
HETATM   18  C   UNL     1      41.081 -15.703   4.605  1.00  0.00     0.198 C 
BRANCH  18  19
HETATM   19  C   UNL     1      41.350 -16.172   3.227  1.00  0.00     0.070 A 
HETATM   20  O   UNL     1      42.343 -15.510   2.565  1.00  0.00    -0.325 OA
HETATM   21  C   UNL     1      42.468 -16.091   1.346  1.00  0.00     0.142 A 
HETATM   22  C   UNL     1      41.570 -17.124   1.213  1.00  0.00     0.027 A 
HETATM   23  C   UNL     1      40.848 -17.180   2.430  1.00  0.00     0.036 A 
ENDBRANCH  18  19
ENDBRANCH   2  18
BRANCH   3  24
HETATM   24  S   UNL     1      41.586 -12.518   4.966  1.00  0.00    -0.081 SA
BRANCH  24  25
HETATM   25  C   UNL     1      40.949 -11.910   6.555  1.00  0.00     0.185 C 
BRANCH  25  26
HETATM   26  C   UNL     1      41.935 -11.029   7.305  1.00  0.00     0.227 C 
HETATM   27  N   UNL     1      42.759 -11.681   8.193  1.00  0.00    -0.356 N 
HETATM   28  H   UNL     1      42.655 -12.690   8.294  1.00  0.00     0.162 HD
HETATM   29  O   UNL     1      41.921  -9.806   7.180  1.00  0.00    -0.273 OA
BRANCH  27  30
HETATM   30  C   UNL     1      43.584 -10.986   9.154  1.00  0.00     0.084 C 
HETATM   31  C   UNL     1      42.982 -11.011  10.554  1.00  0.00     0.025 C 
HETATM   32  C   UNL     1      44.142 -10.619  11.459  1.00  0.00     0.002 C 
HETATM   33  C   UNL     1      45.411 -11.052  10.724  1.00  0.00     0.002 C 
HETATM   34  C   UNL     1      44.955 -11.619   9.381  1.00  0.00     0.025 C 
ENDBRANCH  27  30
ENDBRANCH  25  26
ENDBRANCH  24  25
ENDBRANCH   3  24
TORSDOF 8
ENDMDL
MODEL 2
REMARK VINA RESULT:      -9.5      1.581      2.050
REMARK  8 active torsions:
REMARK  status: ('A' for Active; 'I' for Inactive)
REMARK    1  A    between atoms: C_8  and  C_9 
REMARK    2  A    between atoms: N_10  and  C_11 
REMARK    3  A    between atoms: C_11  and  C_12 
REMARK    4  A    between atoms: C_17  and  S_18 
REMARK    5  A    between atoms: S_18  and  C_19 
REMARK    6  A    between atoms: C_19  and  C_20 
REMARK       I    between atoms: C_20  and  N_21 
REMARK    7  A    between atoms: N_21  and  C_22 
REMARK    8  A    between atoms: C_30  and  O_31 
ROOT
HETATM    1  C   UNL     1      42.067 -15.610   4.918  1.00  0.00     0.167 A 
HETATM    2  N   UNL     1      42.255 -14.321   4.443  1.00  0.00    -0.301 N 
HETATM    3  C   UNL     1      41.361 -13.546   5.140  1.00  0.00     0.192 A 
HETATM    4  N   UNL     1      40.671 -14.287   5.968  1.00  0.00    -0.122 NA
HETATM    5  N   UNL     1      41.115 -15.566   5.841  1.00  0.00    -0.128 NA
ENDROOT
BRANCH   1   6
HETATM    6  C   UNL     1      42.791 -16.854   4.609  1.00  0.00     0.046 A 
HETATM    7  C   UNL     1      42.536 -17.631   3.470  1.00  0.00     0.030 A 
HETATM    8  C   UNL     1      43.234 -18.832   3.219  1.00  0.00    -0.025 A 
HETATM    9  C   UNL     1      42.983 -19.599   2.069  1.00  0.00     0.012 A 
HETATM   10  C   UNL     1      44.200 -19.283   4.144  1.00  0.00    -0.023 A 
HETATM   11  C   UNL     1      43.671 -20.793   1.841  1.00  0.00     0.001 A 
HETATM   12  C   UNL     1      44.616 -21.238   2.759  1.00  0.00     0.001 A 
HETATM   13  C   UNL     1      44.881 -20.488   3.905  1.00  0.00     0.012 A 
HETATM   14  C   UNL     1      44.450 -18.524   5.292  1.00  0.00     0.049 A 
HETATM   15  C   UNL     1      43.750 -17.340   5.519  1.00  0.00     0.080 A 
BRANCH  15  16
HETATM   16  O   UNL     1      44.056 -16.696   6.694  1.00  0.00    -0.360 OA
HETATM   17  H   UNL     1      44.611 -15.918   6.479  1.00  0.00     0.217 HD
ENDBRANCH  15  16
ENDBRANCH   1   6
BRANCH   2  18
HETATM   18  C   UNL     1      43.148 -13.861   3.395  1.00  0.00     0.198 C 
BRANCH  18  19
HETATM   19  C   UNL     1      42.499 -13.789   2.067  1.00  0.00     0.070 A 
HETATM   20  O   UNL     1      42.525 -12.563   1.467  1.00  0.00    -0.325 OA
HETATM   21  C   UNL     1      41.921 -12.696   0.260  1.00  0.00     0.142 A 
HETATM   22  C   UNL     1      41.508 -13.993   0.070  1.00  0.00     0.027 A 
HETATM   23  C   UNL     1      41.885 -14.703   1.236  1.00  0.00     0.036 A 
ENDBRANCH  18  19
ENDBRANCH   2  18
BRANCH   3  24
HETATM   24  S   UNL     1      41.158 -11.838   4.972  1.00  0.00    -0.081 SA
BRANCH  24  25
HETATM   25  C   UNL     1      40.694 -11.387   6.669  1.00  0.00     0.185 C 
BRANCH  25  26
HETATM   26  C   UNL     1      41.800 -10.673   7.430  1.00  0.00     0.227 C 
HETATM   27  N   UNL     1      42.475 -11.436   8.354  1.00  0.00    -0.356 N 
HETATM   28  H   UNL     1      42.195 -12.410   8.470  1.00  0.00     0.162 HD
HETATM   29  O   UNL     1      42.002  -9.470   7.280  1.00  0.00    -0.273 OA
BRANCH  27  30
HETATM   30  C   UNL     1      43.385 -10.872   9.323  1.00  0.00     0.084 C 
HETATM   31  C   UNL     1      42.910 -11.095  10.755  1.00  0.00     0.025 C 
HETATM   32  C   UNL     1      44.148 -10.821  11.598  1.00  0.00     0.002 C 
HETATM   33  C   UNL     1      45.344 -11.137  10.701  1.00  0.00     0.002 C 
HETATM   34  C   UNL     1      44.769 -11.518   9.339  1.00  0.00     0.025 C 
ENDBRANCH  27  30
ENDBRANCH  25  26
ENDBRANCH  24  25
ENDBRANCH   3  24
TORSDOF 8
ENDMDL
MODEL 3
REMARK VINA RESULT:      -9.4      1.853      3.692
REMARK  8 active torsions:
REMARK  status: ('A' for Active; 'I' for Inactive)
REMARK    1  A    between atoms: C_8  and  C_9 
REMARK    2  A    between atoms: N_10  and  C_11 
REMARK    3  A    between atoms: C_11  and  C_12 
REMARK    4  A    between atoms: C_17  and  S_18 
REMARK    5  A    between atoms: S_18  and  C_19 
REMARK    6  A    between atoms: C_19  and  C_20 
REMARK       I    between atoms: C_20  and  N_21 
REMARK    7  A    between atoms: N_21  and  C_22 
REMARK    8  A    between atoms: C_30  and  O_31 
ROOT
HETATM    1  C   UNL     1      41.217 -15.092   3.403  1.00  0.00     0.167 A 
HETATM    2  N   UNL     1      41.833 -13.927   3.838  1.00  0.00    -0.301 N 
HETATM    3  C   UNL     1      40.807 -13.052   4.095  1.00  0.00     0.192 A 
HETATM    4  N   UNL     1      39.656 -13.617   3.834  1.00  0.00    -0.122 NA
HETATM    5  N   UNL     1      39.907 -14.885   3.416  1.00  0.00    -0.128 NA
ENDROOT
BRANCH   1   6
HETATM    6  C   UNL     1      41.793 -16.402   3.058  1.00  0.00     0.046 A 
HETATM    7  C   UNL     1      42.691 -17.091   3.885  1.00  0.00     0.030 A 
HETATM    8  C   UNL     1      43.242 -18.334   3.509  1.00  0.00    -0.025 A 
HETATM    9  C   UNL     1      44.132 -19.026   4.349  1.00  0.00     0.012 A 
HETATM   10  C   UNL     1      42.904 -18.898   2.260  1.00  0.00    -0.023 A 
HETATM   11  C   UNL     1      44.681 -20.249   3.957  1.00  0.00     0.001 A 
HETATM   12  C   UNL     1      44.351 -20.797   2.722  1.00  0.00     0.001 A 
HETATM   13  C   UNL     1      43.467 -20.126   1.877  1.00  0.00     0.012 A 
HETATM   14  C   UNL     1      42.022 -18.211   1.420  1.00  0.00     0.049 A 
HETATM   15  C   UNL     1      41.488 -16.985   1.812  1.00  0.00     0.080 A 
BRANCH  15  16
HETATM   16  O   UNL     1      40.659 -16.387   0.893  1.00  0.00    -0.360 OA
HETATM   17  H   UNL     1      40.217 -15.629   1.330  1.00  0.00     0.217 HD
ENDBRANCH  15  16
ENDBRANCH   1   6
BRANCH   2  18
HETATM   18  C   UNL     1      43.250 -13.638   3.951  1.00  0.00     0.198 C 
BRANCH  18  19
HETATM   19  C   UNL     1      43.813 -13.987   5.275  1.00  0.00     0.070 A 
HETATM   20  O   UNL     1      45.067 -13.509   5.524  1.00  0.00    -0.325 OA
HETATM   21  C   UNL     1      45.400 -13.896   6.781  1.00  0.00     0.142 A 
HETATM   22  C   UNL     1      44.374 -14.614   7.350  1.00  0.00     0.027 A 
HETATM   23  C   UNL     1      43.345 -14.671   6.379  1.00  0.00     0.036 A 
ENDBRANCH  18  19
ENDBRANCH   2  18
BRANCH   3  24
HETATM   24  S   UNL     1      40.981 -11.437   4.683  1.00  0.00    -0.081 SA
BRANCH  24  25
HETATM   25  C   UNL     1      40.896 -11.721   6.476  1.00  0.00     0.185 C 
BRANCH  25  26
HETATM   26  C   UNL     1      41.880 -10.878   7.269  1.00  0.00     0.227 C 
HETATM   27  N   UNL     1      42.619 -11.554   8.213  1.00  0.00    -0.356 N 
HETATM   28  H   UNL     1      42.459 -12.556   8.321  1.00  0.00     0.162 HD
HETATM   29  O   UNL     1      41.935  -9.658   7.127  1.00  0.00    -0.273 OA
BRANCH  27  30
HETATM   30  C   UNL     1      43.421 -10.885   9.210  1.00  0.00     0.084 C 
HETATM   31  C   UNL     1      42.785 -10.942  10.594  1.00  0.00     0.025 C 
HETATM   32  C   UNL     1      43.923 -10.575  11.536  1.00  0.00     0.002 C 
HETATM   33  C   UNL     1      45.208 -10.994  10.823  1.00  0.00     0.002 C 
HETATM   34  C   UNL     1      44.785 -11.527   9.456  1.00  0.00     0.025 C 
ENDBRANCH  27  30
ENDBRANCH  25  26
ENDBRANCH  24  25
ENDBRANCH   3  24
TORSDOF 8
ENDMDL
MODEL 4
REMARK VINA RESULT:      -8.8      2.775      5.107
REMARK  8 active torsions:
REMARK  status: ('A' for Active; 'I' for Inactive)
REMARK    1  A    between atoms: C_8  and  C_9 
REMARK    2  A    between atoms: N_10  and  C_11 
REMARK    3  A    between atoms: C_11  and  C_12 
REMARK    4  A    between atoms: C_17  and  S_18 
REMARK    5  A    between atoms: S_18  and  C_19 
REMARK    6  A    between atoms: C_19  and  C_20 
REMARK       I    between atoms: C_20  and  N_21 
REMARK    7  A    between atoms: N_21  and  C_22 
REMARK    8  A    between atoms: C_30  and  O_31 
ROOT
HETATM    1  C   UNL     1      43.477 -16.611   5.825  1.00  0.00     0.167 A 
HETATM    2  N   UNL     1      42.401 -15.827   5.439  1.00  0.00    -0.301 N 
HETATM    3  C   UNL     1      42.701 -14.561   5.879  1.00  0.00     0.192 A 
HETATM    4  N   UNL     1      43.857 -14.559   6.492  1.00  0.00    -0.122 NA
HETATM    5  N   UNL     1      44.346 -15.826   6.450  1.00  0.00    -0.128 NA
ENDROOT
BRANCH   1   6
HETATM    6  C   UNL     1      43.763 -18.032   5.563  1.00  0.00     0.046 A 
HETATM    7  C   UNL     1      43.994 -18.548   4.281  1.00  0.00     0.030 A 
HETATM    8  C   UNL     1      44.240 -19.920   4.066  1.00  0.00    -0.025 A 
HETATM    9  C   UNL     1      44.484 -20.429   2.779  1.00  0.00     0.012 A 
HETATM   10  C   UNL     1      44.234 -20.810   5.162  1.00  0.00    -0.023 A 
HETATM   11  C   UNL     1      44.711 -21.793   2.580  1.00  0.00     0.001 A 
HETATM   12  C   UNL     1      44.696 -22.667   3.662  1.00  0.00     0.001 A 
HETATM   13  C   UNL     1      44.459 -22.179   4.947  1.00  0.00     0.012 A 
HETATM   14  C   UNL     1      43.988 -20.308   6.444  1.00  0.00     0.049 A 
HETATM   15  C   UNL     1      43.749 -18.948   6.633  1.00  0.00     0.080 A 
BRANCH  15  16
HETATM   16  O   UNL     1      43.488 -18.574   7.930  1.00  0.00    -0.360 OA
HETATM   17  H   UNL     1      43.857 -19.260   8.525  1.00  0.00     0.217 HD
ENDBRANCH  15  16
ENDBRANCH   1   6
BRANCH   2  18
HETATM   18  C   UNL     1      41.177 -16.230   4.770  1.00  0.00     0.198 C 
BRANCH  18  19
HETATM   19  C   UNL     1      41.348 -16.431   3.314  1.00  0.00     0.070 A 
HETATM   20  O   UNL     1      42.498 -15.923   2.783  1.00  0.00    -0.325 OA
HETATM   21  C   UNL     1      42.497 -16.226   1.461  1.00  0.00     0.142 A 
HETATM   22  C   UNL     1      41.362 -16.929   1.132  1.00  0.00     0.027 A 
HETATM   23  C   UNL     1      40.619 -17.065   2.330  1.00  0.00     0.036 A 
ENDBRANCH  18  19
ENDBRANCH   2  18
BRANCH   3  24
HETATM   24  S   UNL     1      41.718 -13.157   5.663  1.00  0.00    -0.081 SA
BRANCH  24  25
HETATM   25  C   UNL     1      42.088 -12.750   3.932  1.00  0.00     0.185 C 
BRANCH  25  26
HETATM   26  C   UNL     1      40.847 -12.525   3.084  1.00  0.00     0.227 C 
HETATM   27  N   UNL     1      40.694 -13.377   2.014  1.00  0.00    -0.356 N 
HETATM   28  H   UNL     1      41.410 -14.086   1.859  1.00  0.00     0.162 HD
HETATM   29  O   UNL     1      40.088 -11.583   3.302  1.00  0.00    -0.273 OA
BRANCH  27  30
HETATM   30  C   UNL     1      39.713 -13.164   0.976  1.00  0.00     0.084 C 
HETATM   31  C   UNL     1      40.155 -13.751  -0.361  1.00  0.00     0.025 C 
HETATM   32  C   UNL     1      38.873 -13.800  -1.181  1.00  0.00     0.002 C 
HETATM   33  C   UNL     1      37.734 -13.925  -0.169  1.00  0.00     0.002 C 
HETATM   34  C   UNL     1      38.381 -13.872   1.213  1.00  0.00     0.025 C 
ENDBRANCH  27  30
ENDBRANCH  25  26
ENDBRANCH  24  25
ENDBRANCH   3  24
TORSDOF 8
ENDMDL
MODEL 5
REMARK VINA RESULT:      -8.6      3.128      6.282
REMARK  8 active torsions:
REMARK  status: ('A' for Active; 'I' for Inactive)
REMARK    1  A    between atoms: C_8  and  C_9 
REMARK    2  A    between atoms: N_10  and  C_11 
REMARK    3  A    between atoms: C_11  and  C_12 
REMARK    4  A    between atoms: C_17  and  S_18 
REMARK    5  A    between atoms: S_18  and  C_19 
REMARK    6  A    between atoms: C_19  and  C_20 
REMARK       I    between atoms: C_20  and  N_21 
REMARK    7  A    between atoms: N_21  and  C_22 
REMARK    8  A    between atoms: C_30  and  O_31 
ROOT
HETATM    1  C   UNL     1      43.048 -15.466   3.223  1.00  0.00     0.167 A 
HETATM    2  N   UNL     1      42.235 -14.868   4.174  1.00  0.00    -0.301 N 
HETATM    3  C   UNL     1      42.327 -13.520   3.930  1.00  0.00     0.192 A 
HETATM    4  N   UNL     1      43.131 -13.298   2.922  1.00  0.00    -0.122 NA
HETATM    5  N   UNL     1      43.570 -14.503   2.474  1.00  0.00    -0.128 NA
ENDROOT
BRANCH   1   6
HETATM    6  C   UNL     1      43.287 -16.890   2.934  1.00  0.00     0.046 A 
HETATM    7  C   UNL     1      43.786 -17.795   3.881  1.00  0.00     0.030 A 
HETATM    8  C   UNL     1      44.026 -19.148   3.561  1.00  0.00    -0.025 A 
HETATM    9  C   UNL     1      44.513 -20.053   4.519  1.00  0.00     0.012 A 
HETATM   10  C   UNL     1      43.781 -19.608   2.249  1.00  0.00    -0.023 A 
HETATM   11  C   UNL     1      44.760 -21.386   4.183  1.00  0.00     0.001 A 
HETATM   12  C   UNL     1      44.526 -21.833   2.886  1.00  0.00     0.001 A 
HETATM   13  C   UNL     1      44.038 -20.950   1.924  1.00  0.00     0.012 A 
HETATM   14  C   UNL     1      43.299 -18.710   1.292  1.00  0.00     0.049 A 
HETATM   15  C   UNL     1      43.068 -17.377   1.631  1.00  0.00     0.080 A 
BRANCH  15  16
HETATM   16  O   UNL     1      42.625 -16.580   0.603  1.00  0.00    -0.360 OA
HETATM   17  H   UNL     1      41.731 -16.886   0.343  1.00  0.00     0.217 HD
ENDBRANCH  15  16
ENDBRANCH   1   6
BRANCH   2  18
HETATM   18  C   UNL     1      41.486 -15.491   5.249  1.00  0.00     0.198 C 
BRANCH  18  19
HETATM   19  C   UNL     1      42.349 -16.046   6.316  1.00  0.00     0.070 A 
HETATM   20  O   UNL     1      41.939 -17.238   6.841  1.00  0.00    -0.325 OA
HETATM   21  C   UNL     1      42.858 -17.603   7.770  1.00  0.00     0.142 A 
HETATM   22  C   UNL     1      43.860 -16.664   7.847  1.00  0.00     0.027 A 
HETATM   23  C   UNL     1      43.534 -15.658   6.906  1.00  0.00     0.036 A 
ENDBRANCH  18  19
ENDBRANCH   2  18
BRANCH   3  24
HETATM   24  S   UNL     1      41.506 -12.276   4.805  1.00  0.00    -0.081 SA
BRANCH  24  25
HETATM   25  C   UNL     1      39.781 -12.642   4.370  1.00  0.00     0.185 C 
BRANCH  25  26
HETATM   26  C   UNL     1      39.431 -12.288   2.933  1.00  0.00     0.227 C 
HETATM   27  N   UNL     1      39.249 -13.356   2.085  1.00  0.00    -0.356 N 
HETATM   28  H   UNL     1      39.362 -14.296   2.464  1.00  0.00     0.162 HD
HETATM   29  O   UNL     1      39.406 -11.120   2.552  1.00  0.00    -0.273 OA
BRANCH  27  30
HETATM   30  C   UNL     1      39.146 -13.211   0.651  1.00  0.00     0.084 C 
HETATM   31  C   UNL     1      40.137 -14.102  -0.089  1.00  0.00     0.025 C 
HETATM   32  C   UNL     1      39.612 -14.126  -1.518  1.00  0.00     0.002 C 
HETATM   33  C   UNL     1      38.105 -13.889  -1.413  1.00  0.00     0.002 C 
HETATM   34  C   UNL     1      37.809 -13.662   0.067  1.00  0.00     0.025 C 
ENDBRANCH  27  30
ENDBRANCH  25  26
ENDBRANCH  24  25
ENDBRANCH   3  24
TORSDOF 8
ENDMDL
MODEL 6
REMARK VINA RESULT:      -8.6      1.820      3.199
REMARK  8 active torsions:
REMARK  status: ('A' for Active; 'I' for Inactive)
REMARK    1  A    between atoms: C_8  and  C_9 
REMARK    2  A    between atoms: N_10  and  C_11 
REMARK    3  A    between atoms: C_11  and  C_12 
REMARK    4  A    between atoms: C_17  and  S_18 
REMARK    5  A    between atoms: S_18  and  C_19 
REMARK    6  A    between atoms: C_19  and  C_20 
REMARK       I    between atoms: C_20  and  N_21 
REMARK    7  A    between atoms: N_21  and  C_22 
REMARK    8  A    between atoms: C_30  and  O_31 
ROOT
HETATM    1  C   UNL     1      41.983 -15.787   5.545  1.00  0.00     0.167 A 
HETATM    2  N   UNL     1      42.481 -14.495   5.469  1.00  0.00    -0.301 N 
HETATM    3  C   UNL     1      41.402 -13.679   5.704  1.00  0.00     0.192 A 
HETATM    4  N   UNL     1      40.327 -14.397   5.899  1.00  0.00    -0.122 NA
HETATM    5  N   UNL     1      40.686 -15.705   5.813  1.00  0.00    -0.128 NA
ENDROOT
BRANCH   1   6
HETATM    6  C   UNL     1      42.679 -17.082   5.461  1.00  0.00     0.046 A 
HETATM    7  C   UNL     1      42.981 -17.718   4.250  1.00  0.00     0.030 A 
HETATM    8  C   UNL     1      43.627 -18.971   4.210  1.00  0.00    -0.025 A 
HETATM    9  C   UNL     1      43.940 -19.597   2.990  1.00  0.00     0.012 A 
HETATM   10  C   UNL     1      43.963 -19.622   5.416  1.00  0.00    -0.023 A 
HETATM   11  C   UNL     1      44.565 -20.845   2.967  1.00  0.00     0.001 A 
HETATM   12  C   UNL     1      44.887 -21.486   4.159  1.00  0.00     0.001 A 
HETATM   13  C   UNL     1      44.588 -20.878   5.378  1.00  0.00     0.012 A 
HETATM   14  C   UNL     1      43.650 -19.004   6.632  1.00  0.00     0.049 A 
HETATM   15  C   UNL     1      43.013 -17.765   6.648  1.00  0.00     0.080 A 
BRANCH  15  16
HETATM   16  O   UNL     1      42.727 -17.269   7.897  1.00  0.00    -0.360 OA
HETATM   17  H   UNL     1      43.568 -17.193   8.395  1.00  0.00     0.217 HD
ENDBRANCH  15  16
ENDBRANCH   1   6
BRANCH   2  18
HETATM   18  C   UNL     1      43.829 -14.058   5.152  1.00  0.00     0.198 C 
BRANCH  18  19
HETATM   19  C   UNL     1      44.603 -13.644   6.343  1.00  0.00     0.070 A 
HETATM   20  O   UNL     1      45.898 -13.285   6.105  1.00  0.00    -0.325 OA
HETATM   21  C   UNL     1      46.434 -12.909   7.293  1.00  0.00     0.142 A 
HETATM   22  C   UNL     1      45.500 -13.016   8.295  1.00  0.00     0.027 A 
HETATM   23  C   UNL     1      44.314 -13.487   7.683  1.00  0.00     0.036 A 
ENDBRANCH  18  19
ENDBRANCH   2  18
BRANCH   3  24
HETATM   24  S   UNL     1      41.433 -11.951   5.747  1.00  0.00    -0.081 SA
BRANCH  24  25
HETATM   25  C   UNL     1      40.242 -11.628   7.080  1.00  0.00     0.185 C 
BRANCH  25  26
HETATM   26  C   UNL     1      40.762 -10.663   8.135  1.00  0.00     0.227 C 
HETATM   27  N   UNL     1      41.822 -11.117   8.885  1.00  0.00    -0.356 N 
HETATM   28  H   UNL     1      42.181 -12.052   8.694  1.00  0.00     0.162 HD
HETATM   29  O   UNL     1      40.202  -9.590   8.348  1.00  0.00    -0.273 OA
BRANCH  27  30
HETATM   30  C   UNL     1      42.287 -10.441  10.074  1.00  0.00     0.084 C 
HETATM   31  C   UNL     1      41.726 -11.065  11.347  1.00  0.00     0.025 C 
HETATM   32  C   UNL     1      42.621 -10.516  12.450  1.00  0.00     0.002 C 
HETATM   33  C   UNL     1      43.966 -10.220  11.788  1.00  0.00     0.002 C 
HETATM   34  C   UNL     1      43.794 -10.539  10.305  1.00  0.00     0.025 C 
ENDBRANCH  27  30
ENDBRANCH  25  26
ENDBRANCH  24  25
ENDBRANCH   3  24
TORSDOF 8
ENDMDL
MODEL 7
REMARK VINA RESULT:      -8.6      3.185      5.203
REMARK  8 active torsions:
REMARK  status: ('A' for Active; 'I' for Inactive)
REMARK    1  A    between atoms: C_8  and  C_9 
REMARK    2  A    between atoms: N_10  and  C_11 
REMARK    3  A    between atoms: C_11  and  C_12 
REMARK    4  A    between atoms: C_17  and  S_18 
REMARK    5  A    between atoms: S_18  and  C_19 
REMARK    6  A    between atoms: C_19  and  C_20 
REMARK       I    between atoms: C_20  and  N_21 
REMARK    7  A    between atoms: N_21  and  C_22 
REMARK    8  A    between atoms: C_30  and  O_31 
ROOT
HETATM    1  C   UNL     1      42.248 -15.671   4.935  1.00  0.00     0.167 A 
HETATM    2  N   UNL     1      42.433 -14.394   4.424  1.00  0.00    -0.301 N 
HETATM    3  C   UNL     1      41.594 -13.589   5.154  1.00  0.00     0.192 A 
HETATM    4  N   UNL     1      40.939 -14.301   6.035  1.00  0.00    -0.122 NA
HETATM    5  N   UNL     1      41.350 -15.590   5.908  1.00  0.00    -0.128 NA
ENDROOT
BRANCH   1   6
HETATM    6  C   UNL     1      42.929 -16.935   4.610  1.00  0.00     0.046 A 
HETATM    7  C   UNL     1      42.640 -17.695   3.469  1.00  0.00     0.030 A 
HETATM    8  C   UNL     1      43.297 -18.915   3.203  1.00  0.00    -0.025 A 
HETATM    9  C   UNL     1      43.011 -19.666   2.050  1.00  0.00     0.012 A 
HETATM   10  C   UNL     1      44.257 -19.403   4.115  1.00  0.00    -0.023 A 
HETATM   11  C   UNL     1      43.659 -20.879   1.808  1.00  0.00     0.001 A 
HETATM   12  C   UNL     1      44.599 -21.361   2.714  1.00  0.00     0.001 A 
HETATM   13  C   UNL     1      44.898 -20.627   3.862  1.00  0.00     0.012 A 
HETATM   14  C   UNL     1      44.542 -18.660   5.266  1.00  0.00     0.049 A 
HETATM   15  C   UNL     1      43.881 -17.457   5.507  1.00  0.00     0.080 A 
BRANCH  15  16
HETATM   16  O   UNL     1      44.218 -16.830   6.683  1.00  0.00    -0.360 OA
HETATM   17  H   UNL     1      45.187 -16.911   6.805  1.00  0.00     0.217 HD
ENDBRANCH  15  16
ENDBRANCH   1   6
BRANCH   2  18
HETATM   18  C   UNL     1      43.274 -13.972   3.319  1.00  0.00     0.198 C 
BRANCH  18  19
HETATM   19  C   UNL     1      42.541 -13.865   2.037  1.00  0.00     0.070 A 
HETATM   20  O   UNL     1      42.573 -12.636   1.445  1.00  0.00    -0.325 OA
HETATM   21  C   UNL     1      41.885 -12.735   0.280  1.00  0.00     0.142 A 
HETATM   22  C   UNL     1      41.413 -14.015   0.110  1.00  0.00     0.027 A 
HETATM   23  C   UNL     1      41.839 -14.748   1.244  1.00  0.00     0.036 A 
ENDBRANCH  18  19
ENDBRANCH   2  18
BRANCH   3  24
HETATM   24  S   UNL     1      41.415 -11.881   4.964  1.00  0.00    -0.081 SA
BRANCH  24  25
HETATM   25  C   UNL     1      39.710 -11.655   5.547  1.00  0.00     0.185 C 
BRANCH  25  26
HETATM   26  C   UNL     1      38.720 -11.371   4.429  1.00  0.00     0.227 C 
HETATM   27  N   UNL     1      38.858 -12.147   3.301  1.00  0.00    -0.356 N 
HETATM   28  H   UNL     1      39.602 -12.845   3.285  1.00  0.00     0.162 HD
HETATM   29  O   UNL     1      37.916 -10.445   4.509  1.00  0.00    -0.273 OA
BRANCH  27  30
HETATM   30  C   UNL     1      38.169 -11.863   2.063  1.00  0.00     0.084 C 
HETATM   31  C   UNL     1      38.968 -10.927   1.163  1.00  0.00     0.025 C 
HETATM   32  C   UNL     1      38.308 -11.079  -0.201  1.00  0.00     0.002 C 
HETATM   33  C   UNL     1      37.702 -12.482  -0.217  1.00  0.00     0.002 C 
HETATM   34  C   UNL     1      37.965 -13.079   1.163  1.00  0.00     0.025 C 
ENDBRANCH  27  30
ENDBRANCH  25  26
ENDBRANCH  24  25
ENDBRANCH   3  24
TORSDOF 8
ENDMDL
MODEL 8
REMARK VINA RESULT:      -8.5      1.903      2.212
REMARK  8 active torsions:
REMARK  status: ('A' for Active; 'I' for Inactive)
REMARK    1  A    between atoms: C_8  and  C_9 
REMARK    2  A    between atoms: N_10  and  C_11 
REMARK    3  A    between atoms: C_11  and  C_12 
REMARK    4  A    between atoms: C_17  and  S_18 
REMARK    5  A    between atoms: S_18  and  C_19 
REMARK    6  A    between atoms: C_19  and  C_20 
REMARK       I    between atoms: C_20  and  N_21 
REMARK    7  A    between atoms: N_21  and  C_22 
REMARK    8  A    between atoms: C_30  and  O_31 
ROOT
HETATM    1  C   UNL     1      43.158 -15.846   5.221  1.00  0.00     0.167 A 
HETATM    2  N   UNL     1      42.039 -15.205   4.711  1.00  0.00    -0.301 N 
HETATM    3  C   UNL     1      42.212 -13.878   5.021  1.00  0.00     0.192 A 
HETATM    4  N   UNL     1      43.333 -13.709   5.673  1.00  0.00    -0.122 NA
HETATM    5  N   UNL     1      43.928 -14.926   5.788  1.00  0.00    -0.128 NA
ENDROOT
BRANCH   1   6
HETATM    6  C   UNL     1      43.574 -17.255   5.127  1.00  0.00     0.046 A 
HETATM    7  C   UNL     1      43.660 -17.955   3.915  1.00  0.00     0.030 A 
HETATM    8  C   UNL     1      44.038 -19.313   3.867  1.00  0.00    -0.025 A 
HETATM    9  C   UNL     1      44.137 -20.004   2.647  1.00  0.00     0.012 A 
HETATM   10  C   UNL     1      44.318 -20.002   5.067  1.00  0.00    -0.023 A 
HETATM   11  C   UNL     1      44.497 -21.353   2.617  1.00  0.00     0.001 A 
HETATM   12  C   UNL     1      44.764 -22.030   3.802  1.00  0.00     0.001 A 
HETATM   13  C   UNL     1      44.676 -21.359   5.022  1.00  0.00     0.012 A 
HETATM   14  C   UNL     1      44.218 -19.319   6.283  1.00  0.00     0.049 A 
HETATM   15  C   UNL     1      43.844 -17.976   6.307  1.00  0.00     0.080 A 
BRANCH  15  16
HETATM   16  O   UNL     1      43.749 -17.417   7.559  1.00  0.00    -0.360 OA
HETATM   17  H   UNL     1      42.802 -17.246   7.745  1.00  0.00     0.217 HD
ENDBRANCH  15  16
ENDBRANCH   1   6
BRANCH   2  18
HETATM   18  C   UNL     1      40.887 -15.783   4.045  1.00  0.00     0.198 C 
BRANCH  18  19
HETATM   19  C   UNL     1      41.139 -16.113   2.624  1.00  0.00     0.070 A 
HETATM   20  O   UNL     1      41.948 -15.240   1.955  1.00  0.00    -0.325 OA
HETATM   21  C   UNL     1      42.091 -15.716   0.693  1.00  0.00     0.142 A 
HETATM   22  C   UNL     1      41.388 -16.887   0.539  1.00  0.00     0.027 A 
HETATM   23  C   UNL     1      40.775 -17.148   1.788  1.00  0.00     0.036 A 
ENDBRANCH  18  19
ENDBRANCH   2  18
BRANCH   3  24
HETATM   24  S   UNL     1      41.126 -12.597   4.616  1.00  0.00    -0.081 SA
BRANCH  24  25
HETATM   25  C   UNL     1      40.052 -12.591   6.081  1.00  0.00     0.185 C 
BRANCH  25  26
HETATM   26  C   UNL     1      40.389 -11.492   7.075  1.00  0.00     0.227 C 
HETATM   27  N   UNL     1      39.904 -11.672   8.350  1.00  0.00    -0.356 N 
HETATM   28  H   UNL     1      39.357 -12.511   8.542  1.00  0.00     0.162 HD
HETATM   29  O   UNL     1      40.980 -10.473   6.722  1.00  0.00    -0.273 OA
BRANCH  27  30
HETATM   30  C   UNL     1      39.924 -10.632   9.352  1.00  0.00     0.084 C 
HETATM   31  C   UNL     1      38.561  -9.970   9.520  1.00  0.00     0.025 C 
HETATM   32  C   UNL     1      38.673  -9.234  10.848  1.00  0.00     0.002 C 
HETATM   33  C   UNL     1      39.707 -10.005  11.668  1.00  0.00     0.002 C 
HETATM   34  C   UNL     1      40.219 -11.126  10.766  1.00  0.00     0.025 C 
ENDBRANCH  27  30
ENDBRANCH  25  26
ENDBRANCH  24  25
ENDBRANCH   3  24
TORSDOF 8
ENDMDL
MODEL 9
REMARK VINA RESULT:      -8.4      2.354      4.199
REMARK  8 active torsions:
REMARK  status: ('A' for Active; 'I' for Inactive)
REMARK    1  A    between atoms: C_8  and  C_9 
REMARK    2  A    between atoms: N_10  and  C_11 
REMARK    3  A    between atoms: C_11  and  C_12 
REMARK    4  A    between atoms: C_17  and  S_18 
REMARK    5  A    between atoms: S_18  and  C_19 
REMARK    6  A    between atoms: C_19  and  C_20 
REMARK       I    between atoms: C_20  and  N_21 
REMARK    7  A    between atoms: N_21  and  C_22 
REMARK    8  A    between atoms: C_30  and  O_31 
ROOT
HETATM    1  C   UNL     1      41.357 -15.410   3.272  1.00  0.00     0.167 A 
HETATM    2  N   UNL     1      41.973 -14.255   3.730  1.00  0.00    -0.301 N 
HETATM    3  C   UNL     1      40.951 -13.364   3.947  1.00  0.00     0.192 A 
HETATM    4  N   UNL     1      39.803 -13.911   3.642  1.00  0.00    -0.122 NA
HETATM    5  N   UNL     1      40.050 -15.184   3.235  1.00  0.00    -0.128 NA
ENDROOT
BRANCH   1   6
HETATM    6  C   UNL     1      41.926 -16.730   2.951  1.00  0.00     0.046 A 
HETATM    7  C   UNL     1      42.815 -17.412   3.793  1.00  0.00     0.030 A 
HETATM    8  C   UNL     1      43.359 -18.664   3.439  1.00  0.00    -0.025 A 
HETATM    9  C   UNL     1      44.239 -19.349   4.295  1.00  0.00     0.012 A 
HETATM   10  C   UNL     1      43.023 -19.246   2.198  1.00  0.00    -0.023 A 
HETATM   11  C   UNL     1      44.782 -20.582   3.925  1.00  0.00     0.001 A 
HETATM   12  C   UNL     1      44.455 -21.147   2.696  1.00  0.00     0.001 A 
HETATM   13  C   UNL     1      43.580 -20.483   1.836  1.00  0.00     0.012 A 
HETATM   14  C   UNL     1      42.150 -18.566   1.342  1.00  0.00     0.049 A 
HETATM   15  C   UNL     1      41.623 -17.329   1.712  1.00  0.00     0.080 A 
BRANCH  15  16
HETATM   16  O   UNL     1      40.803 -16.740   0.780  1.00  0.00    -0.360 OA
HETATM   17  H   UNL     1      41.354 -16.167   0.208  1.00  0.00     0.217 HD
ENDBRANCH  15  16
ENDBRANCH   1   6
BRANCH   2  18
HETATM   18  C   UNL     1      43.390 -13.987   3.897  1.00  0.00     0.198 C 
BRANCH  18  19
HETATM   19  C   UNL     1      43.880 -14.275   5.264  1.00  0.00     0.070 A 
HETATM   20  O   UNL     1      44.934 -13.515   5.681  1.00  0.00    -0.325 OA
HETATM   21  C   UNL     1      45.221 -13.892   6.952  1.00  0.00     0.142 A 
HETATM   22  C   UNL     1      44.363 -14.885   7.363  1.00  0.00     0.027 A 
HETATM   23  C   UNL     1      43.492 -15.131   6.274  1.00  0.00     0.036 A 
ENDBRANCH  18  19
ENDBRANCH   2  18
BRANCH   3  24
HETATM   24  S   UNL     1      41.127 -11.750   4.540  1.00  0.00    -0.081 SA
BRANCH  24  25
HETATM   25  C   UNL     1      41.453 -12.073   6.298  1.00  0.00     0.185 C 
BRANCH  25  26
HETATM   26  C   UNL     1      41.158 -10.882   7.196  1.00  0.00     0.227 C 
HETATM   27  N   UNL     1      40.764 -11.187   8.478  1.00  0.00    -0.356 N 
HETATM   28  H   UNL     1      40.691 -12.170   8.738  1.00  0.00     0.162 HD
HETATM   29  O   UNL     1      41.189  -9.733   6.761  1.00  0.00    -0.273 OA
BRANCH  27  30
HETATM   30  C   UNL     1      40.222 -10.204   9.387  1.00  0.00     0.084 C 
HETATM   31  C   UNL     1      38.710 -10.062   9.246  1.00  0.00     0.025 C 
HETATM   32  C   UNL     1      38.291  -9.331  10.514  1.00  0.00     0.002 C 
HETATM   33  C   UNL     1      39.337  -9.689  11.569  1.00  0.00     0.002 C 
HETATM   34  C   UNL     1      40.375 -10.561  10.864  1.00  0.00     0.025 C 
ENDBRANCH  27  30
ENDBRANCH  25  26
ENDBRANCH  24  25
ENDBRANCH   3  24
TORSDOF 8
ENDMDL
MODEL 10
REMARK VINA RESULT:      -8.1      3.402      6.051
REMARK  8 active torsions:
REMARK  status: ('A' for Active; 'I' for Inactive)
REMARK    1  A    between atoms: C_8  and  C_9 
REMARK    2  A    between atoms: N_10  and  C_11 
REMARK    3  A    between atoms: C_11  and  C_12 
REMARK    4  A    between atoms: C_17  and  S_18 
REMARK    5  A    between atoms: S_18  and  C_19 
REMARK    6  A    between atoms: C_19  and  C_20 
REMARK       I    between atoms: C_20  and  N_21 
REMARK    7  A    between atoms: N_21  and  C_22 
REMARK    8  A    between atoms: C_30  and  O_31 
ROOT
HETATM    1  C   UNL     1      42.762 -15.309   3.066  1.00  0.00     0.167 A 
HETATM    2  N   UNL     1      41.979 -14.679   4.022  1.00  0.00    -0.301 N 
HETATM    3  C   UNL     1      42.073 -13.339   3.739  1.00  0.00     0.192 A 
HETATM    4  N   UNL     1      42.851 -13.150   2.705  1.00  0.00    -0.122 NA
HETATM    5  N   UNL     1      43.270 -14.370   2.278  1.00  0.00    -0.128 NA
ENDROOT
BRANCH   1   6
HETATM    6  C   UNL     1      42.984 -16.742   2.809  1.00  0.00     0.046 A 
HETATM    7  C   UNL     1      43.689 -17.581   3.683  1.00  0.00     0.030 A 
HETATM    8  C   UNL     1      43.903 -18.944   3.392  1.00  0.00    -0.025 A 
HETATM    9  C   UNL     1      44.599 -19.783   4.280  1.00  0.00     0.012 A 
HETATM   10  C   UNL     1      43.419 -19.483   2.181  1.00  0.00    -0.023 A 
HETATM   11  C   UNL     1      44.816 -21.128   3.970  1.00  0.00     0.001 A 
HETATM   12  C   UNL     1      44.345 -21.653   2.771  1.00  0.00     0.001 A 
HETATM   13  C   UNL     1      43.649 -20.836   1.881  1.00  0.00     0.012 A 
HETATM   14  C   UNL     1      42.729 -18.651   1.293  1.00  0.00     0.049 A 
HETATM   15  C   UNL     1      42.527 -17.307   1.602  1.00  0.00     0.080 A 
BRANCH  15  16
HETATM   16  O   UNL     1      41.865 -16.579   0.643  1.00  0.00    -0.360 OA
HETATM   17  H   UNL     1      41.037 -17.051   0.419  1.00  0.00     0.217 HD
ENDBRANCH  15  16
ENDBRANCH   1   6
BRANCH   2  18
HETATM   18  C   UNL     1      41.255 -15.269   5.133  1.00  0.00     0.198 C 
BRANCH  18  19
HETATM   19  C   UNL     1      42.143 -15.843   6.169  1.00  0.00     0.070 A 
HETATM   20  O   UNL     1      41.753 -17.052   6.670  1.00  0.00    -0.325 OA
HETATM   21  C   UNL     1      42.693 -17.432   7.571  1.00  0.00     0.142 A 
HETATM   22  C   UNL     1      43.688 -16.487   7.655  1.00  0.00     0.027 A 
HETATM   23  C   UNL     1      43.335 -15.460   6.746  1.00  0.00     0.036 A 
ENDBRANCH  18  19
ENDBRANCH   2  18
BRANCH   3  24
HETATM   24  S   UNL     1      41.284 -12.067   4.602  1.00  0.00    -0.081 SA
BRANCH  24  25
HETATM   25  C   UNL     1      40.099 -11.495   3.349  1.00  0.00     0.185 C 
BRANCH  25  26
HETATM   26  C   UNL     1      40.690 -10.493   2.371  1.00  0.00     0.227 C 
HETATM   27  N   UNL     1      41.032 -10.996   1.137  1.00  0.00    -0.356 N 
HETATM   28  H   UNL     1      40.875 -11.988   0.962  1.00  0.00     0.162 HD
HETATM   29  O   UNL     1      40.922  -9.334   2.708  1.00  0.00    -0.273 OA
BRANCH  27  30
HETATM   30  C   UNL     1      41.814 -10.253   0.176  1.00  0.00     0.084 C 
HETATM   31  C   UNL     1      42.781 -11.147  -0.592  1.00  0.00     0.025 C 
HETATM   32  C   UNL     1      43.189 -10.301  -1.791  1.00  0.00     0.002 C 
HETATM   33  C   UNL     1      42.019  -9.351  -2.049  1.00  0.00     0.002 C 
HETATM   34  C   UNL     1      40.995  -9.623  -0.949  1.00  0.00     0.025 C 
ENDBRANCH  27  30
ENDBRANCH  25  26
ENDBRANCH  24  25
ENDBRANCH   3  24
TORSDOF 8
ENDMDL
