MODEL 1
REMARK VINA RESULT:      -7.4      0.000      0.000
REMARK  5 active torsions:
REMARK  status: ('A' for Active; 'I' for Inactive)
REMARK    1  A    between atoms: C_2  and  O_3 
REMARK    2  A    between atoms: C_4  and  C_5 
REMARK    3  A    between atoms: C_5  and  O_6 
REMARK    4  A    between atoms: C_9  and  C_10 
REMARK    5  A    between atoms: C_22  and  O_23 
ROOT
HETATM    1  C   UNL     1      41.690 -16.559   0.126  1.00  0.00     0.047 C 
HETATM    2  C   UNL     1      41.252 -16.266   1.570  1.00  0.00     0.073 C 
HETATM    3  C   UNL     1      41.637 -17.403   2.582  1.00  0.00     0.133 C 
HETATM    4  C   UNL     1      41.416 -17.072   4.100  1.00  0.00     0.074 C 
HETATM    5  C   UNL     1      41.197 -15.616   4.352  1.00  0.00     0.030 A 
HETATM    6  C   UNL     1      41.380 -14.634   3.405  1.00  0.00     0.042 A 
HETATM    7  N   UNL     1      41.066 -13.443   3.995  1.00  0.00    -0.279 N 
HETATM    8  H   UNL     1      41.090 -12.509   3.598  1.00  0.00     0.189 HD
HETATM    9  N   UNL     1      40.619 -13.595   5.260  1.00  0.00    -0.149 NA
HETATM   10  C   UNL     1      40.709 -14.906   5.449  1.00  0.00     0.190 A 
HETATM   11  C   UNL     1      41.762 -14.857   1.990  1.00  0.00     0.097 C 
ENDROOT
BRANCH   4  12
HETATM   12  C   UNL     1      42.525 -17.486   5.062  1.00  0.00    -0.047 A 
HETATM   13  C   UNL     1      42.631 -18.794   5.578  1.00  0.00     0.027 A 
HETATM   14  C   UNL     1      43.643 -19.127   6.479  1.00  0.00     0.011 A 
HETATM   15 BR   UNL     1      43.748 -20.888   7.157  1.00  0.00    -0.051 Br
HETATM   16  C   UNL     1      44.569 -18.173   6.883  1.00  0.00     0.019 A 
HETATM   17  C   UNL     1      44.480 -16.873   6.385  1.00  0.00     0.002 A 
HETATM   18  C   UNL     1      43.467 -16.532   5.484  1.00  0.00     0.008 A 
ENDBRANCH   4  12
BRANCH   3  19
HETATM   19  C   UNL     1      43.028 -17.941   2.311  1.00  0.00     0.266 C 
HETATM   20  O   UNL     1      44.046 -17.264   2.266  1.00  0.00    -0.265 OA
BRANCH  19  21
HETATM   21  O   UNL     1      42.973 -19.291   2.129  1.00  0.00    -0.326 OA
HETATM   22  C   UNL     1      44.160 -19.988   2.510  1.00  0.00     0.213 C 
ENDBRANCH  19  21
ENDBRANCH   3  19
BRANCH   2  23
HETATM   23  O   UNL     1      39.805 -16.231   1.489  1.00  0.00    -0.389 OA
HETATM   24  H   UNL     1      39.448 -16.063   2.380  1.00  0.00     0.210 HD
ENDBRANCH   2  23
BRANCH  10  25
HETATM   25  O   UNL     1      40.286 -15.343   6.629  1.00  0.00    -0.343 OA
HETATM   26  H   UNL     1      39.939 -16.234   6.450  1.00  0.00     0.219 HD
ENDBRANCH  10  25
TORSDOF 5
ENDMDL
MODEL 2
REMARK VINA RESULT:      -7.3      2.028      2.304
REMARK  5 active torsions:
REMARK  status: ('A' for Active; 'I' for Inactive)
REMARK    1  A    between atoms: C_2  and  O_3 
REMARK    2  A    between atoms: C_4  and  C_5 
REMARK    3  A    between atoms: C_5  and  O_6 
REMARK    4  A    between atoms: C_9  and  C_10 
REMARK    5  A    between atoms: C_22  and  O_23 
ROOT
HETATM    1  C   UNL     1      41.334 -16.979   0.848  1.00  0.00     0.047 C 
HETATM    2  C   UNL     1      40.796 -16.278   2.104  1.00  0.00     0.073 C 
HETATM    3  C   UNL     1      41.220 -16.981   3.442  1.00  0.00     0.133 C 
HETATM    4  C   UNL     1      40.889 -16.199   4.762  1.00  0.00     0.074 C 
HETATM    5  C   UNL     1      40.535 -14.769   4.518  1.00  0.00     0.030 A 
HETATM    6  C   UNL     1      40.686 -14.134   3.305  1.00  0.00     0.042 A 
HETATM    7  N   UNL     1      40.241 -12.852   3.464  1.00  0.00    -0.279 N 
HETATM    8  H   UNL     1      40.208 -12.100   2.783  1.00  0.00     0.189 HD
HETATM    9  N   UNL     1      39.740 -12.629   4.699  1.00  0.00    -0.149 NA
HETATM   10  C   UNL     1      39.930 -13.792   5.309  1.00  0.00     0.190 A 
HETATM   11  C   UNL     1      41.161 -14.765   2.051  1.00  0.00     0.097 C 
ENDROOT
BRANCH   4  12
HETATM   12  C   UNL     1      41.975 -16.168   5.833  1.00  0.00    -0.047 A 
HETATM   13  C   UNL     1      42.944 -15.145   5.900  1.00  0.00     0.027 A 
HETATM   14  C   UNL     1      43.939 -15.167   6.877  1.00  0.00     0.011 A 
HETATM   15 BR   UNL     1      45.227 -13.785   6.931  1.00  0.00    -0.051 Br
HETATM   16  C   UNL     1      43.993 -16.200   7.807  1.00  0.00     0.019 A 
HETATM   17  C   UNL     1      43.044 -17.221   7.755  1.00  0.00     0.002 A 
HETATM   18  C   UNL     1      42.046 -17.207   6.777  1.00  0.00     0.008 A 
ENDBRANCH   4  12
BRANCH   3  19
HETATM   19  C   UNL     1      42.663 -17.440   3.395  1.00  0.00     0.266 C 
HETATM   20  O   UNL     1      43.619 -16.722   3.136  1.00  0.00    -0.265 OA
BRANCH  19  21
HETATM   21  O   UNL     1      42.735 -18.769   3.691  1.00  0.00    -0.326 OA
HETATM   22  C   UNL     1      43.979 -19.183   4.257  1.00  0.00     0.213 C 
ENDBRANCH  19  21
ENDBRANCH   3  19
BRANCH   2  23
HETATM   23  O   UNL     1      39.357 -16.411   1.982  1.00  0.00    -0.389 OA
HETATM   24  H   UNL     1      39.164 -17.136   1.359  1.00  0.00     0.210 HD
ENDBRANCH   2  23
BRANCH  10  25
HETATM   25  O   UNL     1      39.482 -13.862   6.556  1.00  0.00    -0.343 OA
HETATM   26  H   UNL     1      39.806 -14.718   6.886  1.00  0.00     0.219 HD
ENDBRANCH  10  25
TORSDOF 5
ENDMDL
MODEL 3
REMARK VINA RESULT:      -7.1      2.915      4.533
REMARK  5 active torsions:
REMARK  status: ('A' for Active; 'I' for Inactive)
REMARK    1  A    between atoms: C_2  and  O_3 
REMARK    2  A    between atoms: C_4  and  C_5 
REMARK    3  A    between atoms: C_5  and  O_6 
REMARK    4  A    between atoms: C_9  and  C_10 
REMARK    5  A    between atoms: C_22  and  O_23 
ROOT
HETATM    1  C   UNL     1      45.053 -20.329   3.203  1.00  0.00     0.047 C 
HETATM    2  C   UNL     1      43.827 -19.545   2.710  1.00  0.00     0.073 C 
HETATM    3  C   UNL     1      42.869 -19.091   3.867  1.00  0.00     0.133 C 
HETATM    4  C   UNL     1      41.719 -18.104   3.457  1.00  0.00     0.074 C 
HETATM    5  C   UNL     1      41.928 -17.495   2.110  1.00  0.00     0.030 A 
HETATM    6  C   UNL     1      43.095 -17.605   1.387  1.00  0.00     0.042 A 
HETATM    7  N   UNL     1      42.901 -16.941   0.209  1.00  0.00    -0.279 N 
HETATM    8  H   UNL     1      43.548 -16.811  -0.563  1.00  0.00     0.189 HD
HETATM    9  N   UNL     1      41.646 -16.459   0.087  1.00  0.00    -0.149 NA
HETATM   10  C   UNL     1      41.085 -16.803   1.240  1.00  0.00     0.190 A 
HETATM   11  C   UNL     1      44.293 -18.378   1.791  1.00  0.00     0.097 C 
ENDROOT
BRANCH   4  12
HETATM   12  C   UNL     1      41.455 -16.930   4.395  1.00  0.00    -0.047 A 
HETATM   13  C   UNL     1      41.921 -15.626   4.125  1.00  0.00     0.027 A 
HETATM   14  C   UNL     1      41.684 -14.584   5.022  1.00  0.00     0.011 A 
HETATM   15 BR   UNL     1      42.333 -12.851   4.633  1.00  0.00    -0.051 Br
HETATM   16  C   UNL     1      40.978 -14.811   6.198  1.00  0.00     0.019 A 
HETATM   17  C   UNL     1      40.511 -16.094   6.482  1.00  0.00     0.002 A 
HETATM   18  C   UNL     1      40.747 -17.144   5.590  1.00  0.00     0.008 A 
ENDBRANCH   4  12
BRANCH   3  19
HETATM   19  C   UNL     1      43.646 -18.595   5.070  1.00  0.00     0.266 C 
HETATM   20  O   UNL     1      44.424 -17.651   5.062  1.00  0.00    -0.265 OA
BRANCH  19  21
HETATM   21  O   UNL     1      43.344 -19.355   6.161  1.00  0.00    -0.326 OA
HETATM   22  C   UNL     1      43.652 -18.742   7.413  1.00  0.00     0.213 C 
ENDBRANCH  19  21
ENDBRANCH   3  19
BRANCH   2  23
HETATM   23  O   UNL     1      43.105 -20.510   1.903  1.00  0.00    -0.389 OA
HETATM   24  H   UNL     1      43.001 -20.147   1.004  1.00  0.00     0.210 HD
ENDBRANCH   2  23
BRANCH  10  25
HETATM   25  O   UNL     1      39.805 -16.476   1.373  1.00  0.00    -0.343 OA
HETATM   26  H   UNL     1      39.679 -15.726   0.767  1.00  0.00     0.219 HD
ENDBRANCH  10  25
TORSDOF 5
ENDMDL
MODEL 4
REMARK VINA RESULT:      -6.9      2.521      4.254
REMARK  5 active torsions:
REMARK  status: ('A' for Active; 'I' for Inactive)
REMARK    1  A    between atoms: C_2  and  O_3 
REMARK    2  A    between atoms: C_4  and  C_5 
REMARK    3  A    between atoms: C_5  and  O_6 
REMARK    4  A    between atoms: C_9  and  C_10 
REMARK    5  A    between atoms: C_22  and  O_23 
ROOT
HETATM    1  C   UNL     1      39.604 -12.908   4.665  1.00  0.00     0.047 C 
HETATM    2  C   UNL     1      40.591 -13.942   5.230  1.00  0.00     0.073 C 
HETATM    3  C   UNL     1      40.680 -15.254   4.372  1.00  0.00     0.133 C 
HETATM    4  C   UNL     1      41.822 -16.254   4.768  1.00  0.00     0.074 C 
HETATM    5  C   UNL     1      42.844 -15.645   5.670  1.00  0.00     0.030 A 
HETATM    6  C   UNL     1      42.913 -14.299   5.958  1.00  0.00     0.042 A 
HETATM    7  N   UNL     1      43.954 -14.127   6.825  1.00  0.00    -0.279 N 
HETATM    8  H   UNL     1      44.299 -13.269   7.244  1.00  0.00     0.189 HD
HETATM    9  N   UNL     1      44.532 -15.295   7.178  1.00  0.00    -0.149 NA
HETATM   10  C   UNL     1      43.849 -16.187   6.471  1.00  0.00     0.190 A 
HETATM   11  C   UNL     1      41.970 -13.263   5.477  1.00  0.00     0.097 C 
ENDROOT
BRANCH   4  12
HETATM   12  C   UNL     1      42.616 -16.879   3.624  1.00  0.00    -0.047 A 
HETATM   13  C   UNL     1      42.581 -18.262   3.346  1.00  0.00     0.027 A 
HETATM   14  C   UNL     1      43.344 -18.800   2.309  1.00  0.00     0.011 A 
HETATM   15 BR   UNL     1      43.282 -20.659   1.970  1.00  0.00    -0.051 Br
HETATM   16  C   UNL     1      44.151 -17.981   1.527  1.00  0.00     0.019 A 
HETATM   17  C   UNL     1      44.198 -16.612   1.788  1.00  0.00     0.002 A 
HETATM   18  C   UNL     1      43.439 -16.065   2.828  1.00  0.00     0.008 A 
ENDBRANCH   4  12
BRANCH   3  19
HETATM   19  C   UNL     1      40.677 -14.948   2.888  1.00  0.00     0.266 C 
HETATM   20  O   UNL     1      41.409 -14.138   2.336  1.00  0.00    -0.265 OA
BRANCH  19  21
HETATM   21  O   UNL     1      39.740 -15.716   2.260  1.00  0.00    -0.326 OA
HETATM   22  C   UNL     1      38.682 -14.977   1.650  1.00  0.00     0.213 C 
ENDBRANCH  19  21
ENDBRANCH   3  19
BRANCH   2  23
HETATM   23  O   UNL     1      40.015 -14.302   6.512  1.00  0.00    -0.389 OA
HETATM   24  H   UNL     1      40.381 -15.162   6.786  1.00  0.00     0.210 HD
ENDBRANCH   2  23
BRANCH  10  25
HETATM   25  O   UNL     1      44.196 -17.454   6.662  1.00  0.00    -0.343 OA
HETATM   26  H   UNL     1      44.501 -17.489   7.585  1.00  0.00     0.219 HD
ENDBRANCH  10  25
TORSDOF 5
ENDMDL
MODEL 5
REMARK VINA RESULT:      -6.9      2.541      3.632
REMARK  5 active torsions:
REMARK  status: ('A' for Active; 'I' for Inactive)
REMARK    1  A    between atoms: C_2  and  O_3 
REMARK    2  A    between atoms: C_4  and  C_5 
REMARK    3  A    between atoms: C_5  and  O_6 
REMARK    4  A    between atoms: C_9  and  C_10 
REMARK    5  A    between atoms: C_22  and  O_23 
ROOT
HETATM    1  C   UNL     1      44.617 -20.818   2.155  1.00  0.00     0.047 C 
HETATM    2  C   UNL     1      43.610 -19.697   2.456  1.00  0.00     0.073 C 
HETATM    3  C   UNL     1      43.271 -19.555   3.983  1.00  0.00     0.133 C 
HETATM    4  C   UNL     1      42.423 -18.296   4.381  1.00  0.00     0.074 C 
HETATM    5  C   UNL     1      42.366 -17.266   3.301  1.00  0.00     0.030 A 
HETATM    6  C   UNL     1      43.139 -17.301   2.162  1.00  0.00     0.042 A 
HETATM    7  N   UNL     1      42.795 -16.214   1.410  1.00  0.00    -0.279 N 
HETATM    8  H   UNL     1      43.165 -15.918   0.512  1.00  0.00     0.189 HD
HETATM    9  N   UNL     1      41.788 -15.503   1.960  1.00  0.00    -0.149 NA
HETATM   10  C   UNL     1      41.550 -16.154   3.092  1.00  0.00     0.190 A 
HETATM   11  C   UNL     1      44.096 -18.372   1.799  1.00  0.00     0.097 C 
ENDROOT
BRANCH   4  12
HETATM   12  C   UNL     1      42.859 -17.542   5.634  1.00  0.00    -0.047 A 
HETATM   13  C   UNL     1      43.564 -16.322   5.577  1.00  0.00     0.027 A 
HETATM   14  C   UNL     1      43.971 -15.678   6.746  1.00  0.00     0.011 A 
HETATM   15 BR   UNL     1      44.923 -14.049   6.631  1.00  0.00    -0.051 Br
HETATM   16  C   UNL     1      43.685 -16.226   7.991  1.00  0.00     0.019 A 
HETATM   17  C   UNL     1      42.990 -17.432   8.067  1.00  0.00     0.002 A 
HETATM   18  C   UNL     1      42.581 -18.086   6.900  1.00  0.00     0.008 A 
ENDBRANCH   4  12
BRANCH   3  19
HETATM   19  C   UNL     1      44.509 -19.706   4.843  1.00  0.00     0.266 C 
HETATM   20  O   UNL     1      45.513 -19.013   4.756  1.00  0.00    -0.265 OA
BRANCH  19  21
HETATM   21  O   UNL     1      44.332 -20.726   5.731  1.00  0.00    -0.326 OA
HETATM   22  C   UNL     1      44.915 -21.967   5.331  1.00  0.00     0.213 C 
ENDBRANCH  19  21
ENDBRANCH   3  19
BRANCH   2  23
HETATM   23  O   UNL     1      42.401 -20.131   1.783  1.00  0.00    -0.389 OA
HETATM   24  H   UNL     1      41.651 -20.032   2.397  1.00  0.00     0.210 HD
ENDBRANCH   2  23
BRANCH  10  25
HETATM   25  O   UNL     1      40.554 -15.676   3.827  1.00  0.00    -0.343 OA
HETATM   26  H   UNL     1      40.229 -16.444   4.329  1.00  0.00     0.219 HD
ENDBRANCH  10  25
TORSDOF 5
ENDMDL
MODEL 6
REMARK VINA RESULT:      -6.5      2.573      4.696
REMARK  5 active torsions:
REMARK  status: ('A' for Active; 'I' for Inactive)
REMARK    1  A    between atoms: C_2  and  O_3 
REMARK    2  A    between atoms: C_4  and  C_5 
REMARK    3  A    between atoms: C_5  and  O_6 
REMARK    4  A    between atoms: C_9  and  C_10 
REMARK    5  A    between atoms: C_22  and  O_23 
ROOT
HETATM    1  C   UNL     1      40.911 -11.240   2.881  1.00  0.00     0.047 C 
HETATM    2  C   UNL     1      41.493 -12.517   2.256  1.00  0.00     0.073 C 
HETATM    3  C   UNL     1      42.324 -13.385   3.266  1.00  0.00     0.133 C 
HETATM    4  C   UNL     1      42.760 -14.803   2.753  1.00  0.00     0.074 C 
HETATM    5  C   UNL     1      42.029 -15.227   1.523  1.00  0.00     0.030 A 
HETATM    6  C   UNL     1      40.940 -14.561   1.005  1.00  0.00     0.042 A 
HETATM    7  N   UNL     1      40.561 -15.229  -0.125  1.00  0.00    -0.279 N 
HETATM    8  H   UNL     1      39.794 -15.024  -0.759  1.00  0.00     0.189 HD
HETATM    9  N   UNL     1      41.384 -16.259  -0.418  1.00  0.00    -0.149 NA
HETATM   10  C   UNL     1      42.253 -16.236   0.585  1.00  0.00     0.190 A 
HETATM   11  C   UNL     1      40.359 -13.307   1.539  1.00  0.00     0.097 C 
ENDROOT
BRANCH   4  12
HETATM   12  C   UNL     1      42.609 -15.964   3.732  1.00  0.00    -0.047 A 
HETATM   13  C   UNL     1      43.654 -16.374   4.587  1.00  0.00     0.027 A 
HETATM   14  C   UNL     1      43.487 -17.459   5.447  1.00  0.00     0.011 A 
HETATM   15 BR   UNL     1      44.912 -17.988   6.572  1.00  0.00    -0.051 Br
HETATM   16  C   UNL     1      42.284 -18.156   5.481  1.00  0.00     0.019 A 
HETATM   17  C   UNL     1      41.241 -17.765   4.642  1.00  0.00     0.002 A 
HETATM   18  C   UNL     1      41.401 -16.680   3.775  1.00  0.00     0.008 A 
ENDBRANCH   4  12
BRANCH   3  19
HETATM   19  C   UNL     1      41.654 -13.449   4.624  1.00  0.00     0.266 C 
HETATM   20  O   UNL     1      40.523 -13.867   4.830  1.00  0.00    -0.265 OA
BRANCH  19  21
HETATM   21  O   UNL     1      42.504 -12.977   5.581  1.00  0.00    -0.326 OA
HETATM   22  C   UNL     1      41.931 -12.003   6.453  1.00  0.00     0.213 C 
ENDBRANCH  19  21
ENDBRANCH   3  19
BRANCH   2  23
HETATM   23  O   UNL     1      42.415 -12.019   1.253  1.00  0.00    -0.389 OA
HETATM   24  H   UNL     1      42.561 -11.068   1.411  1.00  0.00     0.210 HD
ENDBRANCH   2  23
BRANCH  10  25
HETATM   25  O   UNL     1      43.220 -17.143   0.524  1.00  0.00    -0.343 OA
HETATM   26  H   UNL     1      42.755 -17.996   0.478  1.00  0.00     0.219 HD
ENDBRANCH  10  25
TORSDOF 5
ENDMDL
MODEL 7
REMARK VINA RESULT:      -6.5      2.800      4.845
REMARK  5 active torsions:
REMARK  status: ('A' for Active; 'I' for Inactive)
REMARK    1  A    between atoms: C_2  and  O_3 
REMARK    2  A    between atoms: C_4  and  C_5 
REMARK    3  A    between atoms: C_5  and  O_6 
REMARK    4  A    between atoms: C_9  and  C_10 
REMARK    5  A    between atoms: C_22  and  O_23 
ROOT
HETATM    1  C   UNL     1      43.494 -18.821   7.018  1.00  0.00     0.047 C 
HETATM    2  C   UNL     1      43.663 -17.476   6.295  1.00  0.00     0.073 C 
HETATM    3  C   UNL     1      43.698 -17.608   4.730  1.00  0.00     0.133 C 
HETATM    4  C   UNL     1      43.648 -16.260   3.928  1.00  0.00     0.074 C 
HETATM    5  C   UNL     1      43.235 -15.098   4.769  1.00  0.00     0.030 A 
HETATM    6  C   UNL     1      42.740 -15.209   6.050  1.00  0.00     0.042 A 
HETATM    7  N   UNL     1      42.496 -13.942   6.498  1.00  0.00    -0.279 N 
HETATM    8  H   UNL     1      42.123 -13.645   7.394  1.00  0.00     0.189 HD
HETATM    9  N   UNL     1      42.867 -12.998   5.607  1.00  0.00    -0.149 NA
HETATM   10  C   UNL     1      43.305 -13.717   4.581  1.00  0.00     0.190 A 
HETATM   11  C   UNL     1      42.592 -16.471   6.812  1.00  0.00     0.097 C 
ENDROOT
BRANCH   4  12
HETATM   12  C   UNL     1      42.734 -16.221   2.707  1.00  0.00    -0.047 A 
HETATM   13  C   UNL     1      41.428 -15.690   2.756  1.00  0.00     0.027 A 
HETATM   14  C   UNL     1      40.612 -15.698   1.625  1.00  0.00     0.011 A 
HETATM   15 BR   UNL     1      38.863 -14.987   1.730  1.00  0.00    -0.051 Br
HETATM   16  C   UNL     1      41.073 -16.228   0.425  1.00  0.00     0.019 A 
HETATM   17  C   UNL     1      42.360 -16.758   0.358  1.00  0.00     0.002 A 
HETATM   18  C   UNL     1      43.184 -16.757   1.488  1.00  0.00     0.008 A 
ENDBRANCH   4  12
BRANCH   3  19
HETATM   19  C   UNL     1      42.672 -18.608   4.234  1.00  0.00     0.266 C 
HETATM   20  O   UNL     1      41.488 -18.610   4.542  1.00  0.00    -0.265 OA
BRANCH  19  21
HETATM   21  O   UNL     1      43.267 -19.499   3.390  1.00  0.00    -0.326 OA
HETATM   22  C   UNL     1      44.582 -19.896   3.779  1.00  0.00     0.213 C 
ENDBRANCH  19  21
ENDBRANCH   3  19
BRANCH   2  23
HETATM   23  O   UNL     1      44.971 -17.019   6.720  1.00  0.00    -0.389 OA
HETATM   24  H   UNL     1      45.353 -16.469   6.012  1.00  0.00     0.210 HD
ENDBRANCH   2  23
BRANCH  10  25
HETATM   25  O   UNL     1      43.778 -13.020   3.555  1.00  0.00    -0.343 OA
HETATM   26  H   UNL     1      44.402 -12.389   3.953  1.00  0.00     0.219 HD
ENDBRANCH  10  25
TORSDOF 5
ENDMDL
MODEL 8
REMARK VINA RESULT:      -6.3      3.017      4.819
REMARK  5 active torsions:
REMARK  status: ('A' for Active; 'I' for Inactive)
REMARK    1  A    between atoms: C_2  and  O_3 
REMARK    2  A    between atoms: C_4  and  C_5 
REMARK    3  A    between atoms: C_5  and  O_6 
REMARK    4  A    between atoms: C_9  and  C_10 
REMARK    5  A    between atoms: C_22  and  O_23 
ROOT
HETATM    1  C   UNL     1      42.941 -19.239   2.790  1.00  0.00     0.047 C 
HETATM    2  C   UNL     1      43.341 -18.305   3.942  1.00  0.00     0.073 C 
HETATM    3  C   UNL     1      43.369 -16.788   3.536  1.00  0.00     0.133 C 
HETATM    4  C   UNL     1      43.555 -15.768   4.713  1.00  0.00     0.074 C 
HETATM    5  C   UNL     1      43.335 -16.381   6.056  1.00  0.00     0.030 A 
HETATM    6  C   UNL     1      42.815 -17.642   6.252  1.00  0.00     0.042 A 
HETATM    7  N   UNL     1      42.783 -17.857   7.600  1.00  0.00    -0.279 N 
HETATM    8  H   UNL     1      42.456 -18.675   8.107  1.00  0.00     0.189 HD
HETATM    9  N   UNL     1      43.317 -16.834   8.301  1.00  0.00    -0.149 NA
HETATM   10  C   UNL     1      43.639 -15.963   7.352  1.00  0.00     0.190 A 
HETATM   11  C   UNL     1      42.449 -18.601   5.184  1.00  0.00     0.097 C 
ENDROOT
BRANCH   4  12
HETATM   12  C   UNL     1      42.673 -14.523   4.688  1.00  0.00    -0.047 A 
HETATM   13  C   UNL     1      41.540 -14.381   5.515  1.00  0.00     0.027 A 
HETATM   14  C   UNL     1      40.742 -13.239   5.443  1.00  0.00     0.011 A 
HETATM   15 BR   UNL     1      39.224 -13.088   6.560  1.00  0.00    -0.051 Br
HETATM   16  C   UNL     1      41.052 -12.216   4.554  1.00  0.00     0.019 A 
HETATM   17  C   UNL     1      42.168 -12.339   3.727  1.00  0.00     0.002 A 
HETATM   18  C   UNL     1      42.971 -13.482   3.792  1.00  0.00     0.008 A 
ENDBRANCH   4  12
BRANCH   3  19
HETATM   19  C   UNL     1      42.196 -16.430   2.647  1.00  0.00     0.266 C 
HETATM   20  O   UNL     1      41.019 -16.540   2.960  1.00  0.00    -0.265 OA
BRANCH  19  21
HETATM   21  O   UNL     1      42.650 -15.960   1.449  1.00  0.00    -0.326 OA
HETATM   22  C   UNL     1      41.661 -15.302   0.658  1.00  0.00     0.213 C 
ENDBRANCH  19  21
ENDBRANCH   3  19
BRANCH   2  23
HETATM   23  O   UNL     1      44.703 -18.698   4.246  1.00  0.00    -0.389 OA
HETATM   24  H   UNL     1      45.065 -18.078   4.905  1.00  0.00     0.210 HD
ENDBRANCH   2  23
BRANCH  10  25
HETATM   25  O   UNL     1      44.233 -14.854   7.773  1.00  0.00    -0.343 OA
HETATM   26  H   UNL     1      43.788 -14.639   8.611  1.00  0.00     0.219 HD
ENDBRANCH  10  25
TORSDOF 5
ENDMDL
MODEL 9
REMARK VINA RESULT:      -6.2      3.128      5.245
REMARK  5 active torsions:
REMARK  status: ('A' for Active; 'I' for Inactive)
REMARK    1  A    between atoms: C_2  and  O_3 
REMARK    2  A    between atoms: C_4  and  C_5 
REMARK    3  A    between atoms: C_5  and  O_6 
REMARK    4  A    between atoms: C_9  and  C_10 
REMARK    5  A    between atoms: C_22  and  O_23 
ROOT
HETATM    1  C   UNL     1      44.932 -18.396   5.455  1.00  0.00     0.047 C 
HETATM    2  C   UNL     1      43.626 -18.165   4.679  1.00  0.00     0.073 C 
HETATM    3  C   UNL     1      42.609 -17.234   5.431  1.00  0.00     0.133 C 
HETATM    4  C   UNL     1      41.354 -16.783   4.604  1.00  0.00     0.074 C 
HETATM    5  C   UNL     1      41.501 -17.033   3.139  1.00  0.00     0.030 A 
HETATM    6  C   UNL     1      42.680 -17.414   2.537  1.00  0.00     0.042 A 
HETATM    7  N   UNL     1      42.420 -17.565   1.205  1.00  0.00    -0.279 N 
HETATM    8  H   UNL     1      43.054 -17.832   0.458  1.00  0.00     0.189 HD
HETATM    9  N   UNL     1      41.117 -17.371   0.907  1.00  0.00    -0.149 NA
HETATM   10  C   UNL     1      40.590 -17.053   2.083  1.00  0.00     0.190 A 
HETATM   11  C   UNL     1      43.958 -17.689   3.235  1.00  0.00     0.097 C 
ENDROOT
BRANCH   4  12
HETATM   12  C   UNL     1      40.942 -15.319   4.724  1.00  0.00    -0.047 A 
HETATM   13  C   UNL     1      41.227 -14.368   3.722  1.00  0.00     0.027 A 
HETATM   14  C   UNL     1      40.860 -13.031   3.882  1.00  0.00     0.011 A 
HETATM   15 BR   UNL     1      41.267 -11.782   2.523  1.00  0.00    -0.051 Br
HETATM   16  C   UNL     1      40.201 -12.613   5.032  1.00  0.00     0.019 A 
HETATM   17  C   UNL     1      39.912 -13.539   6.034  1.00  0.00     0.002 A 
HETATM   18  C   UNL     1      40.280 -14.879   5.883  1.00  0.00     0.008 A 
ENDBRANCH   4  12
BRANCH   3  19
HETATM   19  C   UNL     1      43.311 -16.064   6.090  1.00  0.00     0.266 C 
HETATM   20  O   UNL     1      44.015 -15.250   5.510  1.00  0.00    -0.265 OA
BRANCH  19  21
HETATM   21  O   UNL     1      43.033 -16.052   7.426  1.00  0.00    -0.326 OA
HETATM   22  C   UNL     1      43.194 -17.314   8.075  1.00  0.00     0.213 C 
ENDBRANCH  19  21
ENDBRANCH   3  19
BRANCH   2  23
HETATM   23  O   UNL     1      43.032 -19.486   4.607  1.00  0.00    -0.389 OA
HETATM   24  H   UNL     1      42.089 -19.390   4.381  1.00  0.00     0.210 HD
ENDBRANCH   2  23
BRANCH  10  25
HETATM   25  O   UNL     1      39.280 -16.843   2.084  1.00  0.00    -0.343 OA
HETATM   26  H   UNL     1      38.924 -17.513   2.692  1.00  0.00     0.219 HD
ENDBRANCH  10  25
TORSDOF 5
ENDMDL
MODEL 10
REMARK VINA RESULT:      -6.2      3.212      5.283
REMARK  5 active torsions:
REMARK  status: ('A' for Active; 'I' for Inactive)
REMARK    1  A    between atoms: C_2  and  O_3 
REMARK    2  A    between atoms: C_4  and  C_5 
REMARK    3  A    between atoms: C_5  and  O_6 
REMARK    4  A    between atoms: C_9  and  C_10 
REMARK    5  A    between atoms: C_22  and  O_23 
ROOT
HETATM    1  C   UNL     1      42.999 -18.539   4.430  1.00  0.00     0.047 C 
HETATM    2  C   UNL     1      42.579 -17.064   4.533  1.00  0.00     0.073 C 
HETATM    3  C   UNL     1      42.565 -16.320   3.150  1.00  0.00     0.133 C 
HETATM    4  C   UNL     1      41.939 -14.882   3.153  1.00  0.00     0.074 C 
HETATM    5  C   UNL     1      41.156 -14.590   4.390  1.00  0.00     0.030 A 
HETATM    6  C   UNL     1      40.826 -15.537   5.335  1.00  0.00     0.042 A 
HETATM    7  N   UNL     1      40.132 -14.896   6.321  1.00  0.00    -0.279 N 
HETATM    8  H   UNL     1      39.729 -15.281   7.170  1.00  0.00     0.189 HD
HETATM    9  N   UNL     1      40.046 -13.564   6.111  1.00  0.00    -0.149 NA
HETATM   10  C   UNL     1      40.666 -13.409   4.948  1.00  0.00     0.190 A 
HETATM   11  C   UNL     1      41.234 -16.961   5.311  1.00  0.00     0.097 C 
ENDROOT
BRANCH   4  12
HETATM   12  C   UNL     1      41.009 -14.535   1.995  1.00  0.00    -0.047 A 
HETATM   13  C   UNL     1      41.481 -13.997   0.780  1.00  0.00     0.027 A 
HETATM   14  C   UNL     1      40.594 -13.666  -0.246  1.00  0.00     0.011 A 
HETATM   15 BR   UNL     1      41.261 -12.938  -1.858  1.00  0.00    -0.051 Br
HETATM   16  C   UNL     1      39.227 -13.863  -0.089  1.00  0.00     0.019 A 
HETATM   17  C   UNL     1      38.742 -14.392   1.107  1.00  0.00     0.002 A 
HETATM   18  C   UNL     1      39.624 -14.724   2.140  1.00  0.00     0.008 A 
ENDBRANCH   4  12
BRANCH   3  19
HETATM   19  C   UNL     1      41.987 -17.194   2.055  1.00  0.00     0.266 C 
HETATM   20  O   UNL     1      40.904 -17.760   2.108  1.00  0.00    -0.265 OA
BRANCH  19  21
HETATM   21  O   UNL     1      42.852 -17.248   1.003  1.00  0.00    -0.326 OA
HETATM   22  C   UNL     1      44.229 -17.333   1.371  1.00  0.00     0.213 C 
ENDBRANCH  19  21
ENDBRANCH   3  19
BRANCH   2  23
HETATM   23  O   UNL     1      43.627 -16.465   5.337  1.00  0.00    -0.389 OA
HETATM   24  H   UNL     1      44.294 -16.079   4.740  1.00  0.00     0.210 HD
ENDBRANCH   2  23
BRANCH  10  25
HETATM   25  O   UNL     1      40.761 -12.158   4.514  1.00  0.00    -0.343 OA
HETATM   26  H   UNL     1      40.143 -11.656   5.073  1.00  0.00     0.219 HD
ENDBRANCH  10  25
TORSDOF 5
ENDMDL
