MODEL 1
REMARK VINA RESULT:      -8.9      0.000      0.000
REMARK  6 active torsions:
REMARK  status: ('A' for Active; 'I' for Inactive)
REMARK    1  A    between atoms: C_6  and  C_7 
REMARK    2  A    between atoms: N_8  and  N_9 
REMARK       I    between atoms: N_9  and  C_10 
REMARK    3  A    between atoms: C_10  and  C_11 
REMARK    4  A    between atoms: C_14  and  O_15 
REMARK    5  A    between atoms: O_15  and  C_16 
REMARK    6  A    between atoms: C_16  and  C_17 
ROOT
HETATM    1  C   UNL     1      40.975 -14.511  -0.565  1.00  0.00     0.244 C 
HETATM    2  N   UNL     1      40.851 -14.817   0.855  1.00  0.00    -0.225 N 
HETATM    3  C   UNL     1      39.989 -14.135   1.693  1.00  0.00     0.276 C 
HETATM    4  O   UNL     1      40.062 -14.191   2.920  1.00  0.00    -0.266 OA
HETATM    5  C   UNL     1      38.925 -13.364   1.015  1.00  0.00     0.060 A 
HETATM    6  C   UNL     1      38.747 -13.579  -0.361  1.00  0.00     0.045 A 
HETATM    7  N   UNL     1      39.585 -14.462  -1.056  1.00  0.00    -0.362 N 
HETATM    8  C   UNL     1      38.075 -12.522   1.737  1.00  0.00     0.019 A 
HETATM    9  C   UNL     1      37.021 -11.889   1.082  1.00  0.00     0.001 A 
HETATM   10  C   UNL     1      36.808 -12.123  -0.279  1.00  0.00     0.002 A 
HETATM   11  C   UNL     1      37.657 -12.976  -0.992  1.00  0.00     0.030 A 
HETATM   12  H   UNL     1      39.501 -14.458  -2.061  1.00  0.00     0.162 HD
ENDROOT
BRANCH   2  13
HETATM   13  N   UNL     1      41.741 -15.731   1.463  1.00  0.00    -0.258 N 
HETATM   14  C   UNL     1      41.455 -17.080   1.539  1.00  0.00     0.270 C 
HETATM   15  O   UNL     1      40.619 -17.680   0.875  1.00  0.00    -0.266 OA
HETATM   16  H   UNL     1      42.346 -15.298   2.157  1.00  0.00     0.190 HD
BRANCH  14  17
HETATM   17  C   UNL     1      42.326 -17.834   2.473  1.00  0.00     0.033 A 
HETATM   18  C   UNL     1      42.189 -17.703   3.858  1.00  0.00     0.020 A 
HETATM   19  C   UNL     1      43.048 -18.404   4.713  1.00  0.00     0.038 A 
HETATM   20  C   UNL     1      44.043 -19.231   4.187  1.00  0.00     0.069 A 
HETATM   21  C   UNL     1      44.164 -19.365   2.800  1.00  0.00     0.038 A 
HETATM   22  C   UNL     1      43.304 -18.678   1.941  1.00  0.00     0.020 A 
BRANCH  20  23
HETATM   23  O   UNL     1      44.954 -19.953   4.908  1.00  0.00    -0.348 OA
BRANCH  23  24
HETATM   24  C   UNL     1      44.458 -21.048   5.675  1.00  0.00     0.202 C 
BRANCH  24  25
HETATM   25  C   UNL     1      45.014 -22.304   5.076  1.00  0.00    -0.011 C 
HETATM   26  C   UNL     1      44.656 -22.807   3.888  1.00  0.00     0.009 C 
ENDBRANCH  24  25
ENDBRANCH  23  24
ENDBRANCH  20  23
ENDBRANCH  14  17
ENDBRANCH   2  13
BRANCH   1  27
HETATM   27  C   UNL     1      41.770 -13.228  -0.945  1.00  0.00    -0.009 A 
HETATM   28  C   UNL     1      42.072 -12.807  -2.265  1.00  0.00    -0.051 A 
HETATM   29  C   UNL     1      42.755 -11.585  -2.478  1.00  0.00     0.014 A 
HETATM   30  C   UNL     1      41.687 -13.560  -3.508  1.00  0.00     0.049 C 
HETATM   31  C   UNL     1      43.128 -10.748  -1.427  1.00  0.00    -0.061 A 
HETATM   32  C   UNL     1      43.803  -9.436  -1.692  1.00  0.00     0.048 C 
HETATM   33  C   UNL     1      42.788 -11.122  -0.135  1.00  0.00     0.007 A 
HETATM   34  C   UNL     1      42.120 -12.328   0.096  1.00  0.00     0.012 A 
ENDBRANCH   1  27
TORSDOF 6
ENDMDL
MODEL 2
REMARK VINA RESULT:      -8.7      5.846      8.910
REMARK  6 active torsions:
REMARK  status: ('A' for Active; 'I' for Inactive)
REMARK    1  A    between atoms: C_6  and  C_7 
REMARK    2  A    between atoms: N_8  and  N_9 
REMARK       I    between atoms: N_9  and  C_10 
REMARK    3  A    between atoms: C_10  and  C_11 
REMARK    4  A    between atoms: C_14  and  O_15 
REMARK    5  A    between atoms: O_15  and  C_16 
REMARK    6  A    between atoms: C_16  and  C_17 
ROOT
HETATM    1  C   UNL     1      41.837 -15.666   5.412  1.00  0.00     0.244 C 
HETATM    2  N   UNL     1      42.492 -14.434   4.984  1.00  0.00    -0.225 N 
HETATM    3  C   UNL     1      42.800 -14.175   3.661  1.00  0.00     0.276 C 
HETATM    4  O   UNL     1      43.578 -13.285   3.318  1.00  0.00    -0.266 OA
HETATM    5  C   UNL     1      42.087 -15.008   2.670  1.00  0.00     0.060 A 
HETATM    6  C   UNL     1      41.023 -15.797   3.133  1.00  0.00     0.045 A 
HETATM    7  N   UNL     1      40.692 -15.814   4.495  1.00  0.00    -0.362 N 
HETATM    8  C   UNL     1      42.409 -14.941   1.311  1.00  0.00     0.019 A 
HETATM    9  C   UNL     1      41.650 -15.664   0.393  1.00  0.00     0.001 A 
HETATM   10  C   UNL     1      40.564 -16.423   0.834  1.00  0.00     0.002 A 
HETATM   11  C   UNL     1      40.243 -16.476   2.195  1.00  0.00     0.030 A 
HETATM   12  H   UNL     1      40.019 -16.509   4.781  1.00  0.00     0.162 HD
ENDROOT
BRANCH   2  13
HETATM   13  N   UNL     1      42.984 -13.523   5.945  1.00  0.00    -0.258 N 
HETATM   14  C   UNL     1      44.183 -13.734   6.596  1.00  0.00     0.270 C 
HETATM   15  O   UNL     1      45.071 -14.500   6.245  1.00  0.00    -0.266 OA
HETATM   16  H   UNL     1      42.249 -12.979   6.392  1.00  0.00     0.190 HD
BRANCH  14  17
HETATM   17  C   UNL     1      44.391 -12.866   7.781  1.00  0.00     0.033 A 
HETATM   18  C   UNL     1      45.609 -12.856   8.468  1.00  0.00     0.020 A 
HETATM   19  C   UNL     1      45.764 -12.048   9.601  1.00  0.00     0.038 A 
HETATM   20  C   UNL     1      44.705 -11.256  10.051  1.00  0.00     0.069 A 
HETATM   21  C   UNL     1      43.495 -11.265   9.349  1.00  0.00     0.038 A 
HETATM   22  C   UNL     1      43.336 -12.058   8.211  1.00  0.00     0.020 A 
BRANCH  20  23
HETATM   23  O   UNL     1      44.719 -10.441  11.148  1.00  0.00    -0.348 OA
BRANCH  23  24
HETATM   24  C   UNL     1      43.484  -9.837  11.527  1.00  0.00     0.202 C 
BRANCH  24  25
HETATM   25  C   UNL     1      43.266 -10.136  12.980  1.00  0.00    -0.011 C 
HETATM   26  C   UNL     1      43.233  -9.216  13.952  1.00  0.00     0.009 C 
ENDBRANCH  24  25
ENDBRANCH  23  24
ENDBRANCH  20  23
ENDBRANCH  14  17
ENDBRANCH   2  13
BRANCH   1  27
HETATM   27  C   UNL     1      42.712 -16.952   5.459  1.00  0.00    -0.009 A 
HETATM   28  C   UNL     1      43.305 -17.502   6.624  1.00  0.00    -0.051 A 
HETATM   29  C   UNL     1      44.034 -18.713   6.541  1.00  0.00     0.014 A 
HETATM   30  C   UNL     1      43.198 -16.903   7.999  1.00  0.00     0.049 C 
HETATM   31  C   UNL     1      44.174 -19.417   5.344  1.00  0.00    -0.061 A 
HETATM   32  C   UNL     1      44.907 -20.724   5.303  1.00  0.00     0.048 C 
HETATM   33  C   UNL     1      43.550 -18.918   4.211  1.00  0.00     0.007 A 
HETATM   34  C   UNL     1      42.833 -17.720   4.271  1.00  0.00     0.012 A 
ENDBRANCH   1  27
TORSDOF 6
ENDMDL
MODEL 3
REMARK VINA RESULT:      -8.5      1.154      1.778
REMARK  6 active torsions:
REMARK  status: ('A' for Active; 'I' for Inactive)
REMARK    1  A    between atoms: C_6  and  C_7 
REMARK    2  A    between atoms: N_8  and  N_9 
REMARK       I    between atoms: N_9  and  C_10 
REMARK    3  A    between atoms: C_10  and  C_11 
REMARK    4  A    between atoms: C_14  and  O_15 
REMARK    5  A    between atoms: O_15  and  C_16 
REMARK    6  A    between atoms: C_16  and  C_17 
ROOT
HETATM    1  C   UNL     1      39.873 -14.725  -0.023  1.00  0.00     0.244 C 
HETATM    2  N   UNL     1      40.515 -14.606   1.282  1.00  0.00    -0.225 N 
HETATM    3  C   UNL     1      40.368 -13.491   2.086  1.00  0.00     0.276 C 
HETATM    4  O   UNL     1      41.101 -13.258   3.047  1.00  0.00    -0.266 OA
HETATM    5  C   UNL     1      39.229 -12.611   1.748  1.00  0.00     0.060 A 
HETATM    6  C   UNL     1      38.291 -13.094   0.823  1.00  0.00     0.045 A 
HETATM    7  N   UNL     1      38.468 -14.348   0.221  1.00  0.00    -0.362 N 
HETATM    8  C   UNL     1      39.052 -11.384   2.394  1.00  0.00     0.019 A 
HETATM    9  C   UNL     1      37.914 -10.628   2.123  1.00  0.00     0.001 A 
HETATM   10  C   UNL     1      36.952 -11.113   1.234  1.00  0.00     0.002 A 
HETATM   11  C   UNL     1      37.133 -12.347   0.600  1.00  0.00     0.030 A 
HETATM   12  H   UNL     1      37.842 -14.569  -0.539  1.00  0.00     0.162 HD
ENDROOT
BRANCH   2  13
HETATM   13  N   UNL     1      41.452 -15.577   1.700  1.00  0.00    -0.258 N 
HETATM   14  C   UNL     1      41.056 -16.829   2.129  1.00  0.00     0.270 C 
HETATM   15  O   UNL     1      39.966 -17.349   1.929  1.00  0.00    -0.266 OA
HETATM   16  H   UNL     1      42.322 -15.172   2.040  1.00  0.00     0.190 HD
BRANCH  14  17
HETATM   17  C   UNL     1      42.119 -17.596   2.823  1.00  0.00     0.033 A 
HETATM   18  C   UNL     1      43.005 -18.411   2.112  1.00  0.00     0.020 A 
HETATM   19  C   UNL     1      43.979 -19.148   2.799  1.00  0.00     0.038 A 
HETATM   20  C   UNL     1      44.064 -19.074   4.191  1.00  0.00     0.069 A 
HETATM   21  C   UNL     1      43.180 -18.246   4.891  1.00  0.00     0.038 A 
HETATM   22  C   UNL     1      42.215 -17.500   4.212  1.00  0.00     0.020 A 
BRANCH  20  23
HETATM   23  O   UNL     1      44.951 -19.752   4.980  1.00  0.00    -0.348 OA
BRANCH  23  24
HETATM   24  C   UNL     1      44.485 -20.943   5.610  1.00  0.00     0.202 C 
BRANCH  24  25
HETATM   25  C   UNL     1      45.125 -22.102   4.907  1.00  0.00    -0.011 C 
HETATM   26  C   UNL     1      44.606 -22.734   3.847  1.00  0.00     0.009 C 
ENDBRANCH  24  25
ENDBRANCH  23  24
ENDBRANCH  20  23
ENDBRANCH  14  17
ENDBRANCH   2  13
BRANCH   1  27
HETATM   27  C   UNL     1      40.496 -13.911  -1.194  1.00  0.00    -0.009 A 
HETATM   28  C   UNL     1      39.927 -13.756  -2.484  1.00  0.00    -0.051 A 
HETATM   29  C   UNL     1      40.570 -12.940  -3.446  1.00  0.00     0.014 A 
HETATM   30  C   UNL     1      38.633 -14.382  -2.924  1.00  0.00     0.049 C 
HETATM   31  C   UNL     1      41.748 -12.247  -3.167  1.00  0.00    -0.061 A 
HETATM   32  C   UNL     1      42.372 -11.349  -4.193  1.00  0.00     0.048 C 
HETATM   33  C   UNL     1      42.283 -12.346  -1.892  1.00  0.00     0.007 A 
HETATM   34  C   UNL     1      41.668 -13.153  -0.930  1.00  0.00     0.012 A 
ENDBRANCH   1  27
TORSDOF 6
ENDMDL
MODEL 4
REMARK VINA RESULT:      -8.3      2.890      8.723
REMARK  6 active torsions:
REMARK  status: ('A' for Active; 'I' for Inactive)
REMARK    1  A    between atoms: C_6  and  C_7 
REMARK    2  A    between atoms: N_8  and  N_9 
REMARK       I    between atoms: N_9  and  C_10 
REMARK    3  A    between atoms: C_10  and  C_11 
REMARK    4  A    between atoms: C_14  and  O_15 
REMARK    5  A    between atoms: O_15  and  C_16 
REMARK    6  A    between atoms: C_16  and  C_17 
ROOT
HETATM    1  C   UNL     1      42.201 -16.530   4.147  1.00  0.00     0.244 C 
HETATM    2  N   UNL     1      42.721 -16.821   2.816  1.00  0.00    -0.225 N 
HETATM    3  C   UNL     1      43.738 -17.733   2.595  1.00  0.00     0.276 C 
HETATM    4  O   UNL     1      44.364 -17.794   1.537  1.00  0.00    -0.266 OA
HETATM    5  C   UNL     1      43.993 -18.677   3.703  1.00  0.00     0.060 A 
HETATM    6  C   UNL     1      43.057 -18.717   4.748  1.00  0.00     0.045 A 
HETATM    7  N   UNL     1      41.951 -17.855   4.744  1.00  0.00    -0.362 N 
HETATM    8  C   UNL     1      45.080 -19.555   3.663  1.00  0.00     0.019 A 
HETATM    9  C   UNL     1      45.233 -20.499   4.676  1.00  0.00     0.001 A 
HETATM   10  C   UNL     1      44.289 -20.577   5.702  1.00  0.00     0.002 A 
HETATM   11  C   UNL     1      43.198 -19.701   5.729  1.00  0.00     0.030 A 
HETATM   12  H   UNL     1      41.403 -17.832   5.590  1.00  0.00     0.162 HD
ENDROOT
BRANCH   2  13
HETATM   13  N   UNL     1      42.304 -16.049   1.708  1.00  0.00    -0.258 N 
HETATM   14  C   UNL     1      41.416 -16.544   0.773  1.00  0.00     0.270 C 
HETATM   15  O   UNL     1      40.680 -17.511   0.917  1.00  0.00    -0.266 OA
HETATM   16  H   UNL     1      42.978 -15.333   1.444  1.00  0.00     0.190 HD
BRANCH  14  17
HETATM   17  C   UNL     1      41.335 -15.740  -0.470  1.00  0.00     0.033 A 
HETATM   18  C   UNL     1      41.026 -16.334  -1.698  1.00  0.00     0.020 A 
HETATM   19  C   UNL     1      40.987 -15.553  -2.860  1.00  0.00     0.038 A 
HETATM   20  C   UNL     1      41.259 -14.184  -2.798  1.00  0.00     0.069 A 
HETATM   21  C   UNL     1      41.555 -13.598  -1.562  1.00  0.00     0.038 A 
HETATM   22  C   UNL     1      41.584 -14.368  -0.398  1.00  0.00     0.020 A 
BRANCH  20  23
HETATM   23  O   UNL     1      41.273 -13.317  -3.854  1.00  0.00    -0.348 OA
BRANCH  23  24
HETATM   24  C   UNL     1      41.262 -11.923  -3.554  1.00  0.00     0.202 C 
BRANCH  24  25
HETATM   25  C   UNL     1      42.133 -11.240  -4.565  1.00  0.00    -0.011 C 
HETATM   26  C   UNL     1      42.540  -9.967  -4.486  1.00  0.00     0.009 C 
ENDBRANCH  24  25
ENDBRANCH  23  24
ENDBRANCH  20  23
ENDBRANCH  14  17
ENDBRANCH   2  13
BRANCH   1  27
HETATM   27  C   UNL     1      43.079 -15.635   5.069  1.00  0.00    -0.009 A 
HETATM   28  C   UNL     1      43.533 -14.328   4.758  1.00  0.00    -0.051 A 
HETATM   29  C   UNL     1      44.281 -13.595   5.711  1.00  0.00     0.014 A 
HETATM   30  C   UNL     1      43.251 -13.614   3.466  1.00  0.00     0.049 C 
HETATM   31  C   UNL     1      44.574 -14.102   6.977  1.00  0.00    -0.061 A 
HETATM   32  C   UNL     1      45.322 -13.277   7.981  1.00  0.00     0.048 C 
HETATM   33  C   UNL     1      44.087 -15.356   7.313  1.00  0.00     0.007 A 
HETATM   34  C   UNL     1      43.353 -16.099   6.383  1.00  0.00     0.012 A 
ENDBRANCH   1  27
TORSDOF 6
ENDMDL
MODEL 5
REMARK VINA RESULT:      -8.2      2.804      8.630
REMARK  6 active torsions:
REMARK  status: ('A' for Active; 'I' for Inactive)
REMARK    1  A    between atoms: C_6  and  C_7 
REMARK    2  A    between atoms: N_8  and  N_9 
REMARK       I    between atoms: N_9  and  C_10 
REMARK    3  A    between atoms: C_10  and  C_11 
REMARK    4  A    between atoms: C_14  and  O_15 
REMARK    5  A    between atoms: O_15  and  C_16 
REMARK    6  A    between atoms: C_16  and  C_17 
ROOT
HETATM    1  C   UNL     1      41.581 -16.957   4.661  1.00  0.00     0.244 C 
HETATM    2  N   UNL     1      41.823 -17.302   3.264  1.00  0.00    -0.225 N 
HETATM    3  C   UNL     1      42.863 -18.123   2.868  1.00  0.00     0.276 C 
HETATM    4  O   UNL     1      43.242 -18.207   1.700  1.00  0.00    -0.266 OA
HETATM    5  C   UNL     1      43.464 -18.945   3.940  1.00  0.00     0.060 A 
HETATM    6  C   UNL     1      42.794 -18.992   5.171  1.00  0.00     0.045 A 
HETATM    7  N   UNL     1      41.623 -18.248   5.373  1.00  0.00    -0.362 N 
HETATM    8  C   UNL     1      44.609 -19.711   3.701  1.00  0.00     0.019 A 
HETATM    9  C   UNL     1      45.089 -20.550   4.704  1.00  0.00     0.001 A 
HETATM   10  C   UNL     1      44.411 -20.638   5.921  1.00  0.00     0.002 A 
HETATM   11  C   UNL     1      43.261 -19.875   6.148  1.00  0.00     0.030 A 
HETATM   12  H   UNL     1      41.277 -18.210   6.319  1.00  0.00     0.162 HD
ENDROOT
BRANCH   2  13
HETATM   13  N   UNL     1      41.085 -16.667   2.240  1.00  0.00    -0.258 N 
HETATM   14  C   UNL     1      41.441 -15.424   1.755  1.00  0.00     0.270 C 
HETATM   15  O   UNL     1      42.527 -14.876   1.896  1.00  0.00    -0.266 OA
HETATM   16  H   UNL     1      40.116 -16.973   2.198  1.00  0.00     0.190 HD
BRANCH  14  17
HETATM   17  C   UNL     1      40.396 -14.774   0.926  1.00  0.00     0.033 A 
HETATM   18  C   UNL     1      39.089 -14.621   1.398  1.00  0.00     0.020 A 
HETATM   19  C   UNL     1      38.117 -14.031   0.579  1.00  0.00     0.038 A 
HETATM   20  C   UNL     1      38.449 -13.599  -0.707  1.00  0.00     0.069 A 
HETATM   21  C   UNL     1      39.763 -13.746  -1.164  1.00  0.00     0.038 A 
HETATM   22  C   UNL     1      40.740 -14.322  -0.350  1.00  0.00     0.020 A 
BRANCH  20  23
HETATM   23  O   UNL     1      37.595 -13.026  -1.609  1.00  0.00    -0.348 OA
BRANCH  23  24
HETATM   24  C   UNL     1      37.911 -13.176  -2.991  1.00  0.00     0.202 C 
BRANCH  24  25
HETATM   25  C   UNL     1      37.286 -14.457  -3.458  1.00  0.00    -0.011 C 
HETATM   26  C   UNL     1      37.968 -15.528  -3.884  1.00  0.00     0.009 C 
ENDBRANCH  24  25
ENDBRANCH  23  24
ENDBRANCH  20  23
ENDBRANCH  14  17
ENDBRANCH   2  13
BRANCH   1  27
HETATM   27  C   UNL     1      42.533 -15.908   5.305  1.00  0.00    -0.009 A 
HETATM   28  C   UNL     1      42.275 -14.517   5.411  1.00  0.00    -0.051 A 
HETATM   29  C   UNL     1      43.202 -13.676   6.073  1.00  0.00     0.014 A 
HETATM   30  C   UNL     1      41.041 -13.838   4.886  1.00  0.00     0.049 C 
HETATM   31  C   UNL     1      44.366 -14.168   6.662  1.00  0.00    -0.061 A 
HETATM   32  C   UNL     1      45.298 -13.257   7.402  1.00  0.00     0.048 C 
HETATM   33  C   UNL     1      44.600 -15.534   6.614  1.00  0.00     0.007 A 
HETATM   34  C   UNL     1      43.702 -16.381   5.958  1.00  0.00     0.012 A 
ENDBRANCH   1  27
TORSDOF 6
ENDMDL
MODEL 6
REMARK VINA RESULT:      -8.2      1.463      1.843
REMARK  6 active torsions:
REMARK  status: ('A' for Active; 'I' for Inactive)
REMARK    1  A    between atoms: C_6  and  C_7 
REMARK    2  A    between atoms: N_8  and  N_9 
REMARK       I    between atoms: N_9  and  C_10 
REMARK    3  A    between atoms: C_10  and  C_11 
REMARK    4  A    between atoms: C_14  and  O_15 
REMARK    5  A    between atoms: O_15  and  C_16 
REMARK    6  A    between atoms: C_16  and  C_17 
ROOT
HETATM    1  C   UNL     1      41.399 -13.252  -1.672  1.00  0.00     0.244 C 
HETATM    2  N   UNL     1      40.932 -13.774  -0.393  1.00  0.00    -0.225 N 
HETATM    3  C   UNL     1      39.820 -13.271   0.257  1.00  0.00     0.276 C 
HETATM    4  O   UNL     1      39.571 -13.507   1.439  1.00  0.00    -0.266 OA
HETATM    5  C   UNL     1      38.908 -12.464  -0.581  1.00  0.00     0.060 A 
HETATM    6  C   UNL     1      39.121 -12.479  -1.968  1.00  0.00     0.045 A 
HETATM    7  N   UNL     1      40.190 -13.202  -2.515  1.00  0.00    -0.362 N 
HETATM    8  C   UNL     1      37.824 -11.786  -0.016  1.00  0.00     0.019 A 
HETATM    9  C   UNL     1      36.928 -11.118  -0.848  1.00  0.00     0.001 A 
HETATM   10  C   UNL     1      37.105 -11.155  -2.233  1.00  0.00     0.002 A 
HETATM   11  C   UNL     1      38.187 -11.846  -2.790  1.00  0.00     0.030 A 
HETATM   12  H   UNL     1      40.374 -13.052  -3.495  1.00  0.00     0.162 HD
ENDROOT
BRANCH   2  13
HETATM   13  N   UNL     1      41.709 -14.721   0.311  1.00  0.00    -0.258 N 
HETATM   14  C   UNL     1      41.594 -16.076   0.070  1.00  0.00     0.270 C 
HETATM   15  O   UNL     1      41.086 -16.594  -0.916  1.00  0.00    -0.266 OA
HETATM   16  H   UNL     1      42.013 -14.389   1.224  1.00  0.00     0.190 HD
BRANCH  14  17
HETATM   17  C   UNL     1      42.234 -16.932   1.099  1.00  0.00     0.033 A 
HETATM   18  C   UNL     1      41.566 -17.268   2.280  1.00  0.00     0.020 A 
HETATM   19  C   UNL     1      42.209 -18.052   3.246  1.00  0.00     0.038 A 
HETATM   20  C   UNL     1      43.516 -18.497   3.035  1.00  0.00     0.069 A 
HETATM   21  C   UNL     1      44.171 -18.165   1.844  1.00  0.00     0.038 A 
HETATM   22  C   UNL     1      43.532 -17.394   0.871  1.00  0.00     0.020 A 
BRANCH  20  23
HETATM   23  O   UNL     1      44.260 -19.250   3.901  1.00  0.00    -0.348 OA
BRANCH  23  24
HETATM   24  C   UNL     1      45.040 -20.305   3.343  1.00  0.00     0.202 C 
BRANCH  24  25
HETATM   25  C   UNL     1      44.089 -21.361   2.864  1.00  0.00    -0.011 C 
HETATM   26  C   UNL     1      44.102 -21.900   1.638  1.00  0.00     0.009 C 
ENDBRANCH  24  25
ENDBRANCH  23  24
ENDBRANCH  20  23
ENDBRANCH  14  17
ENDBRANCH   2  13
BRANCH   1  27
HETATM   27  C   UNL     1      42.145 -11.887  -1.648  1.00  0.00    -0.009 A 
HETATM   28  C   UNL     1      42.497 -11.120  -2.789  1.00  0.00    -0.051 A 
HETATM   29  C   UNL     1      43.127  -9.862  -2.628  1.00  0.00     0.014 A 
HETATM   30  C   UNL     1      42.220 -11.530  -4.208  1.00  0.00     0.049 C 
HETATM   31  C   UNL     1      43.398  -9.321  -1.371  1.00  0.00    -0.061 A 
HETATM   32  C   UNL     1      44.016  -7.962  -1.237  1.00  0.00     0.048 C 
HETATM   33  C   UNL     1      43.007 -10.036  -0.249  1.00  0.00     0.007 A 
HETATM   34  C   UNL     1      42.391 -11.283  -0.387  1.00  0.00     0.012 A 
ENDBRANCH   1  27
TORSDOF 6
ENDMDL
MODEL 7
REMARK VINA RESULT:      -8.1      5.731      8.842
REMARK  6 active torsions:
REMARK  status: ('A' for Active; 'I' for Inactive)
REMARK    1  A    between atoms: C_6  and  C_7 
REMARK    2  A    between atoms: N_8  and  N_9 
REMARK       I    between atoms: N_9  and  C_10 
REMARK    3  A    between atoms: C_10  and  C_11 
REMARK    4  A    between atoms: C_14  and  O_15 
REMARK    5  A    between atoms: O_15  and  C_16 
REMARK    6  A    between atoms: C_16  and  C_17 
ROOT
HETATM    1  C   UNL     1      40.655 -15.147   5.034  1.00  0.00     0.244 C 
HETATM    2  N   UNL     1      41.024 -13.736   5.060  1.00  0.00    -0.225 N 
HETATM    3  C   UNL     1      41.536 -13.078   3.956  1.00  0.00     0.276 C 
HETATM    4  O   UNL     1      42.095 -11.985   4.028  1.00  0.00    -0.266 OA
HETATM    5  C   UNL     1      41.319 -13.755   2.659  1.00  0.00     0.060 A 
HETATM    6  C   UNL     1      40.438 -14.847   2.639  1.00  0.00     0.045 A 
HETATM    7  N   UNL     1      39.829 -15.291   3.821  1.00  0.00    -0.362 N 
HETATM    8  C   UNL     1      41.904 -13.267   1.487  1.00  0.00     0.019 A 
HETATM    9  C   UNL     1      41.598 -13.870   0.269  1.00  0.00     0.001 A 
HETATM   10  C   UNL     1      40.692 -14.932   0.227  1.00  0.00     0.002 A 
HETATM   11  C   UNL     1      40.104 -15.407   1.404  1.00  0.00     0.030 A 
HETATM   12  H   UNL     1      39.328 -16.164   3.763  1.00  0.00     0.162 HD
ENDROOT
BRANCH   2  13
HETATM   13  N   UNL     1      41.020 -13.025   6.281  1.00  0.00    -0.258 N 
HETATM   14  C   UNL     1      39.974 -12.193   6.632  1.00  0.00     0.270 C 
HETATM   15  O   UNL     1      38.855 -12.192   6.136  1.00  0.00    -0.266 OA
HETATM   16  H   UNL     1      41.954 -12.853   6.646  1.00  0.00     0.190 HD
BRANCH  14  17
HETATM   17  C   UNL     1      40.271 -11.295   7.773  1.00  0.00     0.033 A 
HETATM   18  C   UNL     1      39.381 -11.164   8.844  1.00  0.00     0.020 A 
HETATM   19  C   UNL     1      39.676 -10.284   9.892  1.00  0.00     0.038 A 
HETATM   20  C   UNL     1      40.854  -9.533   9.871  1.00  0.00     0.069 A 
HETATM   21  C   UNL     1      41.743  -9.680   8.801  1.00  0.00     0.038 A 
HETATM   22  C   UNL     1      41.462 -10.564   7.758  1.00  0.00     0.020 A 
BRANCH  20  23
HETATM   23  O   UNL     1      41.249  -8.629  10.817  1.00  0.00    -0.348 OA
BRANCH  23  24
HETATM   24  C   UNL     1      41.407  -9.108  12.151  1.00  0.00     0.202 C 
BRANCH  24  25
HETATM   25  C   UNL     1      42.874  -9.094  12.462  1.00  0.00    -0.011 C 
HETATM   26  C   UNL     1      43.721 -10.096  12.193  1.00  0.00     0.009 C 
ENDBRANCH  24  25
ENDBRANCH  23  24
ENDBRANCH  20  23
ENDBRANCH  14  17
ENDBRANCH   2  13
BRANCH   1  27
HETATM   27  C   UNL     1      41.816 -16.182   5.071  1.00  0.00    -0.009 A 
HETATM   28  C   UNL     1      43.049 -16.013   5.752  1.00  0.00    -0.051 A 
HETATM   29  C   UNL     1      44.004 -17.059   5.754  1.00  0.00     0.014 A 
HETATM   30  C   UNL     1      43.432 -14.784   6.527  1.00  0.00     0.049 C 
HETATM   31  C   UNL     1      43.769 -18.283   5.126  1.00  0.00    -0.061 A 
HETATM   32  C   UNL     1      44.780 -19.387   5.194  1.00  0.00     0.048 C 
HETATM   33  C   UNL     1      42.545 -18.479   4.505  1.00  0.00     0.007 A 
HETATM   34  C   UNL     1      41.592 -17.456   4.486  1.00  0.00     0.012 A 
ENDBRANCH   1  27
TORSDOF 6
ENDMDL
MODEL 8
REMARK VINA RESULT:      -7.9      1.979      4.427
REMARK  6 active torsions:
REMARK  status: ('A' for Active; 'I' for Inactive)
REMARK    1  A    between atoms: C_6  and  C_7 
REMARK    2  A    between atoms: N_8  and  N_9 
REMARK       I    between atoms: N_9  and  C_10 
REMARK    3  A    between atoms: C_10  and  C_11 
REMARK    4  A    between atoms: C_14  and  O_15 
REMARK    5  A    between atoms: O_15  and  C_16 
REMARK    6  A    between atoms: C_16  and  C_17 
ROOT
HETATM    1  C   UNL     1      41.281 -12.090   1.435  1.00  0.00     0.244 C 
HETATM    2  N   UNL     1      41.760 -13.315   0.803  1.00  0.00    -0.225 N 
HETATM    3  C   UNL     1      41.903 -13.441  -0.566  1.00  0.00     0.276 C 
HETATM    4  O   UNL     1      42.043 -14.527  -1.128  1.00  0.00    -0.266 OA
HETATM    5  C   UNL     1      41.932 -12.169  -1.320  1.00  0.00     0.060 A 
HETATM    6  C   UNL     1      42.047 -10.982  -0.580  1.00  0.00     0.045 A 
HETATM    7  N   UNL     1      42.087 -11.018   0.821  1.00  0.00    -0.362 N 
HETATM    8  C   UNL     1      41.934 -12.161  -2.718  1.00  0.00     0.019 A 
HETATM    9  C   UNL     1      42.063 -10.950  -3.393  1.00  0.00     0.001 A 
HETATM   10  C   UNL     1      42.217  -9.764  -2.672  1.00  0.00     0.002 A 
HETATM   11  C   UNL     1      42.224  -9.782  -1.273  1.00  0.00     0.030 A 
HETATM   12  H   UNL     1      42.020 -10.128   1.291  1.00  0.00     0.162 HD
ENDROOT
BRANCH   2  13
HETATM   13  N   UNL     1      41.943 -14.484   1.575  1.00  0.00    -0.258 N 
HETATM   14  C   UNL     1      42.946 -14.580   2.519  1.00  0.00     0.270 C 
HETATM   15  O   UNL     1      43.567 -13.646   3.011  1.00  0.00    -0.266 OA
HETATM   16  H   UNL     1      41.588 -15.323   1.119  1.00  0.00     0.190 HD
BRANCH  14  17
HETATM   17  C   UNL     1      43.195 -15.960   3.001  1.00  0.00     0.033 A 
HETATM   18  C   UNL     1      43.063 -16.291   4.353  1.00  0.00     0.020 A 
HETATM   19  C   UNL     1      43.336 -17.596   4.782  1.00  0.00     0.038 A 
HETATM   20  C   UNL     1      43.742 -18.567   3.864  1.00  0.00     0.069 A 
HETATM   21  C   UNL     1      43.859 -18.229   2.512  1.00  0.00     0.038 A 
HETATM   22  C   UNL     1      43.578 -16.933   2.075  1.00  0.00     0.020 A 
BRANCH  20  23
HETATM   23  O   UNL     1      44.055 -19.867   4.153  1.00  0.00    -0.348 OA
BRANCH  23  24
HETATM   24  C   UNL     1      44.999 -20.514   3.303  1.00  0.00     0.202 C 
BRANCH  24  25
HETATM   25  C   UNL     1      44.341 -21.748   2.761  1.00  0.00    -0.011 C 
HETATM   26  C   UNL     1      44.049 -21.953   1.470  1.00  0.00     0.009 C 
ENDBRANCH  24  25
ENDBRANCH  23  24
ENDBRANCH  20  23
ENDBRANCH  14  17
ENDBRANCH   2  13
BRANCH   1  27
HETATM   27  C   UNL     1      39.756 -11.795   1.341  1.00  0.00    -0.009 A 
HETATM   28  C   UNL     1      39.126 -10.586   1.729  1.00  0.00    -0.051 A 
HETATM   29  C   UNL     1      37.732 -10.423   1.539  1.00  0.00     0.014 A 
HETATM   30  C   UNL     1      39.842  -9.404   2.321  1.00  0.00     0.049 C 
HETATM   31  C   UNL     1      36.941 -11.410   0.950  1.00  0.00    -0.061 A 
HETATM   32  C   UNL     1      35.478 -11.182   0.714  1.00  0.00     0.048 C 
HETATM   33  C   UNL     1      37.556 -12.573   0.514  1.00  0.00     0.007 A 
HETATM   34  C   UNL     1      38.930 -12.756   0.701  1.00  0.00     0.012 A 
ENDBRANCH   1  27
TORSDOF 6
ENDMDL
MODEL 9
REMARK VINA RESULT:      -7.5      2.537      5.067
REMARK  6 active torsions:
REMARK  status: ('A' for Active; 'I' for Inactive)
REMARK    1  A    between atoms: C_6  and  C_7 
REMARK    2  A    between atoms: N_8  and  N_9 
REMARK       I    between atoms: N_9  and  C_10 
REMARK    3  A    between atoms: C_10  and  C_11 
REMARK    4  A    between atoms: C_14  and  O_15 
REMARK    5  A    between atoms: O_15  and  C_16 
REMARK    6  A    between atoms: C_16  and  C_17 
ROOT
HETATM    1  C   UNL     1      39.450 -12.320  -1.316  1.00  0.00     0.244 C 
HETATM    2  N   UNL     1      40.659 -13.134  -1.392  1.00  0.00    -0.225 N 
HETATM    3  C   UNL     1      41.591 -12.992  -2.403  1.00  0.00     0.276 C 
HETATM    4  O   UNL     1      42.461 -13.830  -2.634  1.00  0.00    -0.266 OA
HETATM    5  C   UNL     1      41.510 -11.728  -3.166  1.00  0.00     0.060 A 
HETATM    6  C   UNL     1      40.677 -10.719  -2.660  1.00  0.00     0.045 A 
HETATM    7  N   UNL     1      39.925 -10.935  -1.497  1.00  0.00    -0.362 N 
HETATM    8  C   UNL     1      42.303 -11.520  -4.299  1.00  0.00     0.019 A 
HETATM    9  C   UNL     1      42.274 -10.280  -4.934  1.00  0.00     0.001 A 
HETATM   10  C   UNL     1      41.480  -9.254  -4.419  1.00  0.00     0.002 A 
HETATM   11  C   UNL     1      40.697  -9.467  -3.279  1.00  0.00     0.030 A 
HETATM   12  H   UNL     1      39.240 -10.230  -1.272  1.00  0.00     0.162 HD
ENDROOT
BRANCH   2  13
HETATM   13  N   UNL     1      40.837 -14.220  -0.507  1.00  0.00    -0.258 N 
HETATM   14  C   UNL     1      41.657 -14.126   0.601  1.00  0.00     0.270 C 
HETATM   15  O   UNL     1      42.063 -13.091   1.113  1.00  0.00    -0.266 OA
HETATM   16  H   UNL     1      40.674 -15.124  -0.946  1.00  0.00     0.190 HD
BRANCH  14  17
HETATM   17  C   UNL     1      41.978 -15.430   1.230  1.00  0.00     0.033 A 
HETATM   18  C   UNL     1      41.334 -16.605   0.833  1.00  0.00     0.020 A 
HETATM   19  C   UNL     1      41.637 -17.816   1.468  1.00  0.00     0.038 A 
HETATM   20  C   UNL     1      42.578 -17.853   2.500  1.00  0.00     0.069 A 
HETATM   21  C   UNL     1      43.226 -16.673   2.882  1.00  0.00     0.038 A 
HETATM   22  C   UNL     1      42.937 -15.464   2.245  1.00  0.00     0.020 A 
BRANCH  20  23
HETATM   23  O   UNL     1      42.950 -18.960   3.211  1.00  0.00    -0.348 OA
BRANCH  23  24
HETATM   24  C   UNL     1      44.063 -19.705   2.722  1.00  0.00     0.202 C 
BRANCH  24  25
HETATM   25  C   UNL     1      43.519 -20.904   2.005  1.00  0.00    -0.011 C 
HETATM   26  C   UNL     1      44.257 -21.934   1.572  1.00  0.00     0.009 C 
ENDBRANCH  24  25
ENDBRANCH  23  24
ENDBRANCH  20  23
ENDBRANCH  14  17
ENDBRANCH   2  13
BRANCH   1  27
HETATM   27  C   UNL     1      38.299 -12.671  -2.301  1.00  0.00    -0.009 A 
HETATM   28  C   UNL     1      37.224 -11.815  -2.652  1.00  0.00    -0.051 A 
HETATM   29  C   UNL     1      36.268 -12.235  -3.608  1.00  0.00     0.014 A 
HETATM   30  C   UNL     1      37.022 -10.432  -2.097  1.00  0.00     0.049 C 
HETATM   31  C   UNL     1      36.353 -13.469  -4.253  1.00  0.00    -0.061 A 
HETATM   32  C   UNL     1      35.354 -13.859  -5.300  1.00  0.00     0.048 C 
HETATM   33  C   UNL     1      37.431 -14.291  -3.961  1.00  0.00     0.007 A 
HETATM   34  C   UNL     1      38.381 -13.897  -3.013  1.00  0.00     0.012 A 
ENDBRANCH   1  27
TORSDOF 6
ENDMDL
MODEL 10
REMARK VINA RESULT:      -7.4      3.681      5.338
REMARK  6 active torsions:
REMARK  status: ('A' for Active; 'I' for Inactive)
REMARK    1  A    between atoms: C_6  and  C_7 
REMARK    2  A    between atoms: N_8  and  N_9 
REMARK       I    between atoms: N_9  and  C_10 
REMARK    3  A    between atoms: C_10  and  C_11 
REMARK    4  A    between atoms: C_14  and  O_15 
REMARK    5  A    between atoms: O_15  and  C_16 
REMARK    6  A    between atoms: C_16  and  C_17 
ROOT
HETATM    1  C   UNL     1      41.515 -11.910   4.269  1.00  0.00     0.244 C 
HETATM    2  N   UNL     1      40.971 -13.131   3.684  1.00  0.00    -0.225 N 
HETATM    3  C   UNL     1      39.760 -13.163   3.018  1.00  0.00     0.276 C 
HETATM    4  O   UNL     1      39.166 -14.210   2.758  1.00  0.00    -0.266 OA
HETATM    5  C   UNL     1      39.240 -11.849   2.583  1.00  0.00     0.060 A 
HETATM    6  C   UNL     1      40.107 -10.749   2.674  1.00  0.00     0.045 A 
HETATM    7  N   UNL     1      41.398 -10.903   3.198  1.00  0.00    -0.362 N 
HETATM    8  C   UNL     1      37.965 -11.729   2.024  1.00  0.00     0.019 A 
HETATM    9  C   UNL     1      37.548 -10.494   1.534  1.00  0.00     0.001 A 
HETATM   10  C   UNL     1      38.413  -9.399   1.581  1.00  0.00     0.002 A 
HETATM   11  C   UNL     1      39.692  -9.530   2.134  1.00  0.00     0.030 A 
HETATM   12  H   UNL     1      41.912 -10.053   3.372  1.00  0.00     0.162 HD
ENDROOT
BRANCH   2  13
HETATM   13  N   UNL     1      41.602 -14.372   3.923  1.00  0.00    -0.258 N 
HETATM   14  C   UNL     1      42.808 -14.698   3.335  1.00  0.00     0.270 C 
HETATM   15  O   UNL     1      43.596 -13.913   2.821  1.00  0.00    -0.266 OA
HETATM   16  H   UNL     1      40.950 -15.107   4.191  1.00  0.00     0.190 HD
BRANCH  14  17
HETATM   17  C   UNL     1      43.165 -16.133   3.435  1.00  0.00     0.033 A 
HETATM   18  C   UNL     1      43.129 -16.806   4.661  1.00  0.00     0.020 A 
HETATM   19  C   UNL     1      43.501 -18.154   4.728  1.00  0.00     0.038 A 
HETATM   20  C   UNL     1      43.910 -18.829   3.576  1.00  0.00     0.069 A 
HETATM   21  C   UNL     1      43.930 -18.151   2.353  1.00  0.00     0.038 A 
HETATM   22  C   UNL     1      43.550 -16.810   2.276  1.00  0.00     0.020 A 
BRANCH  20  23
HETATM   23  O   UNL     1      44.314 -20.134   3.508  1.00  0.00    -0.348 OA
BRANCH  23  24
HETATM   24  C   UNL     1      45.324 -20.552   4.424  1.00  0.00     0.202 C 
BRANCH  24  25
HETATM   25  C   UNL     1      44.732 -21.630   5.282  1.00  0.00    -0.011 C 
HETATM   26  C   UNL     1      44.035 -21.416   6.405  1.00  0.00     0.009 C 
ENDBRANCH  24  25
ENDBRANCH  23  24
ENDBRANCH  20  23
ENDBRANCH  14  17
ENDBRANCH   2  13
BRANCH   1  27
HETATM   27  C   UNL     1      40.875 -11.418   5.599  1.00  0.00    -0.009 A 
HETATM   28  C   UNL     1      40.952 -10.098   6.112  1.00  0.00    -0.051 A 
HETATM   29  C   UNL     1      40.275  -9.765   7.310  1.00  0.00     0.014 A 
HETATM   30  C   UNL     1      41.695  -8.971   5.451  1.00  0.00     0.049 C 
HETATM   31  C   UNL     1      39.498 -10.689   8.008  1.00  0.00    -0.061 A 
HETATM   32  C   UNL     1      38.751 -10.287   9.244  1.00  0.00     0.048 C 
HETATM   33  C   UNL     1      39.369 -11.967   7.486  1.00  0.00     0.007 A 
HETATM   34  C   UNL     1      40.036 -12.318   6.309  1.00  0.00     0.012 A 
ENDBRANCH   1  27
TORSDOF 6
ENDMDL
