MODEL 1
REMARK VINA RESULT:      -9.7      0.000      0.000
REMARK  8 active torsions:
REMARK  status: ('A' for Active; 'I' for Inactive)
REMARK    1  A    between atoms: C_8  and  C_9 
REMARK    2  A    between atoms: C_9  and  C_10 
REMARK       I    between atoms: C_10  and  N_11 
REMARK    3  A    between atoms: N_11  and  C_12 
REMARK    4  A    between atoms: N_11  and  C_27 
REMARK    5  A    between atoms: C_12  and  C_13 
REMARK    6  A    between atoms: C_12  and  C_22 
REMARK       I    between atoms: C_13  and  N_14 
REMARK    7  A    between atoms: N_14  and  C_15 
REMARK    8  A    between atoms: C_27  and  C_28 
ROOT
HETATM    1  C   UNL     1      42.320 -15.984   5.583  1.00  0.00     0.225 C 
HETATM    2  N   UNL     1      43.032 -14.855   6.003  1.00  0.00    -0.330 N 
HETATM    3  O   UNL     1      41.469 -15.922   4.690  1.00  0.00    -0.273 OA
ENDROOT
BRANCH   2   4
HETATM    4  C   UNL     1      42.715 -13.569   5.340  1.00  0.00     0.219 C 
BRANCH   4   5
HETATM    5  C   UNL     1      42.827 -13.676   3.793  1.00  0.00     0.246 C 
HETATM    6  N   UNL     1      41.664 -13.494   3.069  1.00  0.00    -0.354 N 
HETATM    7  H   UNL     1      40.829 -13.734   3.599  1.00  0.00     0.162 HD
HETATM    8  O   UNL     1      43.893 -14.001   3.264  1.00  0.00    -0.271 OA
BRANCH   6   9
HETATM    9  C   UNL     1      41.589 -13.726   1.629  1.00  0.00     0.084 C 
HETATM   10  C   UNL     1      41.136 -15.170   1.350  1.00  0.00     0.025 C 
HETATM   11  C   UNL     1      39.660 -15.400   1.681  1.00  0.00     0.002 C 
HETATM   12  C   UNL     1      38.760 -14.401   0.962  1.00  0.00     0.000 C 
HETATM   13  C   UNL     1      39.183 -12.963   1.239  1.00  0.00     0.002 C 
HETATM   14  C   UNL     1      40.656 -12.739   0.903  1.00  0.00     0.025 C 
ENDBRANCH   6   9
ENDBRANCH   4   5
BRANCH   4  15
HETATM   15  C   UNL     1      41.435 -12.922   5.855  1.00  0.00     0.014 A 
HETATM   16  S   UNL     1      41.530 -11.348   6.561  1.00  0.00    -0.104 SA
HETATM   17  C   UNL     1      39.853 -11.304   6.880  1.00  0.00     0.050 A 
HETATM   18  C   UNL     1      39.224 -12.462   6.491  1.00  0.00     0.008 A 
HETATM   19  C   UNL     1      40.134 -13.397   5.917  1.00  0.00     0.017 A 
ENDBRANCH   4  15
ENDBRANCH   2   4
BRANCH   2  20
HETATM   20  C   UNL     1      44.390 -14.995   6.540  1.00  0.00     0.165 C 
BRANCH  20  21
HETATM   21  C   UNL     1      44.890 -13.800   7.318  1.00  0.00    -0.037 A 
HETATM   22  C   UNL     1      44.134 -13.280   8.380  1.00  0.00     0.048 A 
HETATM   23  C   UNL     1      44.662 -12.227   9.097  1.00  0.00     0.105 A 
HETATM   24  C   UNL     1      45.885 -11.679   8.789  1.00  0.00     0.105 A 
HETATM   25  O   UNL     1      44.080 -11.625  10.169  1.00  0.00    -0.323 OA
HETATM   26  O   UNL     1      46.225 -10.663   9.624  1.00  0.00    -0.323 OA
HETATM   27  C   UNL     1      46.650 -12.151   7.744  1.00  0.00     0.040 A 
HETATM   28  C   UNL     1      45.088 -10.651  10.512  1.00  0.00     0.352 A 
HETATM   29  C   UNL     1      46.146 -13.225   7.006  1.00  0.00     0.012 A 
ENDBRANCH  20  21
ENDBRANCH   2  20
BRANCH   1  30
HETATM   30  C   UNL     1      42.508 -17.289   6.343  1.00  0.00     0.144 C 
BRANCH  30  31
HETATM   31  C   UNL     1      43.335 -18.357   5.692  1.00  0.00    -0.021 A 
HETATM   32  C   UNL     1      43.341 -18.833   4.336  1.00  0.00    -0.001 A 
HETATM   33  C   UNL     1      42.611 -18.526   3.167  1.00  0.00     0.014 A 
HETATM   34  C   UNL     1      44.346 -19.800   4.239  1.00  0.00     0.042 A 
HETATM   35  C   UNL     1      42.930 -19.161   1.960  1.00  0.00     0.001 A 
HETATM   36  C   UNL     1      43.946 -20.107   1.900  1.00  0.00     0.002 A 
HETATM   37  C   UNL     1      44.669 -20.452   3.044  1.00  0.00     0.030 A 
HETATM   38  N   UNL     1      44.896 -19.945   5.489  1.00  0.00    -0.365 N 
HETATM   39  H   UNL     1      45.641 -20.591   5.715  1.00  0.00     0.165 HD
HETATM   40  C   UNL     1      44.302 -19.085   6.367  1.00  0.00     0.097 A 
ENDBRANCH  30  31
ENDBRANCH   1  30
TORSDOF 8
ENDMDL
MODEL 2
REMARK VINA RESULT:      -9.6      3.611      6.988
REMARK  8 active torsions:
REMARK  status: ('A' for Active; 'I' for Inactive)
REMARK    1  A    between atoms: C_8  and  C_9 
REMARK    2  A    between atoms: C_9  and  C_10 
REMARK       I    between atoms: C_10  and  N_11 
REMARK    3  A    between atoms: N_11  and  C_12 
REMARK    4  A    between atoms: N_11  and  C_27 
REMARK    5  A    between atoms: C_12  and  C_13 
REMARK    6  A    between atoms: C_12  and  C_22 
REMARK       I    between atoms: C_13  and  N_14 
REMARK    7  A    between atoms: N_14  and  C_15 
REMARK    8  A    between atoms: C_27  and  C_28 
ROOT
HETATM    1  C   UNL     1      39.843 -13.702   2.959  1.00  0.00     0.225 C 
HETATM    2  N   UNL     1      40.359 -14.163   1.742  1.00  0.00    -0.330 N 
HETATM    3  O   UNL     1      39.441 -12.542   3.098  1.00  0.00    -0.273 OA
ENDROOT
BRANCH   2   4
HETATM    4  C   UNL     1      40.418 -13.196   0.622  1.00  0.00     0.219 C 
BRANCH   4   5
HETATM    5  C   UNL     1      41.631 -12.233   0.756  1.00  0.00     0.246 C 
HETATM    6  N   UNL     1      41.632 -11.114  -0.055  1.00  0.00    -0.354 N 
HETATM    7  H   UNL     1      41.103 -11.251  -0.914  1.00  0.00     0.162 HD
HETATM    8  O   UNL     1      42.581 -12.522   1.488  1.00  0.00    -0.271 OA
BRANCH   6   9
HETATM    9  C   UNL     1      42.778 -10.214  -0.153  1.00  0.00     0.084 C 
HETATM   10  C   UNL     1      43.558 -10.493  -1.449  1.00  0.00     0.025 C 
HETATM   11  C   UNL     1      42.811 -10.025  -2.700  1.00  0.00     0.002 C 
HETATM   12  C   UNL     1      42.424  -8.552  -2.606  1.00  0.00     0.000 C 
HETATM   13  C   UNL     1      41.635  -8.260  -1.335  1.00  0.00     0.002 C 
HETATM   14  C   UNL     1      42.387  -8.726  -0.090  1.00  0.00     0.025 C 
ENDBRANCH   6   9
ENDBRANCH   4   5
BRANCH   4  15
HETATM   15  C   UNL     1      40.253 -13.845  -0.747  1.00  0.00     0.014 A 
HETATM   16  S   UNL     1      38.700 -13.797  -1.503  1.00  0.00    -0.104 SA
HETATM   17  C   UNL     1      39.252 -14.659  -2.870  1.00  0.00     0.050 A 
HETATM   18  C   UNL     1      40.576 -15.007  -2.760  1.00  0.00     0.008 A 
HETATM   19  C   UNL     1      41.146 -14.554  -1.535  1.00  0.00     0.017 A 
ENDBRANCH   4  15
ENDBRANCH   2   4
BRANCH   2  20
HETATM   20  C   UNL     1      40.240 -15.579   1.377  1.00  0.00     0.165 C 
BRANCH  20  21
HETATM   21  C   UNL     1      41.458 -16.418   1.685  1.00  0.00    -0.037 A 
HETATM   22  C   UNL     1      41.364 -17.818   1.710  1.00  0.00     0.048 A 
HETATM   23  C   UNL     1      42.517 -18.541   1.937  1.00  0.00     0.105 A 
HETATM   24  C   UNL     1      43.729 -17.927   2.147  1.00  0.00     0.105 A 
HETATM   25  O   UNL     1      42.611 -19.897   1.965  1.00  0.00    -0.323 OA
HETATM   26  O   UNL     1      44.737 -18.819   2.337  1.00  0.00    -0.323 OA
HETATM   27  C   UNL     1      43.859 -16.555   2.146  1.00  0.00     0.040 A 
HETATM   28  C   UNL     1      44.025 -20.066   2.194  1.00  0.00     0.352 A 
HETATM   29  C   UNL     1      42.710 -15.796   1.908  1.00  0.00     0.012 A 
ENDBRANCH  20  21
ENDBRANCH   2  20
BRANCH   1  30
HETATM   30  C   UNL     1      39.907 -14.618   4.172  1.00  0.00     0.144 C 
BRANCH  30  31
HETATM   31  C   UNL     1      41.161 -14.594   4.994  1.00  0.00    -0.021 A 
HETATM   32  C   UNL     1      41.997 -15.671   5.447  1.00  0.00    -0.001 A 
HETATM   33  C   UNL     1      41.965 -17.078   5.329  1.00  0.00     0.014 A 
HETATM   34  C   UNL     1      43.077 -15.101   6.128  1.00  0.00     0.042 A 
HETATM   35  C   UNL     1      43.011 -17.846   5.857  1.00  0.00     0.001 A 
HETATM   36  C   UNL     1      44.075 -17.241   6.517  1.00  0.00     0.002 A 
HETATM   37  C   UNL     1      44.123 -15.855   6.673  1.00  0.00     0.030 A 
HETATM   38  N   UNL     1      42.884 -13.742   6.136  1.00  0.00    -0.365 N 
HETATM   39  H   UNL     1      43.508 -13.078   6.574  1.00  0.00     0.165 HD
HETATM   40  C   UNL     1      41.743 -13.425   5.457  1.00  0.00     0.097 A 
ENDBRANCH  30  31
ENDBRANCH   1  30
TORSDOF 8
ENDMDL
MODEL 3
REMARK VINA RESULT:      -9.3      3.067      6.574
REMARK  8 active torsions:
REMARK  status: ('A' for Active; 'I' for Inactive)
REMARK    1  A    between atoms: C_8  and  C_9 
REMARK    2  A    between atoms: C_9  and  C_10 
REMARK       I    between atoms: C_10  and  N_11 
REMARK    3  A    between atoms: N_11  and  C_12 
REMARK    4  A    between atoms: N_11  and  C_27 
REMARK    5  A    between atoms: C_12  and  C_13 
REMARK    6  A    between atoms: C_12  and  C_22 
REMARK       I    between atoms: C_13  and  N_14 
REMARK    7  A    between atoms: N_14  and  C_15 
REMARK    8  A    between atoms: C_27  and  C_28 
ROOT
HETATM    1  C   UNL     1      42.911 -14.124   3.261  1.00  0.00     0.225 C 
HETATM    2  N   UNL     1      41.677 -13.531   2.970  1.00  0.00    -0.330 N 
HETATM    3  O   UNL     1      43.786 -13.526   3.897  1.00  0.00    -0.273 OA
ENDROOT
BRANCH   2   4
HETATM    4  C   UNL     1      41.463 -12.144   3.443  1.00  0.00     0.219 C 
BRANCH   4   5
HETATM    5  C   UNL     1      40.874 -11.239   2.325  1.00  0.00     0.246 C 
HETATM    6  N   UNL     1      41.719 -10.902   1.285  1.00  0.00    -0.354 N 
HETATM    7  H   UNL     1      42.699 -10.910   1.557  1.00  0.00     0.162 HD
HETATM    8  O   UNL     1      39.734 -10.776   2.430  1.00  0.00    -0.271 OA
BRANCH   6   9
HETATM    9  C   UNL     1      41.353  -9.931   0.256  1.00  0.00     0.084 C 
HETATM   10  C   UNL     1      42.573  -9.069  -0.112  1.00  0.00     0.025 C 
HETATM   11  C   UNL     1      43.623  -9.843  -0.912  1.00  0.00     0.002 C 
HETATM   12  C   UNL     1      43.020 -10.489  -2.155  1.00  0.00     0.000 C 
HETATM   13  C   UNL     1      41.818 -11.361  -1.808  1.00  0.00     0.002 C 
HETATM   14  C   UNL     1      40.773 -10.582  -1.013  1.00  0.00     0.025 C 
ENDBRANCH   6   9
ENDBRANCH   4   5
BRANCH   4  15
HETATM   15  C   UNL     1      40.746 -12.067   4.786  1.00  0.00     0.014 A 
HETATM   16  S   UNL     1      41.169 -10.795   5.877  1.00  0.00    -0.104 SA
HETATM   17  C   UNL     1      40.056 -11.330   7.056  1.00  0.00     0.050 A 
HETATM   18  C   UNL     1      39.389 -12.463   6.658  1.00  0.00     0.008 A 
HETATM   19  C   UNL     1      39.796 -12.895   5.363  1.00  0.00     0.017 A 
ENDBRANCH   4  15
ENDBRANCH   2   4
BRANCH   2  20
HETATM   20  C   UNL     1      40.477 -14.360   2.814  1.00  0.00     0.165 C 
BRANCH  20  21
HETATM   21  C   UNL     1      39.759 -14.196   1.494  1.00  0.00    -0.037 A 
HETATM   22  C   UNL     1      40.452 -14.370   0.286  1.00  0.00     0.048 A 
HETATM   23  C   UNL     1      39.739 -14.268  -0.890  1.00  0.00     0.105 A 
HETATM   24  C   UNL     1      38.392 -13.991  -0.901  1.00  0.00     0.105 A 
HETATM   25  O   UNL     1      40.243 -14.436  -2.142  1.00  0.00    -0.323 OA
HETATM   26  O   UNL     1      37.880 -13.947  -2.160  1.00  0.00    -0.323 OA
HETATM   27  C   UNL     1      37.680 -13.798   0.263  1.00  0.00     0.040 A 
HETATM   28  C   UNL     1      39.054 -14.256  -2.939  1.00  0.00     0.352 A 
HETATM   29  C   UNL     1      38.374 -13.906   1.471  1.00  0.00     0.012 A 
ENDBRANCH  20  21
ENDBRANCH   2  20
BRANCH   1  30
HETATM   30  C   UNL     1      43.225 -15.487   2.662  1.00  0.00     0.144 C 
BRANCH  30  31
HETATM   31  C   UNL     1      43.456 -16.625   3.610  1.00  0.00    -0.021 A 
HETATM   32  C   UNL     1      43.809 -17.994   3.352  1.00  0.00    -0.001 A 
HETATM   33  C   UNL     1      44.041 -18.763   2.191  1.00  0.00     0.014 A 
HETATM   34  C   UNL     1      43.962 -18.624   4.591  1.00  0.00     0.042 A 
HETATM   35  C   UNL     1      44.442 -20.100   2.310  1.00  0.00     0.001 A 
HETATM   36  C   UNL     1      44.597 -20.688   3.560  1.00  0.00     0.002 A 
HETATM   37  C   UNL     1      44.350 -19.962   4.726  1.00  0.00     0.030 A 
HETATM   38  N   UNL     1      43.667 -17.698   5.560  1.00  0.00    -0.365 N 
HETATM   39  H   UNL     1      43.684 -17.884   6.554  1.00  0.00     0.165 HD
HETATM   40  C   UNL     1      43.366 -16.496   4.987  1.00  0.00     0.097 A 
ENDBRANCH  30  31
ENDBRANCH   1  30
TORSDOF 8
ENDMDL
MODEL 4
REMARK VINA RESULT:      -9.1      3.400      7.639
REMARK  8 active torsions:
REMARK  status: ('A' for Active; 'I' for Inactive)
REMARK    1  A    between atoms: C_8  and  C_9 
REMARK    2  A    between atoms: C_9  and  C_10 
REMARK       I    between atoms: C_10  and  N_11 
REMARK    3  A    between atoms: N_11  and  C_12 
REMARK    4  A    between atoms: N_11  and  C_27 
REMARK    5  A    between atoms: C_12  and  C_13 
REMARK    6  A    between atoms: C_12  and  C_22 
REMARK       I    between atoms: C_13  and  N_14 
REMARK    7  A    between atoms: N_14  and  C_15 
REMARK    8  A    between atoms: C_27  and  C_28 
ROOT
HETATM    1  C   UNL     1      39.536 -14.530   1.545  1.00  0.00     0.225 C 
HETATM    2  N   UNL     1      40.189 -13.532   2.278  1.00  0.00    -0.330 N 
HETATM    3  O   UNL     1      39.514 -15.706   1.923  1.00  0.00    -0.273 OA
ENDROOT
BRANCH   2   4
HETATM    4  C   UNL     1      40.869 -13.944   3.527  1.00  0.00     0.219 C 
BRANCH   4   5
HETATM    5  C   UNL     1      42.298 -14.492   3.251  1.00  0.00     0.246 C 
HETATM    6  N   UNL     1      42.439 -15.865   3.192  1.00  0.00    -0.354 N 
HETATM    7  H   UNL     1      41.734 -16.357   3.737  1.00  0.00     0.162 HD
HETATM    8  O   UNL     1      43.261 -13.723   3.186  1.00  0.00    -0.271 OA
BRANCH   6   9
HETATM    9  C   UNL     1      43.742 -16.520   3.103  1.00  0.00     0.084 C 
HETATM   10  C   UNL     1      43.806 -17.703   4.084  1.00  0.00     0.025 C 
HETATM   11  C   UNL     1      42.942 -18.885   3.640  1.00  0.00     0.002 C 
HETATM   12  C   UNL     1      43.289 -19.335   2.224  1.00  0.00     0.000 C 
HETATM   13  C   UNL     1      43.215 -18.178   1.234  1.00  0.00     0.002 C 
HETATM   14  C   UNL     1      44.082 -17.003   1.681  1.00  0.00     0.025 C 
ENDBRANCH   6   9
ENDBRANCH   4   5
BRANCH   4  15
HETATM   15  C   UNL     1      40.776 -12.906   4.639  1.00  0.00     0.014 A 
HETATM   16  S   UNL     1      39.529 -13.073   5.824  1.00  0.00    -0.104 SA
HETATM   17  C   UNL     1      40.017 -11.660   6.650  1.00  0.00     0.050 A 
HETATM   18  C   UNL     1      41.083 -11.047   6.037  1.00  0.00     0.008 A 
HETATM   19  C   UNL     1      41.509 -11.753   4.875  1.00  0.00     0.017 A 
ENDBRANCH   4  15
ENDBRANCH   2   4
BRANCH   2  20
HETATM   20  C   UNL     1      39.719 -12.144   2.218  1.00  0.00     0.165 C 
BRANCH  20  21
HETATM   21  C   UNL     1      40.464 -11.264   1.241  1.00  0.00    -0.037 A 
HETATM   22  C   UNL     1      41.757 -11.611   0.820  1.00  0.00     0.048 A 
HETATM   23  C   UNL     1      42.370 -10.806  -0.117  1.00  0.00     0.105 A 
HETATM   24  C   UNL     1      41.757  -9.687  -0.627  1.00  0.00     0.105 A 
HETATM   25  O   UNL     1      43.604 -11.011  -0.654  1.00  0.00    -0.323 OA
HETATM   26  O   UNL     1      42.526  -9.044  -1.546  1.00  0.00    -0.323 OA
HETATM   27  C   UNL     1      40.494  -9.304  -0.227  1.00  0.00     0.040 A 
HETATM   28  C   UNL     1      43.684  -9.904  -1.576  1.00  0.00     0.352 A 
HETATM   29  C   UNL     1      39.843 -10.106   0.714  1.00  0.00     0.012 A 
ENDBRANCH  20  21
ENDBRANCH   2  20
BRANCH   1  30
HETATM   30  C   UNL     1      38.958 -14.175   0.183  1.00  0.00     0.144 C 
BRANCH  30  31
HETATM   31  C   UNL     1      39.922 -13.968  -0.947  1.00  0.00    -0.021 A 
HETATM   32  C   UNL     1      39.934 -12.979  -1.990  1.00  0.00    -0.001 A 
HETATM   33  C   UNL     1      39.098 -11.902  -2.354  1.00  0.00     0.014 A 
HETATM   34  C   UNL     1      41.086 -13.194  -2.752  1.00  0.00     0.042 A 
HETATM   35  C   UNL     1      39.455 -11.075  -3.427  1.00  0.00     0.001 A 
HETATM   36  C   UNL     1      40.615 -11.312  -4.154  1.00  0.00     0.002 A 
HETATM   37  C   UNL     1      41.450 -12.385  -3.834  1.00  0.00     0.030 A 
HETATM   38  N   UNL     1      41.722 -14.294  -2.231  1.00  0.00    -0.365 N 
HETATM   39  H   UNL     1      42.580 -14.686  -2.597  1.00  0.00     0.165 HD
HETATM   40  C   UNL     1      41.037 -14.764  -1.149  1.00  0.00     0.097 A 
ENDBRANCH  30  31
ENDBRANCH   1  30
TORSDOF 8
ENDMDL
MODEL 5
REMARK VINA RESULT:      -9.0      3.268      5.637
REMARK  8 active torsions:
REMARK  status: ('A' for Active; 'I' for Inactive)
REMARK    1  A    between atoms: C_8  and  C_9 
REMARK    2  A    between atoms: C_9  and  C_10 
REMARK       I    between atoms: C_10  and  N_11 
REMARK    3  A    between atoms: N_11  and  C_12 
REMARK    4  A    between atoms: N_11  and  C_27 
REMARK    5  A    between atoms: C_12  and  C_13 
REMARK    6  A    between atoms: C_12  and  C_22 
REMARK       I    between atoms: C_13  and  N_14 
REMARK    7  A    between atoms: N_14  and  C_15 
REMARK    8  A    between atoms: C_27  and  C_28 
ROOT
HETATM    1  C   UNL     1      42.753 -16.208   1.469  1.00  0.00     0.225 C 
HETATM    2  N   UNL     1      41.818 -15.167   1.512  1.00  0.00    -0.330 N 
HETATM    3  O   UNL     1      42.706 -17.090   0.605  1.00  0.00    -0.273 OA
ENDROOT
BRANCH   2   4
HETATM    4  C   UNL     1      40.753 -15.170   0.483  1.00  0.00     0.219 C 
BRANCH   4   5
HETATM    5  C   UNL     1      39.397 -14.672   1.057  1.00  0.00     0.246 C 
HETATM    6  N   UNL     1      39.018 -13.382   0.734  1.00  0.00    -0.354 N 
HETATM    7  H   UNL     1      39.813 -12.777   0.538  1.00  0.00     0.162 HD
HETATM    8  O   UNL     1      38.751 -15.376   1.838  1.00  0.00    -0.271 OA
BRANCH   6   9
HETATM    9  C   UNL     1      37.856 -12.729   1.332  1.00  0.00     0.084 C 
HETATM   10  C   UNL     1      38.312 -11.704   2.385  1.00  0.00     0.025 C 
HETATM   11  C   UNL     1      38.955 -10.464   1.760  1.00  0.00     0.002 C 
HETATM   12  C   UNL     1      38.040  -9.813   0.729  1.00  0.00     0.000 C 
HETATM   13  C   UNL     1      37.591 -10.812  -0.333  1.00  0.00     0.002 C 
HETATM   14  C   UNL     1      36.946 -12.044   0.297  1.00  0.00     0.025 C 
ENDBRANCH   6   9
ENDBRANCH   4   5
BRANCH   4  15
HETATM   15  C   UNL     1      41.178 -14.525  -0.830  1.00  0.00     0.014 A 
HETATM   16  S   UNL     1      40.736 -15.297  -2.312  1.00  0.00    -0.104 SA
HETATM   17  C   UNL     1      41.506 -14.101  -3.256  1.00  0.00     0.050 A 
HETATM   18  C   UNL     1      42.114 -13.144  -2.480  1.00  0.00     0.008 A 
HETATM   19  C   UNL     1      41.939 -13.396  -1.088  1.00  0.00     0.017 A 
ENDBRANCH   4  15
ENDBRANCH   2   4
BRANCH   2  20
HETATM   20  C   UNL     1      42.193 -13.859   2.060  1.00  0.00     0.165 C 
BRANCH  20  21
HETATM   21  C   UNL     1      41.565 -13.526   3.393  1.00  0.00    -0.037 A 
HETATM   22  C   UNL     1      41.585 -12.207   3.874  1.00  0.00     0.048 A 
HETATM   23  C   UNL     1      40.947 -11.944   5.068  1.00  0.00     0.105 A 
HETATM   24  C   UNL     1      40.315 -12.931   5.788  1.00  0.00     0.105 A 
HETATM   25  O   UNL     1      40.845 -10.724   5.662  1.00  0.00    -0.323 OA
HETATM   26  O   UNL     1      39.739 -12.458   6.924  1.00  0.00    -0.323 OA
HETATM   27  C   UNL     1      40.288 -14.239   5.356  1.00  0.00     0.040 A 
HETATM   28  C   UNL     1      40.057 -11.054   6.825  1.00  0.00     0.352 A 
HETATM   29  C   UNL     1      40.917 -14.535   4.144  1.00  0.00     0.012 A 
ENDBRANCH  20  21
ENDBRANCH   2  20
BRANCH   1  30
HETATM   30  C   UNL     1      43.768 -16.323   2.597  1.00  0.00     0.144 C 
BRANCH  30  31
HETATM   31  C   UNL     1      43.376 -17.120   3.804  1.00  0.00    -0.021 A 
HETATM   32  C   UNL     1      43.496 -16.811   5.203  1.00  0.00    -0.001 A 
HETATM   33  C   UNL     1      44.012 -15.726   5.945  1.00  0.00     0.014 A 
HETATM   34  C   UNL     1      42.922 -17.869   5.913  1.00  0.00     0.042 A 
HETATM   35  C   UNL     1      43.907 -15.724   7.341  1.00  0.00     0.001 A 
HETATM   36  C   UNL     1      43.318 -16.789   8.012  1.00  0.00     0.002 A 
HETATM   37  C   UNL     1      42.820 -17.888   7.309  1.00  0.00     0.030 A 
HETATM   38  N   UNL     1      42.515 -18.805   4.996  1.00  0.00    -0.365 N 
HETATM   39  H   UNL     1      42.075 -19.684   5.232  1.00  0.00     0.165 HD
HETATM   40  C   UNL     1      42.777 -18.368   3.730  1.00  0.00     0.097 A 
ENDBRANCH  30  31
ENDBRANCH   1  30
TORSDOF 8
ENDMDL
MODEL 6
REMARK VINA RESULT:      -8.9      3.786      8.393
REMARK  8 active torsions:
REMARK  status: ('A' for Active; 'I' for Inactive)
REMARK    1  A    between atoms: C_8  and  C_9 
REMARK    2  A    between atoms: C_9  and  C_10 
REMARK       I    between atoms: C_10  and  N_11 
REMARK    3  A    between atoms: N_11  and  C_12 
REMARK    4  A    between atoms: N_11  and  C_27 
REMARK    5  A    between atoms: C_12  and  C_13 
REMARK    6  A    between atoms: C_12  and  C_22 
REMARK       I    between atoms: C_13  and  N_14 
REMARK    7  A    between atoms: N_14  and  C_15 
REMARK    8  A    between atoms: C_27  and  C_28 
ROOT
HETATM    1  C   UNL     1      40.940 -15.196   0.743  1.00  0.00     0.225 C 
HETATM    2  N   UNL     1      41.522 -14.178  -0.021  1.00  0.00    -0.330 N 
HETATM    3  O   UNL     1      40.237 -14.950   1.728  1.00  0.00    -0.273 OA
ENDROOT
BRANCH   2   4
HETATM    4  C   UNL     1      41.274 -12.783   0.409  1.00  0.00     0.219 C 
BRANCH   4   5
HETATM    5  C   UNL     1      41.742 -12.539   1.871  1.00  0.00     0.246 C 
HETATM    6  N   UNL     1      40.820 -11.984   2.738  1.00  0.00    -0.354 N 
HETATM    7  H   UNL     1      40.121 -11.418   2.260  1.00  0.00     0.162 HD
HETATM    8  O   UNL     1      42.914 -12.749   2.196  1.00  0.00    -0.271 OA
BRANCH   6   9
HETATM    9  C   UNL     1      41.169 -11.551   4.089  1.00  0.00     0.084 C 
HETATM   10  C   UNL     1      40.008 -10.749   4.702  1.00  0.00     0.025 C 
HETATM   11  C   UNL     1      38.810 -11.629   5.063  1.00  0.00     0.002 C 
HETATM   12  C   UNL     1      39.213 -12.784   5.975  1.00  0.00     0.000 C 
HETATM   13  C   UNL     1      40.352 -13.600   5.375  1.00  0.00     0.002 C 
HETATM   14  C   UNL     1      41.547 -12.717   5.020  1.00  0.00     0.025 C 
ENDBRANCH   6   9
ENDBRANCH   4   5
BRANCH   4  15
HETATM   15  C   UNL     1      41.741 -11.744  -0.604  1.00  0.00     0.014 A 
HETATM   16  S   UNL     1      40.587 -10.618  -1.227  1.00  0.00    -0.104 SA
HETATM   17  C   UNL     1      41.749  -9.858  -2.220  1.00  0.00     0.050 A 
HETATM   18  C   UNL     1      42.985 -10.450  -2.115  1.00  0.00     0.008 A 
HETATM   19  C   UNL     1      42.977 -11.542  -1.199  1.00  0.00     0.017 A 
ENDBRANCH   4  15
ENDBRANCH   2   4
BRANCH   2  20
HETATM   20  C   UNL     1      41.787 -14.383  -1.449  1.00  0.00     0.165 C 
BRANCH  20  21
HETATM   21  C   UNL     1      40.568 -14.706  -2.280  1.00  0.00    -0.037 A 
HETATM   22  C   UNL     1      39.480 -13.818  -2.315  1.00  0.00     0.048 A 
HETATM   23  C   UNL     1      38.416 -14.130  -3.135  1.00  0.00     0.105 A 
HETATM   24  C   UNL     1      38.395 -15.276  -3.894  1.00  0.00     0.105 A 
HETATM   25  O   UNL     1      37.301 -13.371  -3.311  1.00  0.00    -0.323 OA
HETATM   26  O   UNL     1      37.264 -15.385  -4.640  1.00  0.00    -0.323 OA
HETATM   27  C   UNL     1      39.436 -16.179  -3.875  1.00  0.00     0.040 A 
HETATM   28  C   UNL     1      36.587 -14.161  -4.285  1.00  0.00     0.352 A 
HETATM   29  C   UNL     1      40.533 -15.886  -3.062  1.00  0.00     0.012 A 
ENDBRANCH  20  21
ENDBRANCH   2  20
BRANCH   1  30
HETATM   30  C   UNL     1      41.296 -16.641   0.424  1.00  0.00     0.144 C 
BRANCH  30  31
HETATM   31  C   UNL     1      42.303 -17.318   1.305  1.00  0.00    -0.021 A 
HETATM   32  C   UNL     1      42.264 -17.604   2.712  1.00  0.00    -0.001 A 
HETATM   33  C   UNL     1      41.344 -17.362   3.756  1.00  0.00     0.014 A 
HETATM   34  C   UNL     1      43.432 -18.306   3.026  1.00  0.00     0.042 A 
HETATM   35  C   UNL     1      41.605 -17.850   5.043  1.00  0.00     0.001 A 
HETATM   36  C   UNL     1      42.772 -18.556   5.313  1.00  0.00     0.002 A 
HETATM   37  C   UNL     1      43.714 -18.790   4.309  1.00  0.00     0.030 A 
HETATM   38  N   UNL     1      44.174 -18.401   1.875  1.00  0.00    -0.365 N 
HETATM   39  H   UNL     1      45.078 -18.850   1.812  1.00  0.00     0.165 HD
HETATM   40  C   UNL     1      43.508 -17.816   0.837  1.00  0.00     0.097 A 
ENDBRANCH  30  31
ENDBRANCH   1  30
TORSDOF 8
ENDMDL
MODEL 7
REMARK VINA RESULT:      -8.9      3.918      7.103
REMARK  8 active torsions:
REMARK  status: ('A' for Active; 'I' for Inactive)
REMARK    1  A    between atoms: C_8  and  C_9 
REMARK    2  A    between atoms: C_9  and  C_10 
REMARK       I    between atoms: C_10  and  N_11 
REMARK    3  A    between atoms: N_11  and  C_12 
REMARK    4  A    between atoms: N_11  and  C_27 
REMARK    5  A    between atoms: C_12  and  C_13 
REMARK    6  A    between atoms: C_12  and  C_22 
REMARK       I    between atoms: C_13  and  N_14 
REMARK    7  A    between atoms: N_14  and  C_15 
REMARK    8  A    between atoms: C_27  and  C_28 
ROOT
HETATM    1  C   UNL     1      40.972 -15.837   0.947  1.00  0.00     0.225 C 
HETATM    2  N   UNL     1      40.564 -14.833   0.062  1.00  0.00    -0.330 N 
HETATM    3  O   UNL     1      40.210 -16.298   1.804  1.00  0.00    -0.273 OA
ENDROOT
BRANCH   2   4
HETATM    4  C   UNL     1      39.179 -14.329   0.201  1.00  0.00     0.219 C 
BRANCH   4   5
HETATM    5  C   UNL     1      39.042 -13.345   1.396  1.00  0.00     0.246 C 
HETATM    6  N   UNL     1      40.149 -13.191   2.209  1.00  0.00    -0.354 N 
HETATM    7  H   UNL     1      40.753 -14.010   2.209  1.00  0.00     0.162 HD
HETATM    8  O   UNL     1      37.958 -12.810   1.646  1.00  0.00    -0.271 OA
BRANCH   6   9
HETATM    9  C   UNL     1      40.112 -12.429   3.455  1.00  0.00     0.084 C 
HETATM   10  C   UNL     1      39.577 -13.312   4.596  1.00  0.00     0.025 C 
HETATM   11  C   UNL     1      40.578 -14.384   5.031  1.00  0.00     0.002 C 
HETATM   12  C   UNL     1      41.928 -13.778   5.401  1.00  0.00     0.000 C 
HETATM   13  C   UNL     1      42.482 -12.913   4.274  1.00  0.00     0.002 C 
HETATM   14  C   UNL     1      41.480 -11.842   3.848  1.00  0.00     0.025 C 
ENDBRANCH   6   9
ENDBRANCH   4   5
BRANCH   4  15
HETATM   15  C   UNL     1      38.577 -13.842  -1.112  1.00  0.00     0.014 A 
HETATM   16  S   UNL     1      38.405 -12.141  -1.364  1.00  0.00    -0.104 SA
HETATM   17  C   UNL     1      37.711 -12.360  -2.908  1.00  0.00     0.050 A 
HETATM   18  C   UNL     1      37.580 -13.689  -3.231  1.00  0.00     0.008 A 
HETATM   19  C   UNL     1      38.063 -14.540  -2.194  1.00  0.00     0.017 A 
ENDBRANCH   4  15
ENDBRANCH   2   4
BRANCH   2  20
HETATM   20  C   UNL     1      41.163 -14.737  -1.274  1.00  0.00     0.165 C 
BRANCH  20  21
HETATM   21  C   UNL     1      41.718 -13.376  -1.624  1.00  0.00    -0.037 A 
HETATM   22  C   UNL     1      42.232 -12.541  -0.619  1.00  0.00     0.048 A 
HETATM   23  C   UNL     1      42.781 -11.334  -0.999  1.00  0.00     0.105 A 
HETATM   24  C   UNL     1      42.821 -10.935  -2.314  1.00  0.00     0.105 A 
HETATM   25  O   UNL     1      43.347 -10.423  -0.163  1.00  0.00    -0.323 OA
HETATM   26  O   UNL     1      43.414  -9.722  -2.471  1.00  0.00    -0.323 OA
HETATM   27  C   UNL     1      42.312 -11.719  -3.326  1.00  0.00     0.040 A 
HETATM   28  C   UNL     1      43.768  -9.416  -1.107  1.00  0.00     0.352 A 
HETATM   29  C   UNL     1      41.759 -12.953  -2.975  1.00  0.00     0.012 A 
ENDBRANCH  20  21
ENDBRANCH   2  20
BRANCH   1  30
HETATM   30  C   UNL     1      42.430 -16.272   0.936  1.00  0.00     0.144 C 
BRANCH  30  31
HETATM   31  C   UNL     1      42.959 -16.959   2.159  1.00  0.00    -0.021 A 
HETATM   32  C   UNL     1      43.341 -18.329   2.364  1.00  0.00    -0.001 A 
HETATM   33  C   UNL     1      43.351 -19.494   1.566  1.00  0.00     0.014 A 
HETATM   34  C   UNL     1      43.825 -18.434   3.672  1.00  0.00     0.042 A 
HETATM   35  C   UNL     1      43.865 -20.689   2.083  1.00  0.00     0.001 A 
HETATM   36  C   UNL     1      44.350 -20.751   3.384  1.00  0.00     0.002 A 
HETATM   37  C   UNL     1      44.331 -19.624   4.208  1.00  0.00     0.030 A 
HETATM   38  N   UNL     1      43.698 -17.198   4.255  1.00  0.00    -0.365 N 
HETATM   39  H   UNL     1      43.961 -16.986   5.209  1.00  0.00     0.165 HD
HETATM   40  C   UNL     1      43.184 -16.306   3.360  1.00  0.00     0.097 A 
ENDBRANCH  30  31
ENDBRANCH   1  30
TORSDOF 8
ENDMDL
MODEL 8
REMARK VINA RESULT:      -8.7      3.640      7.561
REMARK  8 active torsions:
REMARK  status: ('A' for Active; 'I' for Inactive)
REMARK    1  A    between atoms: C_8  and  C_9 
REMARK    2  A    between atoms: C_9  and  C_10 
REMARK       I    between atoms: C_10  and  N_11 
REMARK    3  A    between atoms: N_11  and  C_12 
REMARK    4  A    between atoms: N_11  and  C_27 
REMARK    5  A    between atoms: C_12  and  C_13 
REMARK    6  A    between atoms: C_12  and  C_22 
REMARK       I    between atoms: C_13  and  N_14 
REMARK    7  A    between atoms: N_14  and  C_15 
REMARK    8  A    between atoms: C_27  and  C_28 
ROOT
HETATM    1  C   UNL     1      42.297 -12.796   2.828  1.00  0.00     0.225 C 
HETATM    2  N   UNL     1      41.604 -12.333   1.704  1.00  0.00    -0.330 N 
HETATM    3  O   UNL     1      43.344 -13.445   2.725  1.00  0.00    -0.273 OA
ENDROOT
BRANCH   2   4
HETATM    4  C   UNL     1      42.169 -12.664   0.375  1.00  0.00     0.219 C 
BRANCH   4   5
HETATM    5  C   UNL     1      41.834 -14.123  -0.045  1.00  0.00     0.246 C 
HETATM    6  N   UNL     1      41.976 -15.100   0.923  1.00  0.00    -0.354 N 
HETATM    7  H   UNL     1      42.662 -14.853   1.633  1.00  0.00     0.162 HD
HETATM    8  O   UNL     1      41.548 -14.387  -1.216  1.00  0.00    -0.271 OA
BRANCH   6   9
HETATM    9  C   UNL     1      41.855 -16.525   0.627  1.00  0.00     0.084 C 
HETATM   10  C   UNL     1      43.206 -17.226   0.848  1.00  0.00     0.025 C 
HETATM   11  C   UNL     1      43.574 -17.346   2.328  1.00  0.00     0.002 C 
HETATM   12  C   UNL     1      42.470 -18.030   3.128  1.00  0.00     0.000 C 
HETATM   13  C   UNL     1      41.125 -17.339   2.935  1.00  0.00     0.002 C 
HETATM   14  C   UNL     1      40.763 -17.226   1.455  1.00  0.00     0.025 C 
ENDBRANCH   6   9
ENDBRANCH   4   5
BRANCH   4  15
HETATM   15  C   UNL     1      41.890 -11.604  -0.683  1.00  0.00     0.014 A 
HETATM   16  S   UNL     1      43.011 -10.301  -0.865  1.00  0.00    -0.104 SA
HETATM   17  C   UNL     1      42.097  -9.585  -2.116  1.00  0.00     0.050 A 
HETATM   18  C   UNL     1      40.948 -10.290  -2.384  1.00  0.00     0.008 A 
HETATM   19  C   UNL     1      40.822 -11.440  -1.552  1.00  0.00     0.017 A 
ENDBRANCH   4  15
ENDBRANCH   2   4
BRANCH   2  20
HETATM   20  C   UNL     1      40.799 -11.110   1.784  1.00  0.00     0.165 C 
BRANCH  20  21
HETATM   21  C   UNL     1      39.331 -11.295   1.475  1.00  0.00    -0.037 A 
HETATM   22  C   UNL     1      38.514 -10.179   1.231  1.00  0.00     0.048 A 
HETATM   23  C   UNL     1      37.195 -10.405   0.896  1.00  0.00     0.105 A 
HETATM   24  C   UNL     1      36.673 -11.674   0.811  1.00  0.00     0.105 A 
HETATM   25  O   UNL     1      36.276  -9.446   0.600  1.00  0.00    -0.323 OA
HETATM   26  O   UNL     1      35.362 -11.674   0.455  1.00  0.00    -0.323 OA
HETATM   27  C   UNL     1      37.439 -12.792   1.059  1.00  0.00     0.040 A 
HETATM   28  C   UNL     1      35.124 -10.260   0.298  1.00  0.00     0.352 A 
HETATM   29  C   UNL     1      38.782 -12.597   1.391  1.00  0.00     0.012 A 
ENDBRANCH  20  21
ENDBRANCH   2  20
BRANCH   1  30
HETATM   30  C   UNL     1      41.669 -12.607   4.201  1.00  0.00     0.144 C 
BRANCH  30  31
HETATM   31  C   UNL     1      41.182 -13.832   4.915  1.00  0.00    -0.021 A 
HETATM   32  C   UNL     1      41.915 -14.910   5.519  1.00  0.00    -0.001 A 
HETATM   33  C   UNL     1      43.281 -15.237   5.654  1.00  0.00     0.014 A 
HETATM   34  C   UNL     1      40.981 -15.771   6.105  1.00  0.00     0.042 A 
HETATM   35  C   UNL     1      43.659 -16.371   6.384  1.00  0.00     0.001 A 
HETATM   36  C   UNL     1      42.701 -17.196   6.963  1.00  0.00     0.002 A 
HETATM   37  C   UNL     1      41.341 -16.915   6.827  1.00  0.00     0.030 A 
HETATM   38  N   UNL     1      39.733 -15.269   5.829  1.00  0.00    -0.365 N 
HETATM   39  H   UNL     1      38.866 -15.699   6.121  1.00  0.00     0.165 HD
HETATM   40  C   UNL     1      39.839 -14.108   5.120  1.00  0.00     0.097 A 
ENDBRANCH  30  31
ENDBRANCH   1  30
TORSDOF 8
ENDMDL
MODEL 9
REMARK VINA RESULT:      -8.6      3.462      7.803
REMARK  8 active torsions:
REMARK  status: ('A' for Active; 'I' for Inactive)
REMARK    1  A    between atoms: C_8  and  C_9 
REMARK    2  A    between atoms: C_9  and  C_10 
REMARK       I    between atoms: C_10  and  N_11 
REMARK    3  A    between atoms: N_11  and  C_12 
REMARK    4  A    between atoms: N_11  and  C_27 
REMARK    5  A    between atoms: C_12  and  C_13 
REMARK    6  A    between atoms: C_12  and  C_22 
REMARK       I    between atoms: C_13  and  N_14 
REMARK    7  A    between atoms: N_14  and  C_15 
REMARK    8  A    between atoms: C_27  and  C_28 
ROOT
HETATM    1  C   UNL     1      40.251 -16.256   1.513  1.00  0.00     0.225 C 
HETATM    2  N   UNL     1      40.576 -14.897   1.424  1.00  0.00    -0.330 N 
HETATM    3  O   UNL     1      39.345 -16.662   2.247  1.00  0.00    -0.273 OA
ENDROOT
BRANCH   2   4
HETATM    4  C   UNL     1      39.795 -13.958   2.262  1.00  0.00     0.219 C 
BRANCH   4   5
HETATM    5  C   UNL     1      40.180 -14.070   3.764  1.00  0.00     0.246 C 
HETATM    6  N   UNL     1      40.794 -15.241   4.165  1.00  0.00    -0.354 N 
HETATM    7  H   UNL     1      40.550 -16.035   3.577  1.00  0.00     0.162 HD
HETATM    8  O   UNL     1      39.857 -13.185   4.560  1.00  0.00    -0.271 OA
BRANCH   6   9
HETATM    9  C   UNL     1      41.062 -15.550   5.568  1.00  0.00     0.084 C 
HETATM   10  C   UNL     1      40.852 -17.052   5.826  1.00  0.00     0.025 C 
HETATM   11  C   UNL     1      41.950 -17.917   5.204  1.00  0.00     0.002 C 
HETATM   12  C   UNL     1      43.338 -17.477   5.658  1.00  0.00     0.000 C 
HETATM   13  C   UNL     1      43.571 -15.993   5.395  1.00  0.00     0.002 C 
HETATM   14  C   UNL     1      42.473 -15.136   6.022  1.00  0.00     0.025 C 
ENDBRANCH   6   9
ENDBRANCH   4   5
BRANCH   4  15
HETATM   15  C   UNL     1      39.757 -12.539   1.706  1.00  0.00     0.014 A 
HETATM   16  S   UNL     1      41.198 -11.587   1.769  1.00  0.00    -0.104 SA
HETATM   17  C   UNL     1      40.436 -10.244   1.041  1.00  0.00     0.050 A 
HETATM   18  C   UNL     1      39.110 -10.486   0.774  1.00  0.00     0.008 A 
HETATM   19  C   UNL     1      38.717 -11.797   1.170  1.00  0.00     0.017 A 
ENDBRANCH   4  15
ENDBRANCH   2   4
BRANCH   2  20
HETATM   20  C   UNL     1      41.143 -14.352   0.186  1.00  0.00     0.165 C 
BRANCH  20  21
HETATM   21  C   UNL     1      40.398 -14.731  -1.073  1.00  0.00    -0.037 A 
HETATM   22  C   UNL     1      39.123 -14.202  -1.327  1.00  0.00     0.048 A 
HETATM   23  C   UNL     1      38.511 -14.532  -2.518  1.00  0.00     0.105 A 
HETATM   24  C   UNL     1      39.108 -15.362  -3.436  1.00  0.00     0.105 A 
HETATM   25  O   UNL     1      37.295 -14.088  -2.935  1.00  0.00    -0.323 OA
HETATM   26  O   UNL     1      38.344 -15.548  -4.545  1.00  0.00    -0.323 OA
HETATM   27  C   UNL     1      40.352 -15.914  -3.216  1.00  0.00     0.040 A 
HETATM   28  C   UNL     1      37.208 -14.716  -4.231  1.00  0.00     0.352 A 
HETATM   29  C   UNL     1      41.002 -15.589  -2.023  1.00  0.00     0.012 A 
ENDBRANCH  20  21
ENDBRANCH   2  20
BRANCH   1  30
HETATM   30  C   UNL     1      41.128 -17.265   0.786  1.00  0.00     0.144 C 
BRANCH  30  31
HETATM   31  C   UNL     1      42.409 -17.675   1.449  1.00  0.00    -0.021 A 
HETATM   32  C   UNL     1      42.911 -18.982   1.773  1.00  0.00    -0.001 A 
HETATM   33  C   UNL     1      42.429 -20.301   1.629  1.00  0.00     0.014 A 
HETATM   34  C   UNL     1      44.182 -18.812   2.329  1.00  0.00     0.042 A 
HETATM   35  C   UNL     1      43.233 -21.383   2.009  1.00  0.00     0.001 A 
HETATM   36  C   UNL     1      44.498 -21.175   2.547  1.00  0.00     0.002 A 
HETATM   37  C   UNL     1      44.994 -19.882   2.725  1.00  0.00     0.030 A 
HETATM   38  N   UNL     1      44.426 -17.463   2.390  1.00  0.00    -0.365 N 
HETATM   39  H   UNL     1      45.270 -17.049   2.762  1.00  0.00     0.165 HD
HETATM   40  C   UNL     1      43.374 -16.771   1.862  1.00  0.00     0.097 A 
ENDBRANCH  30  31
ENDBRANCH   1  30
TORSDOF 8
ENDMDL
MODEL 10
REMARK VINA RESULT:      -8.5      3.307      7.103
REMARK  8 active torsions:
REMARK  status: ('A' for Active; 'I' for Inactive)
REMARK    1  A    between atoms: C_8  and  C_9 
REMARK    2  A    between atoms: C_9  and  C_10 
REMARK       I    between atoms: C_10  and  N_11 
REMARK    3  A    between atoms: N_11  and  C_12 
REMARK    4  A    between atoms: N_11  and  C_27 
REMARK    5  A    between atoms: C_12  and  C_13 
REMARK    6  A    between atoms: C_12  and  C_22 
REMARK       I    between atoms: C_13  and  N_14 
REMARK    7  A    between atoms: N_14  and  C_15 
REMARK    8  A    between atoms: C_27  and  C_28 
ROOT
HETATM    1  C   UNL     1      40.988 -16.840   1.723  1.00  0.00     0.225 C 
HETATM    2  N   UNL     1      41.129 -15.522   2.173  1.00  0.00    -0.330 N 
HETATM    3  O   UNL     1      39.942 -17.475   1.888  1.00  0.00    -0.273 OA
ENDROOT
BRANCH   2   4
HETATM    4  C   UNL     1      39.973 -14.917   2.873  1.00  0.00     0.219 C 
BRANCH   4   5
HETATM    5  C   UNL     1      40.274 -14.677   4.380  1.00  0.00     0.246 C 
HETATM    6  N   UNL     1      41.351 -15.357   4.917  1.00  0.00    -0.354 N 
HETATM    7  H   UNL     1      41.554 -16.224   4.425  1.00  0.00     0.162 HD
HETATM    8  O   UNL     1      39.518 -13.984   5.066  1.00  0.00    -0.271 OA
BRANCH   6   9
HETATM    9  C   UNL     1      41.649 -15.354   6.347  1.00  0.00     0.084 C 
HETATM   10  C   UNL     1      41.495 -16.774   6.921  1.00  0.00     0.025 C 
HETATM   11  C   UNL     1      42.613 -17.716   6.470  1.00  0.00     0.002 C 
HETATM   12  C   UNL     1      43.992 -17.148   6.792  1.00  0.00     0.000 C 
HETATM   13  C   UNL     1      44.169 -15.747   6.217  1.00  0.00     0.002 C 
HETATM   14  C   UNL     1      43.052 -14.811   6.673  1.00  0.00     0.025 C 
ENDBRANCH   6   9
ENDBRANCH   4   5
BRANCH   4  15
HETATM   15  C   UNL     1      39.371 -13.728   2.134  1.00  0.00     0.014 A 
HETATM   16  S   UNL     1      38.160 -14.025   0.937  1.00  0.00    -0.104 SA
HETATM   17  C   UNL     1      37.998 -12.364   0.576  1.00  0.00     0.050 A 
HETATM   18  C   UNL     1      38.856 -11.589   1.319  1.00  0.00     0.008 A 
HETATM   19  C   UNL     1      39.655 -12.373   2.202  1.00  0.00     0.017 A 
ENDBRANCH   4  15
ENDBRANCH   2   4
BRANCH   2  20
HETATM   20  C   UNL     1      42.028 -14.595   1.476  1.00  0.00     0.165 C 
BRANCH  20  21
HETATM   21  C   UNL     1      41.655 -14.310   0.040  1.00  0.00    -0.037 A 
HETATM   22  C   UNL     1      41.868 -13.034  -0.506  1.00  0.00     0.048 A 
HETATM   23  C   UNL     1      41.567 -12.841  -1.838  1.00  0.00     0.105 A 
HETATM   24  C   UNL     1      41.060 -13.851  -2.622  1.00  0.00     0.105 A 
HETATM   25  O   UNL     1      41.738 -11.683  -2.531  1.00  0.00    -0.323 OA
HETATM   26  O   UNL     1      40.846 -13.455  -3.905  1.00  0.00    -0.323 OA
HETATM   27  C   UNL     1      40.822 -15.111  -2.119  1.00  0.00     0.040 A 
HETATM   28  C   UNL     1      41.302 -12.088  -3.845  1.00  0.00     0.352 A 
HETATM   29  C   UNL     1      41.128 -15.340  -0.775  1.00  0.00     0.012 A 
ENDBRANCH  20  21
ENDBRANCH   2  20
BRANCH   1  30
HETATM   30  C   UNL     1      42.202 -17.544   1.136  1.00  0.00     0.144 C 
BRANCH  30  31
HETATM   31  C   UNL     1      43.111 -18.266   2.085  1.00  0.00    -0.021 A 
HETATM   32  C   UNL     1      43.429 -19.664   2.186  1.00  0.00    -0.001 A 
HETATM   33  C   UNL     1      43.028 -20.832   1.502  1.00  0.00     0.014 A 
HETATM   34  C   UNL     1      44.378 -19.801   3.203  1.00  0.00     0.042 A 
HETATM   35  C   UNL     1      43.604 -22.065   1.831  1.00  0.00     0.001 A 
HETATM   36  C   UNL     1      44.555 -22.160   2.840  1.00  0.00     0.002 A 
HETATM   37  C   UNL     1      44.955 -21.028   3.553  1.00  0.00     0.030 A 
HETATM   38  N   UNL     1      44.594 -18.553   3.733  1.00  0.00    -0.365 N 
HETATM   39  H   UNL     1      45.227 -18.357   4.497  1.00  0.00     0.165 HD
HETATM   40  C   UNL     1      43.844 -17.625   3.070  1.00  0.00     0.097 A 
ENDBRANCH  30  31
ENDBRANCH   1  30
TORSDOF 8
ENDMDL
