MODEL 1
REMARK VINA RESULT:      -8.5      0.000      0.000
REMARK  3 active torsions:
REMARK  status: ('A' for Active; 'I' for Inactive)
REMARK    1  A    between atoms: C_2  and  O_3 
REMARK    2  A    between atoms: O_3  and  C_4 
REMARK    3  A    between atoms: C_10  and  N_11 
REMARK       I    between atoms: N_11  and  C_12 
REMARK       I    between atoms: C_12  and  N_13 
ROOT
HETATM    1  N   UNL     1      40.134 -15.494   1.222  1.00  0.00    -0.306 N 
HETATM    2  C   UNL     1      40.977 -15.357   2.299  1.00  0.00     0.323 C 
HETATM    3  N   UNL     1      41.792 -16.461   2.574  1.00  0.00    -0.328 N 
HETATM    4  C   UNL     1      41.960 -17.600   1.653  1.00  0.00     0.185 C 
HETATM    5  C   UNL     1      42.727 -18.693   2.310  1.00  0.00     0.035 A 
HETATM    6  C   UNL     1      43.285 -18.675   3.570  1.00  0.00    -0.020 A 
HETATM    7  C   UNL     1      43.150 -17.485   4.444  1.00  0.00     0.061 C 
HETATM    8  C   UNL     1      42.860 -16.246   3.580  1.00  0.00     0.132 C 
HETATM    9  N   UNL     1      43.010 -19.907   1.743  1.00  0.00    -0.357 N 
HETATM   10  H   UNL     1      42.734 -20.208   0.820  1.00  0.00     0.166 HD
HETATM   11  C   UNL     1      43.742 -20.676   2.624  1.00  0.00     0.043 A 
HETATM   12  C   UNL     1      43.928 -19.921   3.785  1.00  0.00    -0.001 A 
HETATM   13  C   UNL     1      44.248 -21.975   2.481  1.00  0.00     0.030 A 
HETATM   14  C   UNL     1      44.965 -22.513   3.555  1.00  0.00     0.002 A 
HETATM   15  C   UNL     1      45.166 -21.782   4.725  1.00  0.00     0.001 A 
HETATM   16  C   UNL     1      44.653 -20.486   4.852  1.00  0.00     0.014 A 
HETATM   17  O   UNL     1      41.041 -14.340   2.988  1.00  0.00    -0.247 OA
HETATM   18  H   UNL     1      40.032 -16.399   0.793  1.00  0.00     0.171 HD
ENDROOT
BRANCH   1  19
HETATM   19  C   UNL     1      39.302 -14.509   0.632  1.00  0.00     0.071 A 
HETATM   20  C   UNL     1      39.780 -13.881  -0.538  1.00  0.00     0.117 A 
HETATM   21  C   UNL     1      39.050 -12.834  -1.123  1.00  0.00     0.069 A 
HETATM   22 CL   UNL     1      39.640 -11.925  -2.468  1.00  0.00    -0.081 Cl
HETATM   23  C   UNL     1      37.816 -12.461  -0.589  1.00  0.00     0.027 A 
HETATM   24  C   UNL     1      37.320 -13.110   0.540  1.00  0.00     0.004 A 
HETATM   25  C   UNL     1      38.066 -14.120   1.153  1.00  0.00     0.032 A 
BRANCH  20  26
HETATM   26  O   UNL     1      41.006 -14.303  -1.008  1.00  0.00    -0.347 OA
BRANCH  26  27
HETATM   27  C   UNL     1      40.885 -15.348  -1.984  1.00  0.00     0.171 C 
HETATM   28  C   UNL     1      41.410 -14.822  -3.308  1.00  0.00     0.034 C 
ENDBRANCH  26  27
ENDBRANCH  20  26
ENDBRANCH   1  19
TORSDOF 3
ENDMDL
MODEL 2
REMARK VINA RESULT:      -8.3      1.590      2.712
REMARK  3 active torsions:
REMARK  status: ('A' for Active; 'I' for Inactive)
REMARK    1  A    between atoms: C_2  and  O_3 
REMARK    2  A    between atoms: O_3  and  C_4 
REMARK    3  A    between atoms: C_10  and  N_11 
REMARK       I    between atoms: N_11  and  C_12 
REMARK       I    between atoms: C_12  and  N_13 
ROOT
HETATM    1  N   UNL     1      41.791 -14.871  -0.525  1.00  0.00    -0.306 N 
HETATM    2  C   UNL     1      42.012 -14.553   0.794  1.00  0.00     0.323 C 
HETATM    3  N   UNL     1      42.566 -15.571   1.577  1.00  0.00    -0.328 N 
HETATM    4  C   UNL     1      43.132 -16.813   1.020  1.00  0.00     0.185 C 
HETATM    5  C   UNL     1      43.460 -17.771   2.110  1.00  0.00     0.035 A 
HETATM    6  C   UNL     1      43.340 -17.561   3.466  1.00  0.00    -0.020 A 
HETATM    7  C   UNL     1      42.827 -16.272   3.992  1.00  0.00     0.061 C 
HETATM    8  C   UNL     1      43.020 -15.175   2.933  1.00  0.00     0.132 C 
HETATM    9  N   UNL     1      43.953 -19.035   1.924  1.00  0.00    -0.357 N 
HETATM   10  H   UNL     1      44.151 -19.470   1.034  1.00  0.00     0.166 HD
HETATM   11  C   UNL     1      44.151 -19.646   3.145  1.00  0.00     0.043 A 
HETATM   12  C   UNL     1      43.770 -18.735   4.135  1.00  0.00    -0.001 A 
HETATM   13  C   UNL     1      44.632 -20.926   3.446  1.00  0.00     0.030 A 
HETATM   14  C   UNL     1      44.728 -21.283   4.795  1.00  0.00     0.002 A 
HETATM   15  C   UNL     1      44.356 -20.395   5.802  1.00  0.00     0.001 A 
HETATM   16  C   UNL     1      43.876 -19.119   5.486  1.00  0.00     0.014 A 
HETATM   17  O   UNL     1      41.759 -13.451   1.280  1.00  0.00    -0.247 OA
HETATM   18  H   UNL     1      41.888 -15.829  -0.820  1.00  0.00     0.171 HD
ENDROOT
BRANCH   1  19
HETATM   19  C   UNL     1      41.371 -14.013  -1.573  1.00  0.00     0.071 A 
HETATM   20  C   UNL     1      39.982 -13.888  -1.783  1.00  0.00     0.117 A 
HETATM   21  C   UNL     1      39.498 -13.128  -2.860  1.00  0.00     0.069 A 
HETATM   22 CL   UNL     1      37.821 -13.047  -3.264  1.00  0.00    -0.081 Cl
HETATM   23  C   UNL     1      40.390 -12.436  -3.681  1.00  0.00     0.027 A 
HETATM   24  C   UNL     1      41.761 -12.521  -3.449  1.00  0.00     0.004 A 
HETATM   25  C   UNL     1      42.249 -13.315  -2.407  1.00  0.00     0.032 A 
BRANCH  20  26
HETATM   26  O   UNL     1      39.162 -14.599  -0.932  1.00  0.00    -0.347 OA
BRANCH  26  27
HETATM   27  C   UNL     1      38.425 -13.745  -0.045  1.00  0.00     0.171 C 
HETATM   28  C   UNL     1      38.305 -14.447   1.296  1.00  0.00     0.034 C 
ENDBRANCH  26  27
ENDBRANCH  20  26
ENDBRANCH   1  19
TORSDOF 3
ENDMDL
MODEL 3
REMARK VINA RESULT:      -8.3      4.538      8.874
REMARK  3 active torsions:
REMARK  status: ('A' for Active; 'I' for Inactive)
REMARK    1  A    between atoms: C_2  and  O_3 
REMARK    2  A    between atoms: O_3  and  C_4 
REMARK    3  A    between atoms: C_10  and  N_11 
REMARK       I    between atoms: N_11  and  C_12 
REMARK       I    between atoms: C_12  and  N_13 
ROOT
HETATM    1  N   UNL     1      43.055 -18.111   3.463  1.00  0.00    -0.306 N 
HETATM    2  C   UNL     1      43.509 -16.937   2.910  1.00  0.00     0.323 C 
HETATM    3  N   UNL     1      43.023 -15.764   3.497  1.00  0.00    -0.328 N 
HETATM    4  C   UNL     1      42.291 -15.735   4.776  1.00  0.00     0.185 C 
HETATM    5  C   UNL     1      41.742 -14.375   5.033  1.00  0.00     0.035 A 
HETATM    6  C   UNL     1      41.917 -13.249   4.259  1.00  0.00    -0.020 A 
HETATM    7  C   UNL     1      42.716 -13.302   3.010  1.00  0.00     0.061 C 
HETATM    8  C   UNL     1      43.675 -14.503   3.067  1.00  0.00     0.132 C 
HETATM    9  N   UNL     1      40.969 -14.029   6.109  1.00  0.00    -0.357 N 
HETATM   10  H   UNL     1      40.678 -14.646   6.853  1.00  0.00     0.166 HD
HETATM   11  C   UNL     1      40.640 -12.691   6.038  1.00  0.00     0.043 A 
HETATM   12  C   UNL     1      41.226 -12.176   4.878  1.00  0.00    -0.001 A 
HETATM   13  C   UNL     1      39.872 -11.904   6.906  1.00  0.00     0.030 A 
HETATM   14  C   UNL     1      39.702 -10.555   6.578  1.00  0.00     0.002 A 
HETATM   15  C   UNL     1      40.275 -10.015   5.428  1.00  0.00     0.001 A 
HETATM   16  C   UNL     1      41.039 -10.815   4.571  1.00  0.00     0.014 A 
HETATM   17  O   UNL     1      44.299 -16.889   1.968  1.00  0.00    -0.247 OA
HETATM   18  H   UNL     1      42.305 -18.077   4.134  1.00  0.00     0.171 HD
ENDROOT
BRANCH   1  19
HETATM   19  C   UNL     1      43.471 -19.434   3.169  1.00  0.00     0.071 A 
HETATM   20  C   UNL     1      44.195 -20.117   4.169  1.00  0.00     0.117 A 
HETATM   21  C   UNL     1      44.716 -21.396   3.912  1.00  0.00     0.069 A 
HETATM   22 CL   UNL     1      45.731 -22.230   5.033  1.00  0.00    -0.081 Cl
HETATM   23  C   UNL     1      44.456 -22.022   2.692  1.00  0.00     0.027 A 
HETATM   24  C   UNL     1      43.704 -21.368   1.719  1.00  0.00     0.004 A 
HETATM   25  C   UNL     1      43.224 -20.076   1.953  1.00  0.00     0.032 A 
BRANCH  20  26
HETATM   26  O   UNL     1      44.411 -19.436   5.349  1.00  0.00    -0.347 OA
BRANCH  26  27
HETATM   27  C   UNL     1      43.639 -19.969   6.435  1.00  0.00     0.171 C 
HETATM   28  C   UNL     1      43.829 -19.064   7.639  1.00  0.00     0.034 C 
ENDBRANCH  26  27
ENDBRANCH  20  26
ENDBRANCH   1  19
TORSDOF 3
ENDMDL
MODEL 4
REMARK VINA RESULT:      -8.2      3.272      8.365
REMARK  3 active torsions:
REMARK  status: ('A' for Active; 'I' for Inactive)
REMARK    1  A    between atoms: C_2  and  O_3 
REMARK    2  A    between atoms: O_3  and  C_4 
REMARK    3  A    between atoms: C_10  and  N_11 
REMARK       I    between atoms: N_11  and  C_12 
REMARK       I    between atoms: C_12  and  N_13 
ROOT
HETATM    1  N   UNL     1      42.871 -16.574   3.699  1.00  0.00    -0.306 N 
HETATM    2  C   UNL     1      41.549 -16.205   3.614  1.00  0.00     0.323 C 
HETATM    3  N   UNL     1      41.143 -15.688   2.380  1.00  0.00    -0.328 N 
HETATM    4  C   UNL     1      41.962 -15.759   1.156  1.00  0.00     0.185 C 
HETATM    5  C   UNL     1      41.343 -14.955   0.067  1.00  0.00     0.035 A 
HETATM    6  C   UNL     1      40.145 -14.276   0.113  1.00  0.00    -0.020 A 
HETATM    7  C   UNL     1      39.316 -14.281   1.343  1.00  0.00     0.061 C 
HETATM    8  C   UNL     1      39.682 -15.503   2.201  1.00  0.00     0.132 C 
HETATM    9  N   UNL     1      41.881 -14.773  -1.179  1.00  0.00    -0.357 N 
HETATM   10  H   UNL     1      42.755 -15.156  -1.510  1.00  0.00     0.166 HD
HETATM   11  C   UNL     1      41.045 -13.981  -1.939  1.00  0.00     0.043 A 
HETATM   12  C   UNL     1      39.942 -13.654  -1.146  1.00  0.00    -0.001 A 
HETATM   13  C   UNL     1      41.182 -13.532  -3.259  1.00  0.00     0.030 A 
HETATM   14  C   UNL     1      40.162 -12.729  -3.780  1.00  0.00     0.002 A 
HETATM   15  C   UNL     1      39.052 -12.387  -3.011  1.00  0.00     0.001 A 
HETATM   16  C   UNL     1      38.929 -12.843  -1.693  1.00  0.00     0.014 A 
HETATM   17  O   UNL     1      40.750 -16.321   4.543  1.00  0.00    -0.247 OA
HETATM   18  H   UNL     1      43.497 -16.320   2.952  1.00  0.00     0.171 HD
ENDROOT
BRANCH   1  19
HETATM   19  C   UNL     1      43.526 -17.242   4.764  1.00  0.00     0.071 A 
HETATM   20  C   UNL     1      43.699 -18.637   4.637  1.00  0.00     0.117 A 
HETATM   21  C   UNL     1      44.257 -19.375   5.693  1.00  0.00     0.069 A 
HETATM   22 CL   UNL     1      44.367 -21.099   5.668  1.00  0.00    -0.081 Cl
HETATM   23  C   UNL     1      44.709 -18.720   6.840  1.00  0.00     0.027 A 
HETATM   24  C   UNL     1      44.580 -17.337   6.949  1.00  0.00     0.004 A 
HETATM   25  C   UNL     1      43.981 -16.604   5.920  1.00  0.00     0.032 A 
BRANCH  20  26
HETATM   26  O   UNL     1      43.230 -19.214   3.476  1.00  0.00    -0.347 OA
BRANCH  26  27
HETATM   27  C   UNL     1      44.293 -19.623   2.603  1.00  0.00     0.171 C 
HETATM   28  C   UNL     1      43.950 -20.995   2.050  1.00  0.00     0.034 C 
ENDBRANCH  26  27
ENDBRANCH  20  26
ENDBRANCH   1  19
TORSDOF 3
ENDMDL
MODEL 5
REMARK VINA RESULT:      -7.7      2.325      3.747
REMARK  3 active torsions:
REMARK  status: ('A' for Active; 'I' for Inactive)
REMARK    1  A    between atoms: C_2  and  O_3 
REMARK    2  A    between atoms: O_3  and  C_4 
REMARK    3  A    between atoms: C_10  and  N_11 
REMARK       I    between atoms: N_11  and  C_12 
REMARK       I    between atoms: C_12  and  N_13 
ROOT
HETATM    1  N   UNL     1      39.413 -14.081   1.993  1.00  0.00    -0.306 N 
HETATM    2  C   UNL     1      40.081 -14.907   1.120  1.00  0.00     0.323 C 
HETATM    3  N   UNL     1      40.812 -15.944   1.708  1.00  0.00    -0.328 N 
HETATM    4  C   UNL     1      40.693 -16.323   3.128  1.00  0.00     0.185 C 
HETATM    5  C   UNL     1      41.734 -17.324   3.490  1.00  0.00     0.035 A 
HETATM    6  C   UNL     1      42.659 -17.902   2.648  1.00  0.00    -0.020 A 
HETATM    7  C   UNL     1      42.706 -17.543   1.210  1.00  0.00     0.061 C 
HETATM    8  C   UNL     1      41.344 -16.972   0.781  1.00  0.00     0.132 C 
HETATM    9  N   UNL     1      41.927 -17.840   4.743  1.00  0.00    -0.357 N 
HETATM   10  H   UNL     1      41.394 -17.607   5.569  1.00  0.00     0.166 HD
HETATM   11  C   UNL     1      42.968 -18.744   4.722  1.00  0.00     0.043 A 
HETATM   12  C   UNL     1      43.448 -18.801   3.411  1.00  0.00    -0.001 A 
HETATM   13  C   UNL     1      43.519 -19.510   5.758  1.00  0.00     0.030 A 
HETATM   14  C   UNL     1      44.587 -20.356   5.442  1.00  0.00     0.002 A 
HETATM   15  C   UNL     1      45.086 -20.432   4.143  1.00  0.00     0.001 A 
HETATM   16  C   UNL     1      44.525 -19.660   3.119  1.00  0.00     0.014 A 
HETATM   17  O   UNL     1      40.047 -14.774  -0.103  1.00  0.00    -0.247 OA
HETATM   18  H   UNL     1      39.599 -14.160   2.979  1.00  0.00     0.171 HD
ENDROOT
BRANCH   1  19
HETATM   19  C   UNL     1      38.498 -13.042   1.687  1.00  0.00     0.071 A 
HETATM   20  C   UNL     1      38.591 -11.858   2.450  1.00  0.00     0.117 A 
HETATM   21  C   UNL     1      37.659 -10.825   2.263  1.00  0.00     0.069 A 
HETATM   22 CL   UNL     1      37.622  -9.412   3.255  1.00  0.00    -0.081 Cl
HETATM   23  C   UNL     1      36.683 -10.938   1.271  1.00  0.00     0.027 A 
HETATM   24  C   UNL     1      36.616 -12.087   0.486  1.00  0.00     0.004 A 
HETATM   25  C   UNL     1      37.513 -13.138   0.702  1.00  0.00     0.032 A 
BRANCH  20  26
HETATM   26  O   UNL     1      39.581 -11.818   3.409  1.00  0.00    -0.347 OA
BRANCH  26  27
HETATM   27  C   UNL     1      39.058 -11.948   4.739  1.00  0.00     0.171 C 
HETATM   28  C   UNL     1      39.652 -13.198   5.362  1.00  0.00     0.034 C 
ENDBRANCH  26  27
ENDBRANCH  20  26
ENDBRANCH   1  19
TORSDOF 3
ENDMDL
MODEL 6
REMARK VINA RESULT:      -7.7      3.346      8.432
REMARK  3 active torsions:
REMARK  status: ('A' for Active; 'I' for Inactive)
REMARK    1  A    between atoms: C_2  and  O_3 
REMARK    2  A    between atoms: O_3  and  C_4 
REMARK    3  A    between atoms: C_10  and  N_11 
REMARK       I    between atoms: N_11  and  C_12 
REMARK       I    between atoms: C_12  and  N_13 
ROOT
HETATM    1  N   UNL     1      42.625 -15.733   3.349  1.00  0.00    -0.306 N 
HETATM    2  C   UNL     1      42.904 -14.487   2.840  1.00  0.00     0.323 C 
HETATM    3  N   UNL     1      42.058 -14.048   1.816  1.00  0.00    -0.328 N 
HETATM    4  C   UNL     1      40.795 -14.718   1.458  1.00  0.00     0.185 C 
HETATM    5  C   UNL     1      40.228 -14.132   0.213  1.00  0.00     0.035 A 
HETATM    6  C   UNL     1      40.730 -13.071  -0.509  1.00  0.00    -0.020 A 
HETATM    7  C   UNL     1      41.970 -12.379  -0.082  1.00  0.00     0.061 C 
HETATM    8  C   UNL     1      42.202 -12.626   1.419  1.00  0.00     0.132 C 
HETATM    9  N   UNL     1      39.089 -14.564  -0.413  1.00  0.00    -0.357 N 
HETATM   10  H   UNL     1      38.500 -15.327  -0.111  1.00  0.00     0.166 HD
HETATM   11  C   UNL     1      38.850 -13.796  -1.534  1.00  0.00     0.043 A 
HETATM   12  C   UNL     1      39.872 -12.847  -1.617  1.00  0.00    -0.001 A 
HETATM   13  C   UNL     1      37.814 -13.871  -2.474  1.00  0.00     0.030 A 
HETATM   14  C   UNL     1      37.825 -12.948  -3.525  1.00  0.00     0.002 A 
HETATM   15  C   UNL     1      38.831 -11.991  -3.633  1.00  0.00     0.001 A 
HETATM   16  C   UNL     1      39.860 -11.929  -2.686  1.00  0.00     0.014 A 
HETATM   17  O   UNL     1      43.823 -13.776   3.246  1.00  0.00    -0.247 OA
HETATM   18  H   UNL     1      41.952 -16.314   2.877  1.00  0.00     0.171 HD
ENDROOT
BRANCH   1  19
HETATM   19  C   UNL     1      43.217 -16.374   4.466  1.00  0.00     0.071 A 
HETATM   20  C   UNL     1      43.884 -17.595   4.227  1.00  0.00     0.117 A 
HETATM   21  C   UNL     1      44.414 -18.329   5.300  1.00  0.00     0.069 A 
HETATM   22 CL   UNL     1      45.114 -19.895   5.101  1.00  0.00    -0.081 Cl
HETATM   23  C   UNL     1      44.346 -17.816   6.597  1.00  0.00     0.027 A 
HETATM   24  C   UNL     1      43.728 -16.590   6.830  1.00  0.00     0.004 A 
HETATM   25  C   UNL     1      43.157 -15.879   5.771  1.00  0.00     0.032 A 
BRANCH  20  26
HETATM   26  O   UNL     1      43.912 -18.037   2.921  1.00  0.00    -0.347 OA
BRANCH  26  27
HETATM   27  C   UNL     1      42.888 -19.005   2.651  1.00  0.00     0.171 C 
HETATM   28  C   UNL     1      43.521 -20.167   1.907  1.00  0.00     0.034 C 
ENDBRANCH  26  27
ENDBRANCH  20  26
ENDBRANCH   1  19
TORSDOF 3
ENDMDL
MODEL 7
REMARK VINA RESULT:      -7.7      3.514      8.372
REMARK  3 active torsions:
REMARK  status: ('A' for Active; 'I' for Inactive)
REMARK    1  A    between atoms: C_2  and  O_3 
REMARK    2  A    between atoms: O_3  and  C_4 
REMARK    3  A    between atoms: C_10  and  N_11 
REMARK       I    between atoms: N_11  and  C_12 
REMARK       I    between atoms: C_12  and  N_13 
ROOT
HETATM    1  N   UNL     1      42.682 -17.711   4.086  1.00  0.00    -0.306 N 
HETATM    2  C   UNL     1      42.159 -17.020   5.153  1.00  0.00     0.323 C 
HETATM    3  N   UNL     1      41.323 -15.947   4.829  1.00  0.00    -0.328 N 
HETATM    4  C   UNL     1      40.802 -15.699   3.472  1.00  0.00     0.185 C 
HETATM    5  C   UNL     1      40.109 -14.383   3.412  1.00  0.00     0.035 A 
HETATM    6  C   UNL     1      39.894 -13.509   4.454  1.00  0.00    -0.020 A 
HETATM    7  C   UNL     1      40.377 -13.822   5.821  1.00  0.00     0.061 C 
HETATM    8  C   UNL     1      40.575 -15.341   5.957  1.00  0.00     0.132 C 
HETATM    9  N   UNL     1      39.560 -13.835   2.283  1.00  0.00    -0.357 N 
HETATM   10  H   UNL     1      39.558 -14.250   1.363  1.00  0.00     0.166 HD
HETATM   11  C   UNL     1      38.993 -12.614   2.585  1.00  0.00     0.043 A 
HETATM   12  C   UNL     1      39.191 -12.385   3.948  1.00  0.00    -0.001 A 
HETATM   13  C   UNL     1      38.326 -11.700   1.757  1.00  0.00     0.030 A 
HETATM   14  C   UNL     1      37.849 -10.523   2.344  1.00  0.00     0.002 A 
HETATM   15  C   UNL     1      38.033 -10.269   3.701  1.00  0.00     0.001 A 
HETATM   16  C   UNL     1      38.702 -11.191   4.514  1.00  0.00     0.014 A 
HETATM   17  O   UNL     1      42.385 -17.311   6.327  1.00  0.00    -0.247 OA
HETATM   18  H   UNL     1      42.571 -17.333   3.159  1.00  0.00     0.171 HD
ENDROOT
BRANCH   1  19
HETATM   19  C   UNL     1      43.442 -18.907   4.105  1.00  0.00     0.071 A 
HETATM   20  C   UNL     1      43.547 -19.622   2.893  1.00  0.00     0.117 A 
HETATM   21  C   UNL     1      44.207 -20.861   2.861  1.00  0.00     0.069 A 
HETATM   22 CL   UNL     1      44.252 -21.856   1.451  1.00  0.00    -0.081 Cl
HETATM   23  C   UNL     1      44.823 -21.352   4.014  1.00  0.00     0.027 A 
HETATM   24  C   UNL     1      44.758 -20.628   5.202  1.00  0.00     0.004 A 
HETATM   25  C   UNL     1      44.061 -19.417   5.249  1.00  0.00     0.032 A 
BRANCH  20  26
HETATM   26  O   UNL     1      42.916 -19.073   1.796  1.00  0.00    -0.347 OA
BRANCH  26  27
HETATM   27  C   UNL     1      43.730 -18.098   1.129  1.00  0.00     0.171 C 
HETATM   28  C   UNL     1      42.825 -16.987   0.630  1.00  0.00     0.034 C 
ENDBRANCH  26  27
ENDBRANCH  20  26
ENDBRANCH   1  19
TORSDOF 3
ENDMDL
MODEL 8
REMARK VINA RESULT:      -7.7      4.897      8.933
REMARK  3 active torsions:
REMARK  status: ('A' for Active; 'I' for Inactive)
REMARK    1  A    between atoms: C_2  and  O_3 
REMARK    2  A    between atoms: O_3  and  C_4 
REMARK    3  A    between atoms: C_10  and  N_11 
REMARK       I    between atoms: N_11  and  C_12 
REMARK       I    between atoms: C_12  and  N_13 
ROOT
HETATM    1  N   UNL     1      42.695 -17.260   4.073  1.00  0.00    -0.306 N 
HETATM    2  C   UNL     1      41.555 -16.584   3.710  1.00  0.00     0.323 C 
HETATM    3  N   UNL     1      41.376 -15.333   4.311  1.00  0.00    -0.328 N 
HETATM    4  C   UNL     1      42.427 -14.637   5.075  1.00  0.00     0.185 C 
HETATM    5  C   UNL     1      41.872 -13.431   5.746  1.00  0.00     0.035 A 
HETATM    6  C   UNL     1      40.587 -12.944   5.651  1.00  0.00    -0.020 A 
HETATM    7  C   UNL     1      39.572 -13.636   4.819  1.00  0.00     0.061 C 
HETATM    8  C   UNL     1      40.280 -14.498   3.761  1.00  0.00     0.132 C 
HETATM    9  N   UNL     1      42.576 -12.596   6.573  1.00  0.00    -0.357 N 
HETATM   10  H   UNL     1      43.548 -12.696   6.828  1.00  0.00     0.166 HD
HETATM   11  C   UNL     1      41.760 -11.576   7.015  1.00  0.00     0.043 A 
HETATM   12  C   UNL     1      40.498 -11.773   6.448  1.00  0.00    -0.001 A 
HETATM   13  C   UNL     1      42.040 -10.503   7.871  1.00  0.00     0.030 A 
HETATM   14  C   UNL     1      41.002  -9.607   8.149  1.00  0.00     0.002 A 
HETATM   15  C   UNL     1      39.735  -9.780   7.598  1.00  0.00     0.001 A 
HETATM   16  C   UNL     1      39.470 -10.858   6.745  1.00  0.00     0.014 A 
HETATM   17  O   UNL     1      40.733 -17.019   2.904  1.00  0.00    -0.247 OA
HETATM   18  H   UNL     1      43.247 -16.912   4.840  1.00  0.00     0.171 HD
ENDROOT
BRANCH   1  19
HETATM   19  C   UNL     1      43.202 -18.471   3.537  1.00  0.00     0.071 A 
HETATM   20  C   UNL     1      43.781 -19.383   4.444  1.00  0.00     0.117 A 
HETATM   21  C   UNL     1      44.384 -20.560   3.970  1.00  0.00     0.069 A 
HETATM   22 CL   UNL     1      45.236 -21.650   5.003  1.00  0.00    -0.081 Cl
HETATM   23  C   UNL     1      44.348 -20.862   2.608  1.00  0.00     0.027 A 
HETATM   24  C   UNL     1      43.738 -19.984   1.715  1.00  0.00     0.004 A 
HETATM   25  C   UNL     1      43.178 -18.789   2.177  1.00  0.00     0.032 A 
BRANCH  20  26
HETATM   26  O   UNL     1      43.778 -19.017   5.774  1.00  0.00    -0.347 OA
BRANCH  26  27
HETATM   27  C   UNL     1      45.018 -18.418   6.177  1.00  0.00     0.171 C 
HETATM   28  C   UNL     1      44.707 -17.090   6.843  1.00  0.00     0.034 C 
ENDBRANCH  26  27
ENDBRANCH  20  26
ENDBRANCH   1  19
TORSDOF 3
ENDMDL
MODEL 9
REMARK VINA RESULT:      -7.6      2.817      3.418
REMARK  3 active torsions:
REMARK  status: ('A' for Active; 'I' for Inactive)
REMARK    1  A    between atoms: C_2  and  O_3 
REMARK    2  A    between atoms: O_3  and  C_4 
REMARK    3  A    between atoms: C_10  and  N_11 
REMARK       I    between atoms: N_11  and  C_12 
REMARK       I    between atoms: C_12  and  N_13 
ROOT
HETATM    1  N   UNL     1      40.511 -13.303   3.109  1.00  0.00    -0.306 N 
HETATM    2  C   UNL     1      40.111 -14.350   2.314  1.00  0.00     0.323 C 
HETATM    3  N   UNL     1      40.791 -15.556   2.512  1.00  0.00    -0.328 N 
HETATM    4  C   UNL     1      41.690 -15.807   3.653  1.00  0.00     0.185 C 
HETATM    5  C   UNL     1      42.406 -17.100   3.478  1.00  0.00     0.035 A 
HETATM    6  C   UNL     1      42.245 -18.007   2.454  1.00  0.00    -0.020 A 
HETATM    7  C   UNL     1      41.282 -17.750   1.356  1.00  0.00     0.061 C 
HETATM    8  C   UNL     1      40.221 -16.744   1.832  1.00  0.00     0.132 C 
HETATM    9  N   UNL     1      43.351 -17.598   4.336  1.00  0.00    -0.357 N 
HETATM   10  H   UNL     1      43.675 -17.155   5.183  1.00  0.00     0.166 HD
HETATM   11  C   UNL     1      43.804 -18.818   3.876  1.00  0.00     0.043 A 
HETATM   12  C   UNL     1      43.122 -19.098   2.690  1.00  0.00    -0.001 A 
HETATM   13  C   UNL     1      44.760 -19.687   4.418  1.00  0.00     0.030 A 
HETATM   14  C   UNL     1      45.023 -20.874   3.726  1.00  0.00     0.002 A 
HETATM   15  C   UNL     1      44.358 -21.178   2.540  1.00  0.00     0.001 A 
HETATM   16  C   UNL     1      43.405 -20.299   2.012  1.00  0.00     0.014 A 
HETATM   17  O   UNL     1      39.209 -14.265   1.481  1.00  0.00    -0.247 OA
HETATM   18  H   UNL     1      41.345 -13.403   3.665  1.00  0.00     0.171 HD
ENDROOT
BRANCH   1  19
HETATM   19  C   UNL     1      39.924 -12.018   3.225  1.00  0.00     0.071 A 
HETATM   20  C   UNL     1      40.481 -10.984   2.442  1.00  0.00     0.117 A 
HETATM   21  C   UNL     1      40.009  -9.669   2.574  1.00  0.00     0.069 A 
HETATM   22 CL   UNL     1      40.736  -8.332   1.757  1.00  0.00    -0.081 Cl
HETATM   23  C   UNL     1      38.939  -9.395   3.427  1.00  0.00     0.027 A 
HETATM   24  C   UNL     1      38.357 -10.421   4.168  1.00  0.00     0.004 A 
HETATM   25  C   UNL     1      38.856 -11.724   4.075  1.00  0.00     0.032 A 
BRANCH  20  26
HETATM   26  O   UNL     1      41.534 -11.331   1.621  1.00  0.00    -0.347 OA
BRANCH  26  27
HETATM   27  C   UNL     1      41.154 -11.378   0.238  1.00  0.00     0.171 C 
HETATM   28  C   UNL     1      41.871 -12.548  -0.410  1.00  0.00     0.034 C 
ENDBRANCH  26  27
ENDBRANCH  20  26
ENDBRANCH   1  19
TORSDOF 3
ENDMDL
MODEL 10
REMARK VINA RESULT:      -7.6      2.090      2.426
REMARK  3 active torsions:
REMARK  status: ('A' for Active; 'I' for Inactive)
REMARK    1  A    between atoms: C_2  and  O_3 
REMARK    2  A    between atoms: O_3  and  C_4 
REMARK    3  A    between atoms: C_10  and  N_11 
REMARK       I    between atoms: N_11  and  C_12 
REMARK       I    between atoms: C_12  and  N_13 
ROOT
HETATM    1  N   UNL     1      40.180 -14.140   3.265  1.00  0.00    -0.306 N 
HETATM    2  C   UNL     1      41.211 -14.392   4.138  1.00  0.00     0.323 C 
HETATM    3  N   UNL     1      41.915 -15.580   3.917  1.00  0.00    -0.328 N 
HETATM    4  C   UNL     1      41.770 -16.399   2.700  1.00  0.00     0.185 C 
HETATM    5  C   UNL     1      42.497 -17.689   2.850  1.00  0.00     0.035 A 
HETATM    6  C   UNL     1      43.268 -18.090   3.920  1.00  0.00    -0.020 A 
HETATM    7  C   UNL     1      43.443 -17.210   5.101  1.00  0.00     0.061 C 
HETATM    8  C   UNL     1      43.163 -15.752   4.699  1.00  0.00     0.132 C 
HETATM    9  N   UNL     1      42.518 -18.694   1.919  1.00  0.00    -0.357 N 
HETATM   10  H   UNL     1      42.046 -18.685   1.026  1.00  0.00     0.166 HD
HETATM   11  C   UNL     1      43.291 -19.741   2.377  1.00  0.00     0.043 A 
HETATM   12  C   UNL     1      43.776 -19.384   3.638  1.00  0.00    -0.001 A 
HETATM   13  C   UNL     1      43.595 -20.968   1.774  1.00  0.00     0.030 A 
HETATM   14  C   UNL     1      44.417 -21.852   2.481  1.00  0.00     0.002 A 
HETATM   15  C   UNL     1      44.914 -21.522   3.740  1.00  0.00     0.001 A 
HETATM   16  C   UNL     1      44.601 -20.292   4.330  1.00  0.00     0.014 A 
HETATM   17  O   UNL     1      41.526 -13.635   5.056  1.00  0.00    -0.247 OA
HETATM   18  H   UNL     1      39.889 -14.866   2.630  1.00  0.00     0.171 HD
ENDROOT
BRANCH   1  19
HETATM   19  C   UNL     1      39.388 -12.968   3.161  1.00  0.00     0.071 A 
HETATM   20  C   UNL     1      38.637 -12.803   1.978  1.00  0.00     0.117 A 
HETATM   21  C   UNL     1      37.903 -11.625   1.769  1.00  0.00     0.069 A 
HETATM   22 CL   UNL     1      37.078 -11.291   0.288  1.00  0.00    -0.081 Cl
HETATM   23  C   UNL     1      37.858 -10.646   2.763  1.00  0.00     0.027 A 
HETATM   24  C   UNL     1      38.563 -10.826   3.951  1.00  0.00     0.004 A 
HETATM   25  C   UNL     1      39.333 -11.977   4.143  1.00  0.00     0.032 A 
BRANCH  20  26
HETATM   26  O   UNL     1      38.729 -13.813   1.042  1.00  0.00    -0.347 OA
BRANCH  26  27
HETATM   27  C   UNL     1      39.678 -13.512   0.008  1.00  0.00     0.171 C 
HETATM   28  C   UNL     1      39.064 -13.901  -1.324  1.00  0.00     0.034 C 
ENDBRANCH  26  27
ENDBRANCH  20  26
ENDBRANCH   1  19
TORSDOF 3
ENDMDL
