MODEL 1
REMARK VINA RESULT:      -9.6      0.000      0.000
REMARK  8 active torsions:
REMARK  status: ('A' for Active; 'I' for Inactive)
REMARK    1  A    between atoms: C_4  and  S_5 
REMARK    2  A    between atoms: S_5  and  C_6 
REMARK    3  A    between atoms: C_6  and  C_7 
REMARK       I    between atoms: C_7  and  N_8 
REMARK    4  A    between atoms: N_8  and  C_9 
REMARK    5  A    between atoms: C_20  and  C_21 
REMARK    6  A    between atoms: C_27  and  C_28 
REMARK       I    between atoms: C_28  and  N_29 
REMARK    7  A    between atoms: N_29  and  C_30 
REMARK    8  A    between atoms: C_31  and  O_32 
ROOT
HETATM    1  C   UNL     1      42.941 -17.215   7.726  1.00  0.00     0.069 C 
HETATM    2  C   UNL     1      42.896 -16.345   6.495  1.00  0.00     0.019 C 
HETATM    3  N   UNL     1      42.426 -15.054   6.682  1.00  0.00    -0.353 N 
HETATM    4  C   UNL     1      42.460 -14.056   5.726  1.00  0.00     0.087 C 
HETATM    5  C   UNL     1      42.798 -14.371   4.454  1.00  0.00     0.055 C 
HETATM    6  C   UNL     1      42.604 -13.394   3.306  1.00  0.00     0.019 C 
HETATM    7  N   UNL     1      42.443 -12.583   2.355  1.00  0.00    -0.096 N 
HETATM    8  C   UNL     1      43.244 -15.789   4.077  1.00  0.00     0.104 C 
HETATM    9  C   UNL     1      43.310 -16.731   5.268  1.00  0.00     0.046 C 
HETATM   10  H   UNL     1      42.335 -14.729   7.642  1.00  0.00     0.166 HD
ENDROOT
BRANCH   4  11
HETATM   11  S   UNL     1      42.207 -12.397   6.221  1.00  0.00    -0.102 SA
BRANCH  11  12
HETATM   12  C   UNL     1      43.355 -12.218   7.622  1.00  0.00     0.184 C 
BRANCH  12  13
HETATM   13  C   UNL     1      42.911 -11.124   8.599  1.00  0.00     0.231 C 
HETATM   14  N   UNL     1      43.004 -11.468   9.935  1.00  0.00    -0.326 N 
HETATM   15  H   UNL     1      43.294 -12.426  10.111  1.00  0.00     0.169 HD
HETATM   16  O   UNL     1      42.548 -10.032   8.167  1.00  0.00    -0.272 OA
BRANCH  14  17
HETATM   17  C   UNL     1      42.671 -10.706  11.070  1.00  0.00     0.036 A 
HETATM   18  C   UNL     1      41.381 -10.265  11.368  1.00  0.00     0.053 A 
HETATM   19  C   UNL     1      41.150  -9.517  12.526  1.00  0.00     0.036 A 
HETATM   20 CL   UNL     1      39.557  -8.970  12.888  1.00  0.00    -0.084 Cl
HETATM   21  C   UNL     1      42.193  -9.206  13.397  1.00  0.00     0.024 A 
HETATM   22  C   UNL     1      43.483  -9.642  13.105  1.00  0.00     0.004 A 
HETATM   23  C   UNL     1      43.719 -10.384  11.946  1.00  0.00     0.029 A 
ENDBRANCH  14  17
ENDBRANCH  12  13
ENDBRANCH  11  12
ENDBRANCH   4  11
BRANCH   8  24
HETATM   24  C   UNL     1      42.398 -16.341   2.929  1.00  0.00    -0.044 A 
HETATM   25  C   UNL     1      43.000 -16.592   1.685  1.00  0.00     0.008 A 
HETATM   26  C   UNL     1      42.240 -17.039   0.605  1.00  0.00     0.001 A 
HETATM   27  C   UNL     1      40.872 -17.243   0.755  1.00  0.00     0.000 A 
HETATM   28  C   UNL     1      40.262 -17.009   1.986  1.00  0.00     0.001 A 
HETATM   29  C   UNL     1      41.018 -16.560   3.070  1.00  0.00     0.008 A 
ENDBRANCH   8  24
BRANCH   9  30
HETATM   30  C   UNL     1      44.126 -17.971   5.122  1.00  0.00     0.255 C 
HETATM   31  N   UNL     1      43.427 -19.031   4.588  1.00  0.00    -0.321 N 
HETATM   32  H   UNL     1      42.418 -18.975   4.602  1.00  0.00     0.169 HD
HETATM   33  O   UNL     1      45.275 -17.977   5.550  1.00  0.00    -0.268 OA
BRANCH  31  34
HETATM   34  C   UNL     1      43.984 -20.285   4.242  1.00  0.00     0.068 A 
HETATM   35  C   UNL     1      44.422 -21.246   5.175  1.00  0.00     0.095 A 
HETATM   36  C   UNL     1      44.877 -22.489   4.716  1.00  0.00     0.039 A 
HETATM   37  C   UNL     1      44.946 -22.758   3.348  1.00  0.00     0.003 A 
HETATM   38  C   UNL     1      44.590 -21.780   2.425  1.00  0.00     0.002 A 
HETATM   39  C   UNL     1      44.122 -20.544   2.870  1.00  0.00     0.032 A 
BRANCH  35  40
HETATM   40  O   UNL     1      44.511 -20.854   6.487  1.00  0.00    -0.354 OA
HETATM   41  C   UNL     1      43.418 -21.158   7.341  1.00  0.00     0.210 C 
ENDBRANCH  35  40
ENDBRANCH  31  34
ENDBRANCH   9  30
TORSDOF 8
ENDMDL
MODEL 2
REMARK VINA RESULT:      -9.6      2.670      3.499
REMARK  8 active torsions:
REMARK  status: ('A' for Active; 'I' for Inactive)
REMARK    1  A    between atoms: C_4  and  S_5 
REMARK    2  A    between atoms: S_5  and  C_6 
REMARK    3  A    between atoms: C_6  and  C_7 
REMARK       I    between atoms: C_7  and  N_8 
REMARK    4  A    between atoms: N_8  and  C_9 
REMARK    5  A    between atoms: C_20  and  C_21 
REMARK    6  A    between atoms: C_27  and  C_28 
REMARK       I    between atoms: C_28  and  N_29 
REMARK    7  A    between atoms: N_29  and  C_30 
REMARK    8  A    between atoms: C_31  and  O_32 
ROOT
HETATM    1  C   UNL     1      40.436 -15.192   5.848  1.00  0.00     0.069 C 
HETATM    2  C   UNL     1      40.582 -14.246   4.684  1.00  0.00     0.019 C 
HETATM    3  N   UNL     1      40.512 -12.895   4.988  1.00  0.00    -0.353 N 
HETATM    4  C   UNL     1      40.783 -11.871   4.099  1.00  0.00     0.087 C 
HETATM    5  C   UNL     1      40.953 -12.162   2.788  1.00  0.00     0.055 C 
HETATM    6  C   UNL     1      40.991 -11.079   1.723  1.00  0.00     0.019 C 
HETATM    7  N   UNL     1      41.022 -10.179   0.841  1.00  0.00    -0.096 N 
HETATM    8  C   UNL     1      40.955 -13.612   2.289  1.00  0.00     0.104 C 
HETATM    9  C   UNL     1      40.808 -14.630   3.407  1.00  0.00     0.046 C 
HETATM   10  H   UNL     1      40.564 -12.638   5.970  1.00  0.00     0.166 HD
ENDROOT
BRANCH   4  11
HETATM   11  S   UNL     1      41.040 -10.256   4.718  1.00  0.00    -0.102 SA
BRANCH  11  12
HETATM   12  C   UNL     1      40.468 -10.391   6.440  1.00  0.00     0.184 C 
BRANCH  12  13
HETATM   13  C   UNL     1      41.558 -10.002   7.445  1.00  0.00     0.231 C 
HETATM   14  N   UNL     1      42.029 -11.046   8.221  1.00  0.00    -0.326 N 
HETATM   15  H   UNL     1      41.553 -11.933   8.080  1.00  0.00     0.169 HD
HETATM   16  O   UNL     1      41.969  -8.845   7.482  1.00  0.00    -0.272 OA
BRANCH  14  17
HETATM   17  C   UNL     1      43.009 -11.025   9.231  1.00  0.00     0.036 A 
HETATM   18  C   UNL     1      42.828 -10.447  10.488  1.00  0.00     0.053 A 
HETATM   19  C   UNL     1      43.862 -10.484  11.427  1.00  0.00     0.036 A 
HETATM   20 CL   UNL     1      43.637  -9.764  12.976  1.00  0.00    -0.084 Cl
HETATM   21  C   UNL     1      45.078 -11.096  11.129  1.00  0.00     0.024 A 
HETATM   22  C   UNL     1      45.266 -11.674   9.877  1.00  0.00     0.004 A 
HETATM   23  C   UNL     1      44.237 -11.635   8.933  1.00  0.00     0.029 A 
ENDBRANCH  14  17
ENDBRANCH  12  13
ENDBRANCH  11  12
ENDBRANCH   4  11
BRANCH   8  24
HETATM   24  C   UNL     1      39.931 -13.806   1.170  1.00  0.00    -0.044 A 
HETATM   25  C   UNL     1      40.372 -13.916  -0.159  1.00  0.00     0.008 A 
HETATM   26  C   UNL     1      39.456 -14.034  -1.204  1.00  0.00     0.001 A 
HETATM   27  C   UNL     1      38.091 -14.047  -0.934  1.00  0.00     0.000 A 
HETATM   28  C   UNL     1      37.639 -13.949   0.381  1.00  0.00     0.001 A 
HETATM   29  C   UNL     1      38.551 -13.829   1.430  1.00  0.00     0.008 A 
ENDBRANCH   8  24
BRANCH   9  30
HETATM   30  C   UNL     1      41.226 -16.033   3.124  1.00  0.00     0.255 C 
HETATM   31  N   UNL     1      42.575 -16.252   3.294  1.00  0.00    -0.321 N 
HETATM   32  H   UNL     1      43.176 -15.439   3.318  1.00  0.00     0.169 HD
HETATM   33  O   UNL     1      40.392 -16.825   2.697  1.00  0.00    -0.268 OA
BRANCH  31  34
HETATM   34  C   UNL     1      43.217 -17.509   3.201  1.00  0.00     0.068 A 
HETATM   35  C   UNL     1      43.696 -18.241   4.306  1.00  0.00     0.095 A 
HETATM   36  C   UNL     1      44.238 -19.516   4.101  1.00  0.00     0.039 A 
HETATM   37  C   UNL     1      44.351 -20.040   2.811  1.00  0.00     0.003 A 
HETATM   38  C   UNL     1      43.954 -19.283   1.714  1.00  0.00     0.002 A 
HETATM   39  C   UNL     1      43.399 -18.018   1.907  1.00  0.00     0.032 A 
BRANCH  35  40
HETATM   40  O   UNL     1      43.732 -17.598   5.518  1.00  0.00    -0.354 OA
HETATM   41  C   UNL     1      44.846 -17.847   6.363  1.00  0.00     0.210 C 
ENDBRANCH  35  40
ENDBRANCH  31  34
ENDBRANCH   9  30
TORSDOF 8
ENDMDL
MODEL 3
REMARK VINA RESULT:      -9.5      4.851      8.478
REMARK  8 active torsions:
REMARK  status: ('A' for Active; 'I' for Inactive)
REMARK    1  A    between atoms: C_4  and  S_5 
REMARK    2  A    between atoms: S_5  and  C_6 
REMARK    3  A    between atoms: C_6  and  C_7 
REMARK       I    between atoms: C_7  and  N_8 
REMARK    4  A    between atoms: N_8  and  C_9 
REMARK    5  A    between atoms: C_20  and  C_21 
REMARK    6  A    between atoms: C_27  and  C_28 
REMARK       I    between atoms: C_28  and  N_29 
REMARK    7  A    between atoms: N_29  and  C_30 
REMARK    8  A    between atoms: C_31  and  O_32 
ROOT
HETATM    1  C   UNL     1      42.600 -16.472   0.636  1.00  0.00     0.069 C 
HETATM    2  C   UNL     1      42.187 -15.659   1.836  1.00  0.00     0.019 C 
HETATM    3  N   UNL     1      41.754 -14.369   1.574  1.00  0.00    -0.353 N 
HETATM    4  C   UNL     1      41.182 -13.523   2.507  1.00  0.00     0.087 C 
HETATM    5  C   UNL     1      41.196 -13.876   3.813  1.00  0.00     0.055 C 
HETATM    6  C   UNL     1      40.829 -12.894   4.914  1.00  0.00     0.019 C 
HETATM    7  N   UNL     1      40.525 -12.079   5.826  1.00  0.00    -0.096 N 
HETATM    8  C   UNL     1      41.739 -15.237   4.265  1.00  0.00     0.104 C 
HETATM    9  C   UNL     1      42.181 -16.118   3.108  1.00  0.00     0.046 C 
HETATM   10  H   UNL     1      41.561 -14.133   0.603  1.00  0.00     0.166 HD
ENDROOT
BRANCH   4  11
HETATM   11  S   UNL     1      40.331 -12.099   1.953  1.00  0.00    -0.102 SA
BRANCH  11  12
HETATM   12  C   UNL     1      38.592 -12.636   1.978  1.00  0.00     0.184 C 
BRANCH  12  13
HETATM   13  C   UNL     1      38.257 -13.568   0.808  1.00  0.00     0.231 C 
HETATM   14  N   UNL     1      39.040 -13.388  -0.317  1.00  0.00    -0.326 N 
HETATM   15  H   UNL     1      39.700 -12.617  -0.261  1.00  0.00     0.169 HD
HETATM   16  O   UNL     1      37.377 -14.416   0.937  1.00  0.00    -0.272 OA
BRANCH  14  17
HETATM   17  C   UNL     1      38.985 -14.065  -1.550  1.00  0.00     0.036 A 
HETATM   18  C   UNL     1      37.898 -14.017  -2.424  1.00  0.00     0.053 A 
HETATM   19  C   UNL     1      37.943 -14.720  -3.631  1.00  0.00     0.036 A 
HETATM   20 CL   UNL     1      36.596 -14.664  -4.704  1.00  0.00    -0.084 Cl
HETATM   21  C   UNL     1      39.065 -15.470  -3.982  1.00  0.00     0.024 A 
HETATM   22  C   UNL     1      40.152 -15.522  -3.114  1.00  0.00     0.004 A 
HETATM   23  C   UNL     1      40.110 -14.826  -1.905  1.00  0.00     0.029 A 
ENDBRANCH  14  17
ENDBRANCH  12  13
ENDBRANCH  11  12
ENDBRANCH   4  11
BRANCH   8  24
HETATM   24  C   UNL     1      42.822 -15.067   5.331  1.00  0.00    -0.044 A 
HETATM   25  C   UNL     1      42.790 -15.872   6.482  1.00  0.00     0.008 A 
HETATM   26  C   UNL     1      43.731 -15.696   7.497  1.00  0.00     0.001 A 
HETATM   27  C   UNL     1      44.715 -14.720   7.372  1.00  0.00     0.000 A 
HETATM   28  C   UNL     1      44.765 -13.922   6.230  1.00  0.00     0.001 A 
HETATM   29  C   UNL     1      43.825 -14.092   5.212  1.00  0.00     0.008 A 
ENDBRANCH   8  24
BRANCH   9  30
HETATM   30  C   UNL     1      42.308 -17.581   3.363  1.00  0.00     0.255 C 
HETATM   31  N   UNL     1      43.427 -18.146   2.791  1.00  0.00    -0.321 N 
HETATM   32  H   UNL     1      43.887 -17.622   2.059  1.00  0.00     0.169 HD
HETATM   33  O   UNL     1      41.405 -18.159   3.960  1.00  0.00    -0.268 OA
BRANCH  31  34
HETATM   34  C   UNL     1      43.847 -19.485   2.968  1.00  0.00     0.068 A 
HETATM   35  C   UNL     1      44.482 -19.972   4.128  1.00  0.00     0.095 A 
HETATM   36  C   UNL     1      44.776 -21.339   4.226  1.00  0.00     0.039 A 
HETATM   37  C   UNL     1      44.490 -22.204   3.167  1.00  0.00     0.003 A 
HETATM   38  C   UNL     1      43.938 -21.707   1.991  1.00  0.00     0.002 A 
HETATM   39  C   UNL     1      43.628 -20.352   1.887  1.00  0.00     0.032 A 
BRANCH  35  40
HETATM   40  O   UNL     1      44.908 -19.048   5.048  1.00  0.00    -0.354 OA
HETATM   41  C   UNL     1      44.400 -19.151   6.370  1.00  0.00     0.210 C 
ENDBRANCH  35  40
ENDBRANCH  31  34
ENDBRANCH   9  30
TORSDOF 8
ENDMDL
MODEL 4
REMARK VINA RESULT:      -9.3      2.146      2.521
REMARK  8 active torsions:
REMARK  status: ('A' for Active; 'I' for Inactive)
REMARK    1  A    between atoms: C_4  and  S_5 
REMARK    2  A    between atoms: S_5  and  C_6 
REMARK    3  A    between atoms: C_6  and  C_7 
REMARK       I    between atoms: C_7  and  N_8 
REMARK    4  A    between atoms: N_8  and  C_9 
REMARK    5  A    between atoms: C_20  and  C_21 
REMARK    6  A    between atoms: C_27  and  C_28 
REMARK       I    between atoms: C_28  and  N_29 
REMARK    7  A    between atoms: N_29  and  C_30 
REMARK    8  A    between atoms: C_31  and  O_32 
ROOT
HETATM    1  C   UNL     1      41.001 -16.665   6.627  1.00  0.00     0.069 C 
HETATM    2  C   UNL     1      40.968 -15.411   5.790  1.00  0.00     0.019 C 
HETATM    3  N   UNL     1      40.218 -14.363   6.299  1.00  0.00    -0.353 N 
HETATM    4  C   UNL     1      40.190 -13.084   5.774  1.00  0.00     0.087 C 
HETATM    5  C   UNL     1      40.779 -12.849   4.578  1.00  0.00     0.055 C 
HETATM    6  C   UNL     1      40.567 -11.548   3.821  1.00  0.00     0.019 C 
HETATM    7  N   UNL     1      40.390 -10.469   3.193  1.00  0.00    -0.096 N 
HETATM    8  C   UNL     1      41.563 -13.945   3.847  1.00  0.00     0.104 C 
HETATM    9  C   UNL     1      41.638 -15.247   4.628  1.00  0.00     0.046 C 
HETATM   10  H   UNL     1      39.913 -14.438   7.267  1.00  0.00     0.166 HD
ENDROOT
BRANCH   4  11
HETATM   11  S   UNL     1      39.525 -11.784   6.737  1.00  0.00    -0.102 SA
BRANCH  11  12
HETATM   12  C   UNL     1      41.000 -10.801   7.154  1.00  0.00     0.184 C 
BRANCH  12  13
HETATM   13  C   UNL     1      40.940 -10.246   8.582  1.00  0.00     0.231 C 
HETATM   14  N   UNL     1      41.374 -11.121   9.561  1.00  0.00    -0.326 N 
HETATM   15  H   UNL     1      41.619 -12.049   9.228  1.00  0.00     0.169 HD
HETATM   16  O   UNL     1      40.566  -9.091   8.772  1.00  0.00    -0.272 OA
BRANCH  14  17
HETATM   17  C   UNL     1      41.437 -10.928  10.954  1.00  0.00     0.036 A 
HETATM   18  C   UNL     1      42.457 -10.232  11.604  1.00  0.00     0.053 A 
HETATM   19  C   UNL     1      42.426 -10.088  12.994  1.00  0.00     0.036 A 
HETATM   20 CL   UNL     1      43.690  -9.233  13.794  1.00  0.00    -0.084 Cl
HETATM   21  C   UNL     1      41.384 -10.628  13.747  1.00  0.00     0.024 A 
HETATM   22  C   UNL     1      40.364 -11.324  13.104  1.00  0.00     0.004 A 
HETATM   23  C   UNL     1      40.394 -11.475  11.716  1.00  0.00     0.029 A 
ENDBRANCH  14  17
ENDBRANCH  12  13
ENDBRANCH  11  12
ENDBRANCH   4  11
BRANCH   8  24
HETATM   24  C   UNL     1      41.038 -14.136   2.424  1.00  0.00    -0.044 A 
HETATM   25  C   UNL     1      41.891 -13.894   1.334  1.00  0.00     0.008 A 
HETATM   26  C   UNL     1      41.421 -14.003   0.026  1.00  0.00     0.001 A 
HETATM   27  C   UNL     1      40.095 -14.356  -0.210  1.00  0.00     0.000 A 
HETATM   28  C   UNL     1      39.239 -14.609   0.861  1.00  0.00     0.001 A 
HETATM   29  C   UNL     1      39.705 -14.501   2.173  1.00  0.00     0.008 A 
ENDBRANCH   8  24
BRANCH   9  30
HETATM   30  C   UNL     1      42.706 -16.218   4.250  1.00  0.00     0.255 C 
HETATM   31  N   UNL     1      42.251 -17.510   4.108  1.00  0.00    -0.321 N 
HETATM   32  H   UNL     1      41.355 -17.733   4.518  1.00  0.00     0.169 HD
HETATM   33  O   UNL     1      43.866 -15.826   4.185  1.00  0.00    -0.268 OA
BRANCH  31  34
HETATM   34  C   UNL     1      43.025 -18.602   3.650  1.00  0.00     0.068 A 
HETATM   35  C   UNL     1      43.975 -19.288   4.434  1.00  0.00     0.095 A 
HETATM   36  C   UNL     1      44.621 -20.412   3.901  1.00  0.00     0.039 A 
HETATM   37  C   UNL     1      44.366 -20.821   2.590  1.00  0.00     0.003 A 
HETATM   38  C   UNL     1      43.489 -20.095   1.791  1.00  0.00     0.002 A 
HETATM   39  C   UNL     1      42.830 -18.984   2.315  1.00  0.00     0.032 A 
BRANCH  35  40
HETATM   40  O   UNL     1      44.321 -18.726   5.638  1.00  0.00    -0.354 OA
HETATM   41  C   UNL     1      43.756 -19.288   6.813  1.00  0.00     0.210 C 
ENDBRANCH  35  40
ENDBRANCH  31  34
ENDBRANCH   9  30
TORSDOF 8
ENDMDL
MODEL 5
REMARK VINA RESULT:      -9.0      3.918      9.851
REMARK  8 active torsions:
REMARK  status: ('A' for Active; 'I' for Inactive)
REMARK    1  A    between atoms: C_4  and  S_5 
REMARK    2  A    between atoms: S_5  and  C_6 
REMARK    3  A    between atoms: C_6  and  C_7 
REMARK       I    between atoms: C_7  and  N_8 
REMARK    4  A    between atoms: N_8  and  C_9 
REMARK    5  A    between atoms: C_20  and  C_21 
REMARK    6  A    between atoms: C_27  and  C_28 
REMARK       I    between atoms: C_28  and  N_29 
REMARK    7  A    between atoms: N_29  and  C_30 
REMARK    8  A    between atoms: C_31  and  O_32 
ROOT
HETATM    1  C   UNL     1      38.770 -11.502   4.949  1.00  0.00     0.069 C 
HETATM    2  C   UNL     1      39.999 -12.256   4.508  1.00  0.00     0.019 C 
HETATM    3  N   UNL     1      39.870 -12.997   3.345  1.00  0.00    -0.353 N 
HETATM    4  C   UNL     1      40.913 -13.622   2.687  1.00  0.00     0.087 C 
HETATM    5  C   UNL     1      42.124 -13.691   3.287  1.00  0.00     0.055 C 
HETATM    6  C   UNL     1      43.236 -14.579   2.752  1.00  0.00     0.019 C 
HETATM    7  N   UNL     1      44.157 -15.316   2.308  1.00  0.00    -0.096 N 
HETATM    8  C   UNL     1      42.388 -13.000   4.631  1.00  0.00     0.104 C 
HETATM    9  C   UNL     1      41.190 -12.219   5.146  1.00  0.00     0.046 C 
HETATM   10  H   UNL     1      39.042 -12.829   2.777  1.00  0.00     0.166 HD
ENDROOT
BRANCH   4  11
HETATM   11  S   UNL     1      40.674 -14.174   1.045  1.00  0.00    -0.102 SA
BRANCH  11  12
HETATM   12  C   UNL     1      40.157 -15.904   1.276  1.00  0.00     0.184 C 
BRANCH  12  13
HETATM   13  C   UNL     1      41.347 -16.870   1.268  1.00  0.00     0.231 C 
HETATM   14  N   UNL     1      41.534 -17.568   2.447  1.00  0.00    -0.326 N 
HETATM   15  H   UNL     1      40.902 -17.312   3.201  1.00  0.00     0.169 HD
HETATM   16  O   UNL     1      42.021 -16.999   0.248  1.00  0.00    -0.272 OA
BRANCH  14  17
HETATM   17  C   UNL     1      42.527 -18.512   2.768  1.00  0.00     0.036 A 
HETATM   18  C   UNL     1      42.833 -19.626   1.986  1.00  0.00     0.053 A 
HETATM   19  C   UNL     1      43.844 -20.503   2.388  1.00  0.00     0.036 A 
HETATM   20 CL   UNL     1      44.215 -21.881   1.422  1.00  0.00    -0.084 Cl
HETATM   21  C   UNL     1      44.561 -20.280   3.562  1.00  0.00     0.024 A 
HETATM   22  C   UNL     1      44.260 -19.170   4.348  1.00  0.00     0.004 A 
HETATM   23  C   UNL     1      43.247 -18.294   3.953  1.00  0.00     0.029 A 
ENDBRANCH  14  17
ENDBRANCH  12  13
ENDBRANCH  11  12
ENDBRANCH   4  11
BRANCH   8  24
HETATM   24  C   UNL     1      42.936 -13.992   5.656  1.00  0.00    -0.044 A 
HETATM   25  C   UNL     1      44.187 -13.753   6.249  1.00  0.00     0.008 A 
HETATM   26  C   UNL     1      44.737 -14.672   7.143  1.00  0.00     0.001 A 
HETATM   27  C   UNL     1      44.044 -15.837   7.458  1.00  0.00     0.000 A 
HETATM   28  C   UNL     1      42.797 -16.083   6.886  1.00  0.00     0.001 A 
HETATM   29  C   UNL     1      42.242 -15.167   5.990  1.00  0.00     0.008 A 
ENDBRANCH   8  24
BRANCH   9  30
HETATM   30  C   UNL     1      41.440 -11.174   6.180  1.00  0.00     0.255 C 
HETATM   31  N   UNL     1      41.438 -11.662   7.469  1.00  0.00    -0.321 N 
HETATM   32  H   UNL     1      41.015 -12.567   7.620  1.00  0.00     0.169 HD
HETATM   33  O   UNL     1      41.536 -10.004   5.827  1.00  0.00    -0.268 OA
BRANCH  31  34
HETATM   34  C   UNL     1      41.758 -10.913   8.625  1.00  0.00     0.068 A 
HETATM   35  C   UNL     1      40.850 -10.079   9.308  1.00  0.00     0.095 A 
HETATM   36  C   UNL     1      41.254  -9.452  10.495  1.00  0.00     0.039 A 
HETATM   37  C   UNL     1      42.558  -9.609  10.971  1.00  0.00     0.003 A 
HETATM   38  C   UNL     1      43.477 -10.367  10.253  1.00  0.00     0.002 A 
HETATM   39  C   UNL     1      43.082 -11.007   9.079  1.00  0.00     0.032 A 
BRANCH  35  40
HETATM   40  O   UNL     1      39.653  -9.813   8.692  1.00  0.00    -0.354 OA
HETATM   41  C   UNL     1      38.481  -9.828   9.494  1.00  0.00     0.210 C 
ENDBRANCH  35  40
ENDBRANCH  31  34
ENDBRANCH   9  30
TORSDOF 8
ENDMDL
MODEL 6
REMARK VINA RESULT:      -9.0      4.935      9.701
REMARK  8 active torsions:
REMARK  status: ('A' for Active; 'I' for Inactive)
REMARK    1  A    between atoms: C_4  and  S_5 
REMARK    2  A    between atoms: S_5  and  C_6 
REMARK    3  A    between atoms: C_6  and  C_7 
REMARK       I    between atoms: C_7  and  N_8 
REMARK    4  A    between atoms: N_8  and  C_9 
REMARK    5  A    between atoms: C_20  and  C_21 
REMARK    6  A    between atoms: C_27  and  C_28 
REMARK       I    between atoms: C_28  and  N_29 
REMARK    7  A    between atoms: N_29  and  C_30 
REMARK    8  A    between atoms: C_31  and  O_32 
ROOT
HETATM    1  C   UNL     1      39.370 -15.449   1.477  1.00  0.00     0.069 C 
HETATM    2  C   UNL     1      39.995 -14.558   2.521  1.00  0.00     0.019 C 
HETATM    3  N   UNL     1      40.253 -15.151   3.746  1.00  0.00    -0.353 N 
HETATM    4  C   UNL     1      40.965 -14.561   4.774  1.00  0.00     0.087 C 
HETATM    5  C   UNL     1      41.291 -13.250   4.683  1.00  0.00     0.055 C 
HETATM    6  C   UNL     1      41.836 -12.474   5.871  1.00  0.00     0.019 C 
HETATM    7  N   UNL     1      42.286 -11.831   6.857  1.00  0.00    -0.096 N 
HETATM    8  C   UNL     1      40.979 -12.438   3.421  1.00  0.00     0.104 C 
HETATM    9  C   UNL     1      40.340 -13.267   2.319  1.00  0.00     0.046 C 
HETATM   10  H   UNL     1      40.188 -16.165   3.794  1.00  0.00     0.166 HD
ENDROOT
BRANCH   4  11
HETATM   11  S   UNL     1      41.547 -15.559   6.087  1.00  0.00    -0.102 SA
BRANCH  11  12
HETATM   12  C   UNL     1      43.104 -16.227   5.423  1.00  0.00     0.184 C 
BRANCH  12  13
HETATM   13  C   UNL     1      42.937 -17.649   4.875  1.00  0.00     0.231 C 
HETATM   14  N   UNL     1      44.075 -18.432   4.943  1.00  0.00    -0.326 N 
HETATM   15  H   UNL     1      44.903 -17.955   5.287  1.00  0.00     0.169 HD
HETATM   16  O   UNL     1      41.841 -18.017   4.459  1.00  0.00    -0.272 OA
BRANCH  14  17
HETATM   17  C   UNL     1      44.258 -19.763   4.522  1.00  0.00     0.036 A 
HETATM   18  C   UNL     1      44.181 -20.183   3.194  1.00  0.00     0.053 A 
HETATM   19  C   UNL     1      44.387 -21.528   2.876  1.00  0.00     0.036 A 
HETATM   20 CL   UNL     1      44.285 -22.045   1.235  1.00  0.00    -0.084 Cl
HETATM   21  C   UNL     1      44.673 -22.463   3.869  1.00  0.00     0.024 A 
HETATM   22  C   UNL     1      44.751 -22.050   5.196  1.00  0.00     0.004 A 
HETATM   23  C   UNL     1      44.541 -20.708   5.520  1.00  0.00     0.029 A 
ENDBRANCH  14  17
ENDBRANCH  12  13
ENDBRANCH  11  12
ENDBRANCH   4  11
BRANCH   8  24
HETATM   24  C   UNL     1      40.173 -11.184   3.764  1.00  0.00    -0.044 A 
HETATM   25  C   UNL     1      38.815 -11.306   4.100  1.00  0.00     0.008 A 
HETATM   26  C   UNL     1      38.043 -10.174   4.359  1.00  0.00     0.001 A 
HETATM   27  C   UNL     1      38.618  -8.908   4.289  1.00  0.00     0.000 A 
HETATM   28  C   UNL     1      39.968  -8.772   3.967  1.00  0.00     0.001 A 
HETATM   29  C   UNL     1      40.745  -9.902   3.706  1.00  0.00     0.008 A 
ENDBRANCH   8  24
BRANCH   9  30
HETATM   30  C   UNL     1      40.391 -12.726   0.930  1.00  0.00     0.255 C 
HETATM   31  N   UNL     1      41.594 -12.945   0.296  1.00  0.00    -0.321 N 
HETATM   32  H   UNL     1      42.386 -13.183   0.878  1.00  0.00     0.169 HD
HETATM   33  O   UNL     1      39.435 -12.082   0.511  1.00  0.00    -0.268 OA
BRANCH  31  34
HETATM   34  C   UNL     1      41.873 -12.637  -1.056  1.00  0.00     0.068 A 
HETATM   35  C   UNL     1      41.537 -13.465  -2.145  1.00  0.00     0.095 A 
HETATM   36  C   UNL     1      41.785 -13.016  -3.449  1.00  0.00     0.039 A 
HETATM   37  C   UNL     1      42.405 -11.785  -3.670  1.00  0.00     0.003 A 
HETATM   38  C   UNL     1      42.810 -11.005  -2.592  1.00  0.00     0.002 A 
HETATM   39  C   UNL     1      42.555 -11.434  -1.290  1.00  0.00     0.032 A 
BRANCH  35  40
HETATM   40  O   UNL     1      41.109 -14.738  -1.860  1.00  0.00    -0.354 OA
HETATM   41  C   UNL     1      40.996 -15.653  -2.940  1.00  0.00     0.210 C 
ENDBRANCH  35  40
ENDBRANCH  31  34
ENDBRANCH   9  30
TORSDOF 8
ENDMDL
MODEL 7
REMARK VINA RESULT:      -8.9      4.149      9.546
REMARK  8 active torsions:
REMARK  status: ('A' for Active; 'I' for Inactive)
REMARK    1  A    between atoms: C_4  and  S_5 
REMARK    2  A    between atoms: S_5  and  C_6 
REMARK    3  A    between atoms: C_6  and  C_7 
REMARK       I    between atoms: C_7  and  N_8 
REMARK    4  A    between atoms: N_8  and  C_9 
REMARK    5  A    between atoms: C_20  and  C_21 
REMARK    6  A    between atoms: C_27  and  C_28 
REMARK       I    between atoms: C_28  and  N_29 
REMARK    7  A    between atoms: N_29  and  C_30 
REMARK    8  A    between atoms: C_31  and  O_32 
ROOT
HETATM    1  C   UNL     1      40.810 -13.017   5.019  1.00  0.00     0.069 C 
HETATM    2  C   UNL     1      41.450 -14.325   4.628  1.00  0.00     0.019 C 
HETATM    3  N   UNL     1      40.731 -15.111   3.743  1.00  0.00    -0.353 N 
HETATM    4  C   UNL     1      41.210 -16.259   3.138  1.00  0.00     0.087 C 
HETATM    5  C   UNL     1      42.388 -16.781   3.552  1.00  0.00     0.055 C 
HETATM    6  C   UNL     1      42.846 -18.166   3.126  1.00  0.00     0.019 C 
HETATM    7  N   UNL     1      43.226 -19.314   2.772  1.00  0.00    -0.096 N 
HETATM    8  C   UNL     1      43.249 -16.069   4.602  1.00  0.00     0.104 C 
HETATM    9  C   UNL     1      42.665 -14.739   5.052  1.00  0.00     0.046 C 
HETATM   10  H   UNL     1      39.937 -14.678   3.277  1.00  0.00     0.166 HD
ENDROOT
BRANCH   4  11
HETATM   11  S   UNL     1      40.352 -16.915   1.762  1.00  0.00    -0.102 SA
BRANCH  11  12
HETATM   12  C   UNL     1      41.439 -16.480   0.369  1.00  0.00     0.184 C 
BRANCH  12  13
HETATM   13  C   UNL     1      41.267 -15.020  -0.067  1.00  0.00     0.231 C 
HETATM   14  N   UNL     1      41.904 -14.690  -1.249  1.00  0.00    -0.326 N 
HETATM   15  H   UNL     1      42.465 -15.433  -1.655  1.00  0.00     0.169 HD
HETATM   16  O   UNL     1      40.570 -14.262   0.604  1.00  0.00    -0.272 OA
BRANCH  14  17
HETATM   17  C   UNL     1      41.952 -13.449  -1.911  1.00  0.00     0.036 A 
HETATM   18  C   UNL     1      42.719 -12.363  -1.488  1.00  0.00     0.053 A 
HETATM   19  C   UNL     1      42.705 -11.172  -2.220  1.00  0.00     0.036 A 
HETATM   20 CL   UNL     1      43.650  -9.832  -1.692  1.00  0.00    -0.084 Cl
HETATM   21  C   UNL     1      41.933 -11.051  -3.375  1.00  0.00     0.024 A 
HETATM   22  C   UNL     1      41.165 -12.130  -3.801  1.00  0.00     0.004 A 
HETATM   23  C   UNL     1      41.172 -13.320  -3.070  1.00  0.00     0.029 A 
ENDBRANCH  14  17
ENDBRANCH  12  13
ENDBRANCH  11  12
ENDBRANCH   4  11
BRANCH   8  24
HETATM   24  C   UNL     1      43.569 -17.002   5.770  1.00  0.00    -0.044 A 
HETATM   25  C   UNL     1      42.693 -17.065   6.866  1.00  0.00     0.008 A 
HETATM   26  C   UNL     1      42.992 -17.863   7.970  1.00  0.00     0.001 A 
HETATM   27  C   UNL     1      44.166 -18.610   7.990  1.00  0.00     0.000 A 
HETATM   28  C   UNL     1      45.040 -18.567   6.905  1.00  0.00     0.001 A 
HETATM   29  C   UNL     1      44.747 -17.768   5.799  1.00  0.00     0.008 A 
ENDBRANCH   8  24
BRANCH   9  30
HETATM   30  C   UNL     1      43.586 -13.770   5.713  1.00  0.00     0.255 C 
HETATM   31  N   UNL     1      43.197 -13.421   6.987  1.00  0.00    -0.321 N 
HETATM   32  H   UNL     1      42.239 -13.613   7.248  1.00  0.00     0.169 HD
HETATM   33  O   UNL     1      44.524 -13.312   5.069  1.00  0.00    -0.268 OA
BRANCH  31  34
HETATM   34  C   UNL     1      43.942 -12.610   7.875  1.00  0.00     0.068 A 
HETATM   35  C   UNL     1      43.440 -11.454   8.507  1.00  0.00     0.095 A 
HETATM   36  C   UNL     1      44.243 -10.778   9.436  1.00  0.00     0.039 A 
HETATM   37  C   UNL     1      45.545 -11.212   9.697  1.00  0.00     0.003 A 
HETATM   38  C   UNL     1      46.067 -12.304   9.012  1.00  0.00     0.002 A 
HETATM   39  C   UNL     1      45.273 -12.994   8.097  1.00  0.00     0.032 A 
BRANCH  35  40
HETATM   40  O   UNL     1      42.233 -10.971   8.069  1.00  0.00    -0.354 OA
HETATM   41  C   UNL     1      41.302 -10.537   9.049  1.00  0.00     0.210 C 
ENDBRANCH  35  40
ENDBRANCH  31  34
ENDBRANCH   9  30
TORSDOF 8
ENDMDL
MODEL 8
REMARK VINA RESULT:      -8.9      3.274      6.115
REMARK  8 active torsions:
REMARK  status: ('A' for Active; 'I' for Inactive)
REMARK    1  A    between atoms: C_4  and  S_5 
REMARK    2  A    between atoms: S_5  and  C_6 
REMARK    3  A    between atoms: C_6  and  C_7 
REMARK       I    between atoms: C_7  and  N_8 
REMARK    4  A    between atoms: N_8  and  C_9 
REMARK    5  A    between atoms: C_20  and  C_21 
REMARK    6  A    between atoms: C_27  and  C_28 
REMARK       I    between atoms: C_28  and  N_29 
REMARK    7  A    between atoms: N_29  and  C_30 
REMARK    8  A    between atoms: C_31  and  O_32 
ROOT
HETATM    1  C   UNL     1      41.533 -11.774   1.463  1.00  0.00     0.069 C 
HETATM    2  C   UNL     1      41.693 -12.919   2.431  1.00  0.00     0.019 C 
HETATM    3  N   UNL     1      42.249 -12.601   3.659  1.00  0.00    -0.353 N 
HETATM    4  C   UNL     1      42.330 -13.464   4.737  1.00  0.00     0.087 C 
HETATM    5  C   UNL     1      42.022 -14.770   4.560  1.00  0.00     0.055 C 
HETATM    6  C   UNL     1      42.335 -15.818   5.616  1.00  0.00     0.019 C 
HETATM    7  N   UNL     1      42.595 -16.686   6.491  1.00  0.00    -0.096 N 
HETATM    8  C   UNL     1      41.487 -15.288   3.220  1.00  0.00     0.104 C 
HETATM    9  C   UNL     1      41.301 -14.190   2.186  1.00  0.00     0.046 C 
HETATM   10  H   UNL     1      42.326 -11.613   3.891  1.00  0.00     0.166 HD
ENDROOT
BRANCH   4  11
HETATM   11  S   UNL     1      42.686 -12.814   6.321  1.00  0.00    -0.102 SA
BRANCH  11  12
HETATM   12  C   UNL     1      41.708 -11.278   6.352  1.00  0.00     0.184 C 
BRANCH  12  13
HETATM   13  C   UNL     1      41.946 -10.466   7.630  1.00  0.00     0.231 C 
HETATM   14  N   UNL     1      42.326 -11.214   8.729  1.00  0.00    -0.326 N 
HETATM   15  H   UNL     1      42.339 -12.219   8.579  1.00  0.00     0.169 HD
HETATM   16  O   UNL     1      41.832  -9.242   7.604  1.00  0.00    -0.272 OA
BRANCH  14  17
HETATM   17  C   UNL     1      42.608 -10.782  10.038  1.00  0.00     0.036 A 
HETATM   18  C   UNL     1      41.646 -10.314  10.935  1.00  0.00     0.053 A 
HETATM   19  C   UNL     1      42.026  -9.914  12.218  1.00  0.00     0.036 A 
HETATM   20 CL   UNL     1      40.836  -9.331  13.320  1.00  0.00    -0.084 Cl
HETATM   21  C   UNL     1      43.358  -9.977  12.623  1.00  0.00     0.024 A 
HETATM   22  C   UNL     1      44.323 -10.442  11.733  1.00  0.00     0.004 A 
HETATM   23  C   UNL     1      43.949 -10.838  10.448  1.00  0.00     0.029 A 
ENDBRANCH  14  17
ENDBRANCH  12  13
ENDBRANCH  11  12
ENDBRANCH   4  11
BRANCH   8  24
HETATM   24  C   UNL     1      42.335 -16.451   2.706  1.00  0.00    -0.044 A 
HETATM   25  C   UNL     1      41.921 -17.771   2.951  1.00  0.00     0.008 A 
HETATM   26  C   UNL     1      42.706 -18.849   2.546  1.00  0.00     0.001 A 
HETATM   27  C   UNL     1      43.912 -18.623   1.887  1.00  0.00     0.000 A 
HETATM   28  C   UNL     1      44.331 -17.319   1.627  1.00  0.00     0.001 A 
HETATM   29  C   UNL     1      43.549 -16.236   2.033  1.00  0.00     0.008 A 
ENDBRANCH   8  24
BRANCH   9  30
HETATM   30  C   UNL     1      40.402 -14.474   1.031  1.00  0.00     0.255 C 
HETATM   31  N   UNL     1      40.990 -14.249  -0.195  1.00  0.00    -0.321 N 
HETATM   32  H   UNL     1      41.825 -13.680  -0.209  1.00  0.00     0.169 HD
HETATM   33  O   UNL     1      39.237 -14.786   1.251  1.00  0.00    -0.268 OA
BRANCH  31  34
HETATM   34  C   UNL     1      40.404 -14.542  -1.448  1.00  0.00     0.068 A 
HETATM   35  C   UNL     1      39.525 -13.681  -2.136  1.00  0.00     0.095 A 
HETATM   36  C   UNL     1      39.074 -14.040  -3.413  1.00  0.00     0.039 A 
HETATM   37  C   UNL     1      39.447 -15.260  -3.980  1.00  0.00     0.003 A 
HETATM   38  C   UNL     1      40.247 -16.146  -3.266  1.00  0.00     0.002 A 
HETATM   39  C   UNL     1      40.715 -15.793  -2.001  1.00  0.00     0.032 A 
BRANCH  35  40
HETATM   40  O   UNL     1      39.046 -12.593  -1.451  1.00  0.00    -0.354 OA
HETATM   41  C   UNL     1      37.690 -12.623  -1.031  1.00  0.00     0.210 C 
ENDBRANCH  35  40
ENDBRANCH  31  34
ENDBRANCH   9  30
TORSDOF 8
ENDMDL
MODEL 9
REMARK VINA RESULT:      -8.8      4.718      7.978
REMARK  8 active torsions:
REMARK  status: ('A' for Active; 'I' for Inactive)
REMARK    1  A    between atoms: C_4  and  S_5 
REMARK    2  A    between atoms: S_5  and  C_6 
REMARK    3  A    between atoms: C_6  and  C_7 
REMARK       I    between atoms: C_7  and  N_8 
REMARK    4  A    between atoms: N_8  and  C_9 
REMARK    5  A    between atoms: C_20  and  C_21 
REMARK    6  A    between atoms: C_27  and  C_28 
REMARK       I    between atoms: C_28  and  N_29 
REMARK    7  A    between atoms: N_29  and  C_30 
REMARK    8  A    between atoms: C_31  and  O_32 
ROOT
HETATM    1  C   UNL     1      41.323 -16.273   0.914  1.00  0.00     0.069 C 
HETATM    2  C   UNL     1      41.137 -15.547   2.221  1.00  0.00     0.019 C 
HETATM    3  N   UNL     1      40.541 -14.298   2.141  1.00  0.00    -0.353 N 
HETATM    4  C   UNL     1      40.134 -13.546   3.228  1.00  0.00     0.087 C 
HETATM    5  C   UNL     1      40.490 -13.940   4.473  1.00  0.00     0.055 C 
HETATM    6  C   UNL     1      40.309 -13.038   5.683  1.00  0.00     0.019 C 
HETATM    7  N   UNL     1      40.159 -12.289   6.685  1.00  0.00    -0.096 N 
HETATM    8  C   UNL     1      41.242 -15.256   4.707  1.00  0.00     0.104 C 
HETATM    9  C   UNL     1      41.473 -16.047   3.431  1.00  0.00     0.046 C 
HETATM   10  H   UNL     1      40.104 -14.049   1.257  1.00  0.00     0.166 HD
ENDROOT
BRANCH   4  11
HETATM   11  S   UNL     1      39.055 -12.194   2.969  1.00  0.00    -0.102 SA
BRANCH  11  12
HETATM   12  C   UNL     1      40.147 -10.949   2.216  1.00  0.00     0.184 C 
BRANCH  12  13
HETATM   13  C   UNL     1      40.147 -11.028   0.685  1.00  0.00     0.231 C 
HETATM   14  N   UNL     1      41.393 -11.217   0.115  1.00  0.00    -0.326 N 
HETATM   15  H   UNL     1      42.168 -11.215   0.771  1.00  0.00     0.169 HD
HETATM   16  O   UNL     1      39.084 -10.964   0.071  1.00  0.00    -0.272 OA
BRANCH  14  17
HETATM   17  C   UNL     1      41.736 -11.322  -1.246  1.00  0.00     0.036 A 
HETATM   18  C   UNL     1      41.905 -10.230  -2.099  1.00  0.00     0.053 A 
HETATM   19  C   UNL     1      42.253 -10.438  -3.437  1.00  0.00     0.036 A 
HETATM   20 CL   UNL     1      42.455  -9.089  -4.488  1.00  0.00    -0.084 Cl
HETATM   21  C   UNL     1      42.441 -11.726  -3.936  1.00  0.00     0.024 A 
HETATM   22  C   UNL     1      42.273 -12.820  -3.090  1.00  0.00     0.004 A 
HETATM   23  C   UNL     1      41.919 -12.617  -1.754  1.00  0.00     0.029 A 
ENDBRANCH  14  17
ENDBRANCH  12  13
ENDBRANCH  11  12
ENDBRANCH   4  11
BRANCH   8  24
HETATM   24  C   UNL     1      42.527 -15.016   5.500  1.00  0.00    -0.044 A 
HETATM   25  C   UNL     1      42.783 -15.782   6.650  1.00  0.00     0.008 A 
HETATM   26  C   UNL     1      43.919 -15.543   7.424  1.00  0.00     0.001 A 
HETATM   27  C   UNL     1      44.812 -14.541   7.057  1.00  0.00     0.000 A 
HETATM   28  C   UNL     1      44.577 -13.780   5.913  1.00  0.00     0.001 A 
HETATM   29  C   UNL     1      43.441 -14.014   5.135  1.00  0.00     0.008 A 
ENDBRANCH   8  24
BRANCH   9  30
HETATM   30  C   UNL     1      41.786 -17.499   3.566  1.00  0.00     0.255 C 
HETATM   31  N   UNL     1      42.931 -17.881   2.903  1.00  0.00    -0.321 N 
HETATM   32  H   UNL     1      43.286 -17.254   2.194  1.00  0.00     0.169 HD
HETATM   33  O   UNL     1      40.991 -18.224   4.156  1.00  0.00    -0.268 OA
BRANCH  31  34
HETATM   34  C   UNL     1      43.515 -19.169   2.956  1.00  0.00     0.068 A 
HETATM   35  C   UNL     1      44.306 -19.638   4.024  1.00  0.00     0.095 A 
HETATM   36  C   UNL     1      44.761 -20.964   4.008  1.00  0.00     0.039 A 
HETATM   37  C   UNL     1      44.479 -21.798   2.924  1.00  0.00     0.003 A 
HETATM   38  C   UNL     1      43.768 -21.308   1.834  1.00  0.00     0.002 A 
HETATM   39  C   UNL     1      43.297 -19.995   1.845  1.00  0.00     0.032 A 
BRANCH  35  40
HETATM   40  O   UNL     1      44.707 -18.720   4.962  1.00  0.00    -0.354 OA
HETATM   41  C   UNL     1      44.523 -19.053   6.330  1.00  0.00     0.210 C 
ENDBRANCH  35  40
ENDBRANCH  31  34
ENDBRANCH   9  30
TORSDOF 8
ENDMDL
MODEL 10
REMARK VINA RESULT:      -8.7      2.540      3.493
REMARK  8 active torsions:
REMARK  status: ('A' for Active; 'I' for Inactive)
REMARK    1  A    between atoms: C_4  and  S_5 
REMARK    2  A    between atoms: S_5  and  C_6 
REMARK    3  A    between atoms: C_6  and  C_7 
REMARK       I    between atoms: C_7  and  N_8 
REMARK    4  A    between atoms: N_8  and  C_9 
REMARK    5  A    between atoms: C_20  and  C_21 
REMARK    6  A    between atoms: C_27  and  C_28 
REMARK       I    between atoms: C_28  and  N_29 
REMARK    7  A    between atoms: N_29  and  C_30 
REMARK    8  A    between atoms: C_31  and  O_32 
ROOT
HETATM    1  C   UNL     1      40.735 -15.694   6.261  1.00  0.00     0.069 C 
HETATM    2  C   UNL     1      40.744 -14.466   5.386  1.00  0.00     0.019 C 
HETATM    3  N   UNL     1      40.059 -13.367   5.879  1.00  0.00    -0.353 N 
HETATM    4  C   UNL     1      40.083 -12.104   5.315  1.00  0.00     0.087 C 
HETATM    5  C   UNL     1      40.655 -11.935   4.100  1.00  0.00     0.055 C 
HETATM    6  C   UNL     1      40.490 -10.649   3.307  1.00  0.00     0.019 C 
HETATM    7  N   UNL     1      40.352  -9.582   2.650  1.00  0.00    -0.096 N 
HETATM    8  C   UNL     1      41.365 -13.091   3.386  1.00  0.00     0.104 C 
HETATM    9  C   UNL     1      41.394 -14.372   4.205  1.00  0.00     0.046 C 
HETATM   10  H   UNL     1      39.774 -13.397   6.855  1.00  0.00     0.166 HD
ENDROOT
BRANCH   4  11
HETATM   11  S   UNL     1      39.507 -10.745   6.252  1.00  0.00    -0.102 SA
BRANCH  11  12
HETATM   12  C   UNL     1      39.560 -11.382   7.956  1.00  0.00     0.184 C 
BRANCH  12  13
HETATM   13  C   UNL     1      40.451 -10.528   8.866  1.00  0.00     0.231 C 
HETATM   14  N   UNL     1      40.811 -11.133  10.056  1.00  0.00    -0.326 N 
HETATM   15  H   UNL     1      40.390 -12.044  10.217  1.00  0.00     0.169 HD
HETATM   16  O   UNL     1      40.816  -9.416   8.491  1.00  0.00    -0.272 OA
BRANCH  14  17
HETATM   17  C   UNL     1      41.602 -10.624  11.103  1.00  0.00     0.036 A 
HETATM   18  C   UNL     1      41.101  -9.896  12.182  1.00  0.00     0.053 A 
HETATM   19  C   UNL     1      41.969  -9.438  13.177  1.00  0.00     0.036 A 
HETATM   20 CL   UNL     1      41.348  -8.534  14.506  1.00  0.00    -0.084 Cl
HETATM   21  C   UNL     1      43.337  -9.702  13.111  1.00  0.00     0.024 A 
HETATM   22  C   UNL     1      43.843 -10.428  12.036  1.00  0.00     0.004 A 
HETATM   23  C   UNL     1      42.980 -10.882  11.037  1.00  0.00     0.029 A 
ENDBRANCH  14  17
ENDBRANCH  12  13
ENDBRANCH  11  12
ENDBRANCH   4  11
BRANCH   8  24
HETATM   24  C   UNL     1      40.798 -13.297   1.981  1.00  0.00    -0.044 A 
HETATM   25  C   UNL     1      41.567 -12.929   0.865  1.00  0.00     0.008 A 
HETATM   26  C   UNL     1      41.050 -13.051  -0.425  1.00  0.00     0.001 A 
HETATM   27  C   UNL     1      39.763 -13.545  -0.615  1.00  0.00     0.000 A 
HETATM   28  C   UNL     1      38.992 -13.925   0.483  1.00  0.00     0.001 A 
HETATM   29  C   UNL     1      39.504 -13.803   1.776  1.00  0.00     0.008 A 
ENDBRANCH   8  24
BRANCH   9  30
HETATM   30  C   UNL     1      42.403 -15.405   3.834  1.00  0.00     0.255 C 
HETATM   31  N   UNL     1      41.885 -16.680   3.758  1.00  0.00    -0.321 N 
HETATM   32  H   UNL     1      40.993 -16.844   4.205  1.00  0.00     0.169 HD
HETATM   33  O   UNL     1      43.578 -15.071   3.718  1.00  0.00    -0.268 OA
BRANCH  31  34
HETATM   34  C   UNL     1      42.592 -17.824   3.321  1.00  0.00     0.068 A 
HETATM   35  C   UNL     1      42.508 -18.363   2.021  1.00  0.00     0.095 A 
HETATM   36  C   UNL     1      43.322 -19.450   1.676  1.00  0.00     0.039 A 
HETATM   37  C   UNL     1      44.171 -20.029   2.621  1.00  0.00     0.003 A 
HETATM   38  C   UNL     1      44.193 -19.548   3.927  1.00  0.00     0.002 A 
HETATM   39  C   UNL     1      43.399 -18.457   4.278  1.00  0.00     0.032 A 
BRANCH  35  40
HETATM   40  O   UNL     1      41.522 -17.875   1.201  1.00  0.00    -0.354 OA
HETATM   41  C   UNL     1      41.829 -16.742   0.403  1.00  0.00     0.210 C 
ENDBRANCH  35  40
ENDBRANCH  31  34
ENDBRANCH   9  30
TORSDOF 8
ENDMDL
