MODEL 1
REMARK VINA RESULT:      -8.6      0.000      0.000
REMARK  9 active torsions:
REMARK  status: ('A' for Active; 'I' for Inactive)
REMARK    1  A    between atoms: N_6  and  C_7 
REMARK    2  A    between atoms: C_9  and  S_10 
REMARK    3  A    between atoms: S_10  and  C_11 
REMARK    4  A    between atoms: C_11  and  C_12 
REMARK    5  A    between atoms: C_14  and  C_15 
REMARK       I    between atoms: C_15  and  N_16 
REMARK    6  A    between atoms: N_16  and  C_17 
REMARK    7  A    between atoms: C_17  and  C_18 
REMARK    8  A    between atoms: C_18  and  N_19 
REMARK    9  A    between atoms: C_27  and  C_28 
ROOT
HETATM    1  C   UNL     1      43.661 -17.848   2.682  1.00  0.00     0.130 A 
HETATM    2  N   UNL     1      43.950 -17.599   3.971  1.00  0.00    -0.205 NA
HETATM    3  C   UNL     1      44.357 -18.620   4.746  1.00  0.00     0.191 A 
HETATM    4  N   UNL     1      44.414 -19.893   4.348  1.00  0.00    -0.218 NA
HETATM    5  C   UNL     1      44.117 -20.149   3.055  1.00  0.00     0.146 A 
HETATM    6  C   UNL     1      43.750 -19.136   2.185  1.00  0.00     0.087 A 
ENDROOT
BRANCH   3   7
HETATM    7  S   UNL     1      44.908 -18.236   6.390  1.00  0.00    -0.084 SA
BRANCH   7   8
HETATM    8  C   UNL     1      43.575 -17.088   6.840  1.00  0.00     0.147 C 
BRANCH   8   9
HETATM    9  C   UNL     1      43.981 -15.659   6.789  1.00  0.00     0.063 A 
HETATM   10  O   UNL     1      44.060 -14.985   7.975  1.00  0.00    -0.309 OA
HETATM   11  C   UNL     1      44.628 -13.766   7.710  1.00  0.00     0.143 A 
HETATM   12  C   UNL     1      44.868 -13.649   6.357  1.00  0.00     0.045 A 
HETATM   13  C   UNL     1      44.428 -14.854   5.761  1.00  0.00     0.036 A 
BRANCH  11  14
HETATM   14  C   UNL     1      44.922 -12.878   8.807  1.00  0.00     0.275 C 
HETATM   15  N   UNL     1      43.941 -12.791   9.772  1.00  0.00    -0.354 N 
HETATM   16  H   UNL     1      43.072 -13.280   9.564  1.00  0.00     0.162 HD
HETATM   17  O   UNL     1      45.973 -12.251   8.944  1.00  0.00    -0.265 OA
BRANCH  15  18
HETATM   18  C   UNL     1      43.951 -11.764  10.804  1.00  0.00     0.150 C 
BRANCH  18  19
HETATM   19  C   UNL     1      42.746 -10.805  10.747  1.00  0.00     0.253 C 
BRANCH  19  20
HETATM   20  N   UNL     1      41.453 -11.471  11.173  1.00  0.00    -0.077 N 
HETATM   21  H   UNL     1      41.548 -12.485  10.965  1.00  0.00     0.279 HD
HETATM   22  C   UNL     1      41.212 -11.428  12.653  1.00  0.00     0.269 C 
HETATM   23  C   UNL     1      40.270 -10.977  10.398  1.00  0.00     0.269 C 
ENDBRANCH  19  20
ENDBRANCH  18  19
ENDBRANCH  15  18
ENDBRANCH  11  14
ENDBRANCH   8   9
ENDBRANCH   7   8
ENDBRANCH   3   7
BRANCH   1  24
HETATM   24  N   UNL     1      43.342 -16.772   1.849  1.00  0.00    -0.362 N 
HETATM   25  C   UNL     1      43.089 -15.483   2.532  1.00  0.00     0.152 C 
HETATM   26  C   UNL     1      41.608 -15.358   2.947  1.00  0.00     0.254 C 
HETATM   27  N   UNL     1      40.707 -15.547   1.717  1.00  0.00    -0.072 N 
HETATM   28  C   UNL     1      39.255 -15.376   2.043  1.00  0.00     0.269 C 
HETATM   29  H   UNL     1      40.957 -14.804   1.051  1.00  0.00     0.279 HD
HETATM   30  C   UNL     1      40.989 -16.883   1.033  1.00  0.00     0.254 C 
HETATM   31  C   UNL     1      42.487 -17.000   0.668  1.00  0.00     0.152 C 
ENDBRANCH   1  24
BRANCH   5  32
HETATM   32  C   UNL     1      44.188 -21.577   2.537  1.00  0.00     0.434 C 
HETATM   33  F   UNL     1      45.254 -21.818   1.729  1.00  0.00    -0.165 F 
HETATM   34  F   UNL     1      44.269 -22.479   3.556  1.00  0.00    -0.165 F 
HETATM   35  F   UNL     1      43.081 -21.922   1.823  1.00  0.00    -0.165 F 
ENDBRANCH   5  32
TORSDOF 9
ENDMDL
MODEL 2
REMARK VINA RESULT:      -8.3      2.359      2.804
REMARK  9 active torsions:
REMARK  status: ('A' for Active; 'I' for Inactive)
REMARK    1  A    between atoms: N_6  and  C_7 
REMARK    2  A    between atoms: C_9  and  S_10 
REMARK    3  A    between atoms: S_10  and  C_11 
REMARK    4  A    between atoms: C_11  and  C_12 
REMARK    5  A    between atoms: C_14  and  C_15 
REMARK       I    between atoms: C_15  and  N_16 
REMARK    6  A    between atoms: N_16  and  C_17 
REMARK    7  A    between atoms: C_17  and  C_18 
REMARK    8  A    between atoms: C_18  and  N_19 
REMARK    9  A    between atoms: C_27  and  C_28 
ROOT
HETATM    1  C   UNL     1      43.717 -17.944   2.664  1.00  0.00     0.130 A 
HETATM    2  N   UNL     1      43.956 -17.770   3.976  1.00  0.00    -0.205 NA
HETATM    3  C   UNL     1      44.302 -18.841   4.712  1.00  0.00     0.191 A 
HETATM    4  N   UNL     1      44.342 -20.093   4.250  1.00  0.00    -0.218 NA
HETATM    5  C   UNL     1      44.094 -20.273   2.935  1.00  0.00     0.146 A 
HETATM    6  C   UNL     1      43.792 -19.206   2.104  1.00  0.00     0.087 A 
ENDROOT
BRANCH   3   7
HETATM    7  S   UNL     1      44.792 -18.558   6.396  1.00  0.00    -0.084 SA
BRANCH   7   8
HETATM    8  C   UNL     1      43.399 -17.502   6.888  1.00  0.00     0.147 C 
BRANCH   8   9
HETATM    9  C   UNL     1      43.626 -16.058   6.618  1.00  0.00     0.063 A 
HETATM   10  O   UNL     1      42.572 -15.335   6.134  1.00  0.00    -0.309 OA
HETATM   11  C   UNL     1      42.948 -14.017   6.144  1.00  0.00     0.143 A 
HETATM   12  C   UNL     1      44.249 -13.907   6.589  1.00  0.00     0.045 A 
HETATM   13  C   UNL     1      44.694 -15.221   6.869  1.00  0.00     0.036 A 
BRANCH  11  14
HETATM   14  C   UNL     1      41.984 -13.013   5.771  1.00  0.00     0.275 C 
HETATM   15  N   UNL     1      40.930 -12.854   6.646  1.00  0.00    -0.354 N 
HETATM   16  H   UNL     1      40.886 -13.527   7.409  1.00  0.00     0.162 HD
HETATM   17  O   UNL     1      42.067 -12.291   4.775  1.00  0.00    -0.265 OA
BRANCH  15  18
HETATM   18  C   UNL     1      39.744 -12.080   6.307  1.00  0.00     0.150 C 
BRANCH  18  19
HETATM   19  C   UNL     1      39.616 -10.756   7.087  1.00  0.00     0.253 C 
BRANCH  19  20
HETATM   20  N   UNL     1      40.033  -9.554   6.264  1.00  0.00    -0.077 N 
HETATM   21  H   UNL     1      39.524  -8.732   6.644  1.00  0.00     0.279 HD
HETATM   22  C   UNL     1      41.479  -9.187   6.424  1.00  0.00     0.269 C 
HETATM   23  C   UNL     1      39.642  -9.681   4.823  1.00  0.00     0.269 C 
ENDBRANCH  19  20
ENDBRANCH  18  19
ENDBRANCH  15  18
ENDBRANCH  11  14
ENDBRANCH   8   9
ENDBRANCH   7   8
ENDBRANCH   3   7
BRANCH   1  24
HETATM   24  N   UNL     1      43.463 -16.817   1.877  1.00  0.00    -0.362 N 
HETATM   25  C   UNL     1      43.173 -15.568   2.617  1.00  0.00     0.152 C 
HETATM   26  C   UNL     1      41.668 -15.452   2.936  1.00  0.00     0.254 C 
HETATM   27  N   UNL     1      40.852 -15.558   1.640  1.00  0.00    -0.072 N 
HETATM   28  C   UNL     1      39.382 -15.390   1.876  1.00  0.00     0.269 C 
HETATM   29  H   UNL     1      41.152 -14.781   1.036  1.00  0.00     0.279 HD
HETATM   30  C   UNL     1      41.171 -16.855   0.898  1.00  0.00     0.254 C 
HETATM   31  C   UNL     1      42.689 -16.967   0.629  1.00  0.00     0.152 C 
ENDBRANCH   1  24
BRANCH   5  32
HETATM   32  C   UNL     1      44.149 -21.674   2.345  1.00  0.00     0.434 C 
HETATM   33  F   UNL     1      45.184 -21.871   1.487  1.00  0.00    -0.165 F 
HETATM   34  F   UNL     1      44.271 -22.624   3.315  1.00  0.00    -0.165 F 
HETATM   35  F   UNL     1      43.016 -21.989   1.657  1.00  0.00    -0.165 F 
ENDBRANCH   5  32
TORSDOF 9
ENDMDL
MODEL 3
REMARK VINA RESULT:      -8.1      2.203      3.165
REMARK  9 active torsions:
REMARK  status: ('A' for Active; 'I' for Inactive)
REMARK    1  A    between atoms: N_6  and  C_7 
REMARK    2  A    between atoms: C_9  and  S_10 
REMARK    3  A    between atoms: S_10  and  C_11 
REMARK    4  A    between atoms: C_11  and  C_12 
REMARK    5  A    between atoms: C_14  and  C_15 
REMARK       I    between atoms: C_15  and  N_16 
REMARK    6  A    between atoms: N_16  and  C_17 
REMARK    7  A    between atoms: C_17  and  C_18 
REMARK    8  A    between atoms: C_18  and  N_19 
REMARK    9  A    between atoms: C_27  and  C_28 
ROOT
HETATM    1  C   UNL     1      41.557 -16.725   3.465  1.00  0.00     0.130 A 
HETATM    2  N   UNL     1      41.722 -15.555   4.109  1.00  0.00    -0.205 NA
HETATM    3  C   UNL     1      42.741 -15.441   4.979  1.00  0.00     0.191 A 
HETATM    4  N   UNL     1      43.558 -16.441   5.320  1.00  0.00    -0.218 NA
HETATM    5  C   UNL     1      43.390 -17.619   4.682  1.00  0.00     0.146 A 
HETATM    6  C   UNL     1      42.399 -17.789   3.729  1.00  0.00     0.087 A 
ENDROOT
BRANCH   3   7
HETATM    7  S   UNL     1      43.051 -13.837   5.676  1.00  0.00    -0.084 SA
BRANCH   7   8
HETATM    8  C   UNL     1      44.470 -14.286   6.717  1.00  0.00     0.147 C 
BRANCH   8   9
HETATM    9  C   UNL     1      44.909 -13.194   7.624  1.00  0.00     0.063 A 
HETATM   10  O   UNL     1      43.946 -12.559   8.357  1.00  0.00    -0.309 OA
HETATM   11  C   UNL     1      44.590 -11.739   9.247  1.00  0.00     0.143 A 
HETATM   12  C   UNL     1      45.953 -11.818   9.050  1.00  0.00     0.045 A 
HETATM   13  C   UNL     1      46.157 -12.733   7.990  1.00  0.00     0.036 A 
BRANCH  11  14
HETATM   14  C   UNL     1      43.811 -11.015  10.219  1.00  0.00     0.275 C 
HETATM   15  N   UNL     1      42.561 -11.535  10.479  1.00  0.00    -0.354 N 
HETATM   16  H   UNL     1      42.277 -12.314   9.888  1.00  0.00     0.162 HD
HETATM   17  O   UNL     1      44.201 -10.021  10.835  1.00  0.00    -0.265 OA
BRANCH  15  18
HETATM   18  C   UNL     1      41.551 -10.802  11.229  1.00  0.00     0.150 C 
BRANCH  18  19
HETATM   19  C   UNL     1      40.121 -11.350  11.054  1.00  0.00     0.253 C 
BRANCH  19  20
HETATM   20  N   UNL     1      39.082 -10.250  10.981  1.00  0.00    -0.077 N 
HETATM   21  H   UNL     1      38.149 -10.705  11.041  1.00  0.00     0.279 HD
HETATM   22  C   UNL     1      39.104  -9.320  12.160  1.00  0.00     0.269 C 
HETATM   23  C   UNL     1      39.122  -9.507   9.681  1.00  0.00     0.269 C 
ENDBRANCH  19  20
ENDBRANCH  18  19
ENDBRANCH  15  18
ENDBRANCH  11  14
ENDBRANCH   8   9
ENDBRANCH   7   8
ENDBRANCH   3   7
BRANCH   1  24
HETATM   24  N   UNL     1      40.566 -16.811   2.483  1.00  0.00    -0.362 N 
HETATM   25  C   UNL     1      40.938 -17.557   1.260  1.00  0.00     0.152 C 
HETATM   26  C   UNL     1      41.614 -16.627   0.229  1.00  0.00     0.254 C 
HETATM   27  N   UNL     1      40.695 -15.436  -0.076  1.00  0.00    -0.072 N 
HETATM   28  C   UNL     1      41.269 -14.526  -1.119  1.00  0.00     0.269 C 
HETATM   29  H   UNL     1      39.824 -15.826  -0.462  1.00  0.00     0.279 HD
HETATM   30  C   UNL     1      40.328 -14.686   1.202  1.00  0.00     0.254 C 
HETATM   31  C   UNL     1      39.693 -15.648   2.232  1.00  0.00     0.152 C 
ENDBRANCH   1  24
BRANCH   5  32
HETATM   32  C   UNL     1      44.305 -18.788   5.011  1.00  0.00     0.434 C 
HETATM   33  F   UNL     1      45.447 -18.430   5.656  1.00  0.00    -0.165 F 
HETATM   34  F   UNL     1      43.687 -19.704   5.810  1.00  0.00    -0.165 F 
HETATM   35  F   UNL     1      44.693 -19.469   3.897  1.00  0.00    -0.165 F 
ENDBRANCH   5  32
TORSDOF 9
ENDMDL
MODEL 4
REMARK VINA RESULT:      -8.1      3.825      7.850
REMARK  9 active torsions:
REMARK  status: ('A' for Active; 'I' for Inactive)
REMARK    1  A    between atoms: N_6  and  C_7 
REMARK    2  A    between atoms: C_9  and  S_10 
REMARK    3  A    between atoms: S_10  and  C_11 
REMARK    4  A    between atoms: C_11  and  C_12 
REMARK    5  A    between atoms: C_14  and  C_15 
REMARK       I    between atoms: C_15  and  N_16 
REMARK    6  A    between atoms: N_16  and  C_17 
REMARK    7  A    between atoms: C_17  and  C_18 
REMARK    8  A    between atoms: C_18  and  N_19 
REMARK    9  A    between atoms: C_27  and  C_28 
ROOT
HETATM    1  C   UNL     1      43.965 -18.140   5.507  1.00  0.00     0.130 A 
HETATM    2  N   UNL     1      43.921 -17.686   4.242  1.00  0.00    -0.205 NA
HETATM    3  C   UNL     1      44.069 -18.569   3.239  1.00  0.00     0.191 A 
HETATM    4  N   UNL     1      44.346 -19.864   3.408  1.00  0.00    -0.218 NA
HETATM    5  C   UNL     1      44.399 -20.323   4.677  1.00  0.00     0.146 A 
HETATM    6  C   UNL     1      44.194 -19.481   5.758  1.00  0.00     0.087 A 
ENDROOT
BRANCH   3   7
HETATM    7  S   UNL     1      43.824 -17.980   1.581  1.00  0.00    -0.084 SA
BRANCH   7   8
HETATM    8  C   UNL     1      43.513 -16.236   1.979  1.00  0.00     0.147 C 
BRANCH   8   9
HETATM    9  C   UNL     1      42.073 -15.870   1.955  1.00  0.00     0.063 A 
HETATM   10  O   UNL     1      41.691 -14.874   1.101  1.00  0.00    -0.309 OA
HETATM   11  C   UNL     1      40.320 -14.840   1.106  1.00  0.00     0.143 A 
HETATM   12  C   UNL     1      39.836 -15.780   1.992  1.00  0.00     0.045 A 
HETATM   13  C   UNL     1      40.962 -16.423   2.557  1.00  0.00     0.036 A 
BRANCH  11  14
HETATM   14  C   UNL     1      39.640 -13.938   0.212  1.00  0.00     0.275 C 
HETATM   15  N   UNL     1      38.872 -14.542  -0.762  1.00  0.00    -0.354 N 
HETATM   16  H   UNL     1      38.944 -15.556  -0.814  1.00  0.00     0.162 HD
HETATM   17  O   UNL     1      39.672 -12.709   0.292  1.00  0.00    -0.265 OA
BRANCH  15  18
HETATM   18  C   UNL     1      38.329 -13.805  -1.895  1.00  0.00     0.150 C 
BRANCH  18  19
HETATM   19  C   UNL     1      38.803 -14.327  -3.266  1.00  0.00     0.253 C 
BRANCH  19  20
HETATM   20  N   UNL     1      39.937 -13.501  -3.841  1.00  0.00    -0.077 N 
HETATM   21  H   UNL     1      39.911 -13.622  -4.873  1.00  0.00     0.279 HD
HETATM   22  C   UNL     1      39.764 -12.023  -3.648  1.00  0.00     0.269 C 
HETATM   23  C   UNL     1      41.282 -13.973  -3.381  1.00  0.00     0.269 C 
ENDBRANCH  19  20
ENDBRANCH  18  19
ENDBRANCH  15  18
ENDBRANCH  11  14
ENDBRANCH   8   9
ENDBRANCH   7   8
ENDBRANCH   3   7
BRANCH   1  24
HETATM   24  N   UNL     1      43.705 -17.243   6.547  1.00  0.00    -0.362 N 
HETATM   25  C   UNL     1      42.384 -17.382   7.200  1.00  0.00     0.152 C 
HETATM   26  C   UNL     1      41.313 -16.548   6.465  1.00  0.00     0.254 C 
HETATM   27  N   UNL     1      41.765 -15.083   6.379  1.00  0.00    -0.072 N 
HETATM   28  C   UNL     1      40.738 -14.207   5.729  1.00  0.00     0.269 C 
HETATM   29  H   UNL     1      41.876 -14.751   7.347  1.00  0.00     0.279 HD
HETATM   30  C   UNL     1      43.129 -14.970   5.703  1.00  0.00     0.254 C 
HETATM   31  C   UNL     1      44.171 -15.848   6.432  1.00  0.00     0.152 C 
ENDBRANCH   1  24
BRANCH   5  32
HETATM   32  C   UNL     1      44.686 -21.794   4.933  1.00  0.00     0.434 C 
HETATM   33  F   UNL     1      46.005 -22.077   5.102  1.00  0.00    -0.165 F 
HETATM   34  F   UNL     1      44.052 -22.244   6.053  1.00  0.00    -0.165 F 
HETATM   35  F   UNL     1      44.251 -22.589   3.916  1.00  0.00    -0.165 F 
ENDBRANCH   5  32
TORSDOF 9
ENDMDL
MODEL 5
REMARK VINA RESULT:      -8.0      1.519      2.119
REMARK  9 active torsions:
REMARK  status: ('A' for Active; 'I' for Inactive)
REMARK    1  A    between atoms: N_6  and  C_7 
REMARK    2  A    between atoms: C_9  and  S_10 
REMARK    3  A    between atoms: S_10  and  C_11 
REMARK    4  A    between atoms: C_11  and  C_12 
REMARK    5  A    between atoms: C_14  and  C_15 
REMARK       I    between atoms: C_15  and  N_16 
REMARK    6  A    between atoms: N_16  and  C_17 
REMARK    7  A    between atoms: C_17  and  C_18 
REMARK    8  A    between atoms: C_18  and  N_19 
REMARK    9  A    between atoms: C_27  and  C_28 
ROOT
HETATM    1  C   UNL     1      41.903 -17.318   3.716  1.00  0.00     0.130 A 
HETATM    2  N   UNL     1      42.378 -16.826   4.874  1.00  0.00    -0.205 NA
HETATM    3  C   UNL     1      43.491 -17.374   5.394  1.00  0.00     0.191 A 
HETATM    4  N   UNL     1      44.117 -18.437   4.886  1.00  0.00    -0.218 NA
HETATM    5  C   UNL     1      43.639 -18.939   3.727  1.00  0.00     0.146 A 
HETATM    6  C   UNL     1      42.533 -18.386   3.103  1.00  0.00     0.087 A 
ENDROOT
BRANCH   3   7
HETATM    7  S   UNL     1      44.202 -16.591   6.821  1.00  0.00    -0.084 SA
BRANCH   7   8
HETATM    8  C   UNL     1      43.710 -14.885   6.443  1.00  0.00     0.147 C 
BRANCH   8   9
HETATM    9  C   UNL     1      44.687 -13.868   6.916  1.00  0.00     0.063 A 
HETATM   10  O   UNL     1      44.292 -13.040   7.928  1.00  0.00    -0.309 OA
HETATM   11  C   UNL     1      45.396 -12.330   8.323  1.00  0.00     0.143 A 
HETATM   12  C   UNL     1      46.475 -12.673   7.537  1.00  0.00     0.045 A 
HETATM   13  C   UNL     1      46.014 -13.642   6.615  1.00  0.00     0.036 A 
BRANCH  11  14
HETATM   14  C   UNL     1      45.288 -11.441   9.452  1.00  0.00     0.275 C 
HETATM   15  N   UNL     1      44.444 -11.865  10.457  1.00  0.00    -0.354 N 
HETATM   16  H   UNL     1      43.908 -12.708  10.257  1.00  0.00     0.162 HD
HETATM   17  O   UNL     1      45.913 -10.387   9.581  1.00  0.00    -0.265 OA
BRANCH  15  18
HETATM   18  C   UNL     1      44.018 -10.989  11.540  1.00  0.00     0.150 C 
BRANCH  18  19
HETATM   19  C   UNL     1      42.899 -11.580  12.420  1.00  0.00     0.253 C 
BRANCH  19  20
HETATM   20  N   UNL     1      41.570 -10.880  12.218  1.00  0.00    -0.077 N 
HETATM   21  H   UNL     1      41.646  -9.945  12.665  1.00  0.00     0.279 HD
HETATM   22  C   UNL     1      41.266 -10.568  10.782  1.00  0.00     0.269 C 
HETATM   23  C   UNL     1      40.437 -11.593  12.889  1.00  0.00     0.269 C 
ENDBRANCH  19  20
ENDBRANCH  18  19
ENDBRANCH  15  18
ENDBRANCH  11  14
ENDBRANCH   8   9
ENDBRANCH   7   8
ENDBRANCH   3   7
BRANCH   1  24
HETATM   24  N   UNL     1      40.811 -16.681   3.118  1.00  0.00    -0.362 N 
HETATM   25  C   UNL     1      40.563 -17.025   1.700  1.00  0.00     0.152 C 
HETATM   26  C   UNL     1      41.373 -16.108   0.759  1.00  0.00     0.254 C 
HETATM   27  N   UNL     1      41.049 -14.638   1.063  1.00  0.00    -0.072 N 
HETATM   28  C   UNL     1      41.758 -13.695   0.139  1.00  0.00     0.269 C 
HETATM   29  H   UNL     1      40.040 -14.518   0.901  1.00  0.00     0.279 HD
HETATM   30  C   UNL     1      41.313 -14.311   2.531  1.00  0.00     0.254 C 
HETATM   31  C   UNL     1      40.525 -15.272   3.451  1.00  0.00     0.152 C 
ENDBRANCH   1  24
BRANCH   5  32
HETATM   32  C   UNL     1      44.325 -20.136   3.086  1.00  0.00     0.434 C 
HETATM   33  F   UNL     1      45.401 -19.810   2.322  1.00  0.00    -0.165 F 
HETATM   34  F   UNL     1      44.775 -21.019   4.022  1.00  0.00    -0.165 F 
HETATM   35  F   UNL     1      43.485 -20.843   2.281  1.00  0.00    -0.165 F 
ENDBRANCH   5  32
TORSDOF 9
ENDMDL
MODEL 6
REMARK VINA RESULT:      -7.6      6.154     10.239
REMARK  9 active torsions:
REMARK  status: ('A' for Active; 'I' for Inactive)
REMARK    1  A    between atoms: N_6  and  C_7 
REMARK    2  A    between atoms: C_9  and  S_10 
REMARK    3  A    between atoms: S_10  and  C_11 
REMARK    4  A    between atoms: C_11  and  C_12 
REMARK    5  A    between atoms: C_14  and  C_15 
REMARK       I    between atoms: C_15  and  N_16 
REMARK    6  A    between atoms: N_16  and  C_17 
REMARK    7  A    between atoms: C_17  and  C_18 
REMARK    8  A    between atoms: C_18  and  N_19 
REMARK    9  A    between atoms: C_27  and  C_28 
ROOT
HETATM    1  C   UNL     1      41.746  -9.673  10.602  1.00  0.00     0.130 A 
HETATM    2  N   UNL     1      42.748 -10.550  10.415  1.00  0.00    -0.205 NA
HETATM    3  C   UNL     1      43.373 -11.050  11.496  1.00  0.00     0.191 A 
HETATM    4  N   UNL     1      43.126 -10.672  12.752  1.00  0.00    -0.218 NA
HETATM    5  C   UNL     1      42.126  -9.785  12.944  1.00  0.00     0.146 A 
HETATM    6  C   UNL     1      41.399  -9.275  11.881  1.00  0.00     0.087 A 
ENDROOT
BRANCH   3   7
HETATM    7  S   UNL     1      44.564 -12.341  11.233  1.00  0.00    -0.084 SA
BRANCH   7   8
HETATM    8  C   UNL     1      45.445 -11.588   9.835  1.00  0.00     0.147 C 
BRANCH   8   9
HETATM    9  C   UNL     1      45.600 -12.500   8.671  1.00  0.00     0.063 A 
HETATM   10  O   UNL     1      44.663 -13.481   8.512  1.00  0.00    -0.309 OA
HETATM   11  C   UNL     1      44.891 -14.065   7.293  1.00  0.00     0.143 A 
HETATM   12  C   UNL     1      45.995 -13.488   6.701  1.00  0.00     0.045 A 
HETATM   13  C   UNL     1      46.467 -12.500   7.598  1.00  0.00     0.036 A 
BRANCH  11  14
HETATM   14  C   UNL     1      43.981 -15.077   6.821  1.00  0.00     0.275 C 
HETATM   15  N   UNL     1      43.514 -15.945   7.785  1.00  0.00    -0.354 N 
HETATM   16  H   UNL     1      43.935 -15.847   8.707  1.00  0.00     0.162 HD
HETATM   17  O   UNL     1      43.582 -15.180   5.659  1.00  0.00    -0.265 OA
BRANCH  15  18
HETATM   18  C   UNL     1      42.801 -17.170   7.453  1.00  0.00     0.150 C 
BRANCH  18  19
HETATM   19  C   UNL     1      43.722 -18.353   7.093  1.00  0.00     0.253 C 
BRANCH  19  20
HETATM   20  N   UNL     1      43.355 -18.992   5.768  1.00  0.00    -0.077 N 
HETATM   21  H   UNL     1      42.957 -19.929   5.980  1.00  0.00     0.279 HD
HETATM   22  C   UNL     1      42.246 -18.286   5.045  1.00  0.00     0.269 C 
HETATM   23  C   UNL     1      44.547 -19.214   4.888  1.00  0.00     0.269 C 
ENDBRANCH  19  20
ENDBRANCH  18  19
ENDBRANCH  15  18
ENDBRANCH  11  14
ENDBRANCH   8   9
ENDBRANCH   7   8
ENDBRANCH   3   7
BRANCH   1  24
HETATM   24  N   UNL     1      41.026  -9.234   9.488  1.00  0.00    -0.362 N 
HETATM   25  C   UNL     1      39.563  -9.453   9.540  1.00  0.00     0.152 C 
HETATM   26  C   UNL     1      39.193 -10.849   8.995  1.00  0.00     0.254 C 
HETATM   27  N   UNL     1      39.752 -11.016   7.575  1.00  0.00    -0.072 N 
HETATM   28  C   UNL     1      39.373 -12.331   6.964  1.00  0.00     0.269 C 
HETATM   29  H   UNL     1      39.321 -10.280   6.999  1.00  0.00     0.279 HD
HETATM   30  C   UNL     1      41.261 -10.784   7.550  1.00  0.00     0.254 C 
HETATM   31  C   UNL     1      41.607  -9.398   8.141  1.00  0.00     0.152 C 
ENDBRANCH   1  24
BRANCH   5  32
HETATM   32  C   UNL     1      41.782  -9.335  14.356  1.00  0.00     0.434 C 
HETATM   33  F   UNL     1      42.862  -8.970  15.096  1.00  0.00    -0.165 F 
HETATM   34  F   UNL     1      40.941  -8.262  14.351  1.00  0.00    -0.165 F 
HETATM   35  F   UNL     1      41.142 -10.306  15.066  1.00  0.00    -0.165 F 
ENDBRANCH   5  32
TORSDOF 9
ENDMDL
MODEL 7
REMARK VINA RESULT:      -7.6      3.557      6.408
REMARK  9 active torsions:
REMARK  status: ('A' for Active; 'I' for Inactive)
REMARK    1  A    between atoms: N_6  and  C_7 
REMARK    2  A    between atoms: C_9  and  S_10 
REMARK    3  A    between atoms: S_10  and  C_11 
REMARK    4  A    between atoms: C_11  and  C_12 
REMARK    5  A    between atoms: C_14  and  C_15 
REMARK       I    between atoms: C_15  and  N_16 
REMARK    6  A    between atoms: N_16  and  C_17 
REMARK    7  A    between atoms: C_17  and  C_18 
REMARK    8  A    between atoms: C_18  and  N_19 
REMARK    9  A    between atoms: C_27  and  C_28 
ROOT
HETATM    1  C   UNL     1      40.656 -15.082   0.440  1.00  0.00     0.130 A 
HETATM    2  N   UNL     1      40.200 -14.638   1.625  1.00  0.00    -0.205 NA
HETATM    3  C   UNL     1      40.713 -15.170   2.749  1.00  0.00     0.191 A 
HETATM    4  N   UNL     1      41.589 -16.177   2.776  1.00  0.00    -0.218 NA
HETATM    5  C   UNL     1      42.044 -16.630   1.588  1.00  0.00     0.146 A 
HETATM    6  C   UNL     1      41.605 -16.087   0.392  1.00  0.00     0.087 A 
ENDROOT
BRANCH   3   7
HETATM    7  S   UNL     1      40.232 -14.442   4.296  1.00  0.00    -0.084 SA
BRANCH   7   8
HETATM    8  C   UNL     1      41.723 -13.444   4.578  1.00  0.00     0.147 C 
BRANCH   8   9
HETATM    9  C   UNL     1      42.616 -13.997   5.630  1.00  0.00     0.063 A 
HETATM   10  O   UNL     1      42.563 -15.343   5.857  1.00  0.00    -0.309 OA
HETATM   11  C   UNL     1      43.589 -15.649   6.713  1.00  0.00     0.143 A 
HETATM   12  C   UNL     1      44.261 -14.497   7.064  1.00  0.00     0.045 A 
HETATM   13  C   UNL     1      43.620 -13.432   6.389  1.00  0.00     0.036 A 
BRANCH  11  14
HETATM   14  C   UNL     1      43.830 -17.029   7.050  1.00  0.00     0.275 C 
HETATM   15  N   UNL     1      44.504 -17.760   6.095  1.00  0.00    -0.354 N 
HETATM   16  H   UNL     1      44.672 -17.281   5.212  1.00  0.00     0.162 HD
HETATM   17  O   UNL     1      43.515 -17.559   8.118  1.00  0.00    -0.265 OA
BRANCH  15  18
HETATM   18  C   UNL     1      44.606 -19.211   6.151  1.00  0.00     0.150 C 
BRANCH  18  19
HETATM   19  C   UNL     1      44.013 -19.929   4.921  1.00  0.00     0.253 C 
BRANCH  19  20
HETATM   20  N   UNL     1      44.974 -20.932   4.316  1.00  0.00    -0.077 N 
HETATM   21  H   UNL     1      45.925 -20.519   4.374  1.00  0.00     0.279 HD
HETATM   22  C   UNL     1      45.088 -22.207   5.101  1.00  0.00     0.269 C 
HETATM   23  C   UNL     1      44.697 -21.190   2.866  1.00  0.00     0.269 C 
ENDBRANCH  19  20
ENDBRANCH  18  19
ENDBRANCH  15  18
ENDBRANCH  11  14
ENDBRANCH   8   9
ENDBRANCH   7   8
ENDBRANCH   3   7
BRANCH   1  24
HETATM   24  N   UNL     1      40.204 -14.457  -0.725  1.00  0.00    -0.362 N 
HETATM   25  C   UNL     1      41.140 -14.477  -1.871  1.00  0.00     0.152 C 
HETATM   26  C   UNL     1      42.100 -13.269  -1.821  1.00  0.00     0.254 C 
HETATM   27  N   UNL     1      41.291 -11.966  -1.758  1.00  0.00    -0.072 N 
HETATM   28  C   UNL     1      42.167 -10.750  -1.770  1.00  0.00     0.269 C 
HETATM   29  H   UNL     1      40.717 -11.933  -2.611  1.00  0.00     0.279 HD
HETATM   30  C   UNL     1      40.334 -11.973  -0.569  1.00  0.00     0.254 C 
HETATM   31  C   UNL     1      39.414 -13.214  -0.620  1.00  0.00     0.152 C 
ENDBRANCH   1  24
BRANCH   5  32
HETATM   32  C   UNL     1      43.062 -17.760   1.555  1.00  0.00     0.434 C 
HETATM   33  F   UNL     1      42.525 -18.992   1.758  1.00  0.00    -0.165 F 
HETATM   34  F   UNL     1      43.711 -17.818   0.358  1.00  0.00    -0.165 F 
HETATM   35  F   UNL     1      44.034 -17.606   2.498  1.00  0.00    -0.165 F 
ENDBRANCH   5  32
TORSDOF 9
ENDMDL
MODEL 8
REMARK VINA RESULT:      -7.6      3.208      5.450
REMARK  9 active torsions:
REMARK  status: ('A' for Active; 'I' for Inactive)
REMARK    1  A    between atoms: N_6  and  C_7 
REMARK    2  A    between atoms: C_9  and  S_10 
REMARK    3  A    between atoms: S_10  and  C_11 
REMARK    4  A    between atoms: C_11  and  C_12 
REMARK    5  A    between atoms: C_14  and  C_15 
REMARK       I    between atoms: C_15  and  N_16 
REMARK    6  A    between atoms: N_16  and  C_17 
REMARK    7  A    between atoms: C_17  and  C_18 
REMARK    8  A    between atoms: C_18  and  N_19 
REMARK    9  A    between atoms: C_27  and  C_28 
ROOT
HETATM    1  C   UNL     1      42.521 -17.755   4.718  1.00  0.00     0.130 A 
HETATM    2  N   UNL     1      42.000 -17.200   3.609  1.00  0.00    -0.205 NA
HETATM    3  C   UNL     1      42.244 -17.786   2.424  1.00  0.00     0.191 A 
HETATM    4  N   UNL     1      43.043 -18.841   2.254  1.00  0.00    -0.218 NA
HETATM    5  C   UNL     1      43.575 -19.397   3.363  1.00  0.00     0.146 A 
HETATM    6  C   UNL     1      43.317 -18.882   4.623  1.00  0.00     0.087 A 
ENDROOT
BRANCH   3   7
HETATM    7  S   UNL     1      41.397 -17.144   1.000  1.00  0.00    -0.084 SA
BRANCH   7   8
HETATM    8  C   UNL     1      39.887 -16.584   1.838  1.00  0.00     0.147 C 
BRANCH   8   9
HETATM    9  C   UNL     1      39.589 -15.143   1.623  1.00  0.00     0.063 A 
HETATM   10  O   UNL     1      39.345 -14.379   2.730  1.00  0.00    -0.309 OA
HETATM   11  C   UNL     1      39.290 -13.074   2.316  1.00  0.00     0.143 A 
HETATM   12  C   UNL     1      39.453 -13.013   0.947  1.00  0.00     0.045 A 
HETATM   13  C   UNL     1      39.620 -14.344   0.499  1.00  0.00     0.036 A 
BRANCH  11  14
HETATM   14  C   UNL     1      39.138 -12.033   3.301  1.00  0.00     0.275 C 
HETATM   15  N   UNL     1      39.598 -12.346   4.563  1.00  0.00    -0.354 N 
HETATM   16  H   UNL     1      39.903 -13.309   4.695  1.00  0.00     0.162 HD
HETATM   17  O   UNL     1      38.677 -10.913   3.077  1.00  0.00    -0.265 OA
BRANCH  15  18
HETATM   18  C   UNL     1      39.297 -11.526   5.728  1.00  0.00     0.150 C 
BRANCH  18  19
HETATM   19  C   UNL     1      39.520 -12.245   7.074  1.00  0.00     0.253 C 
BRANCH  19  20
HETATM   20  N   UNL     1      40.487 -11.503   7.975  1.00  0.00    -0.077 N 
HETATM   21  H   UNL     1      40.822 -12.181   8.688  1.00  0.00     0.279 HD
HETATM   22  C   UNL     1      41.742 -11.063   7.280  1.00  0.00     0.269 C 
HETATM   23  C   UNL     1      39.833 -10.378   8.717  1.00  0.00     0.269 C 
ENDBRANCH  19  20
ENDBRANCH  18  19
ENDBRANCH  15  18
ENDBRANCH  11  14
ENDBRANCH   8   9
ENDBRANCH   7   8
ENDBRANCH   3   7
BRANCH   1  24
HETATM   24  N   UNL     1      42.182 -17.211   5.960  1.00  0.00    -0.362 N 
HETATM   25  C   UNL     1      41.597 -15.852   5.928  1.00  0.00     0.152 C 
HETATM   26  C   UNL     1      42.700 -14.773   5.967  1.00  0.00     0.254 C 
HETATM   27  N   UNL     1      43.593 -14.990   7.198  1.00  0.00    -0.072 N 
HETATM   28  C   UNL     1      44.650 -13.935   7.328  1.00  0.00     0.269 C 
HETATM   29  H   UNL     1      42.984 -14.910   8.023  1.00  0.00     0.279 HD
HETATM   30  C   UNL     1      44.182 -16.399   7.205  1.00  0.00     0.254 C 
HETATM   31  C   UNL     1      43.059 -17.457   7.121  1.00  0.00     0.152 C 
ENDBRANCH   1  24
BRANCH   5  32
HETATM   32  C   UNL     1      44.475 -20.617   3.235  1.00  0.00     0.434 C 
HETATM   33  F   UNL     1      44.822 -21.173   4.426  1.00  0.00    -0.165 F 
HETATM   34  F   UNL     1      43.881 -21.606   2.509  1.00  0.00    -0.165 F 
HETATM   35  F   UNL     1      45.641 -20.332   2.591  1.00  0.00    -0.165 F 
ENDBRANCH   5  32
TORSDOF 9
ENDMDL
MODEL 9
REMARK VINA RESULT:      -7.6      2.699      3.747
REMARK  9 active torsions:
REMARK  status: ('A' for Active; 'I' for Inactive)
REMARK    1  A    between atoms: N_6  and  C_7 
REMARK    2  A    between atoms: C_9  and  S_10 
REMARK    3  A    between atoms: S_10  and  C_11 
REMARK    4  A    between atoms: C_11  and  C_12 
REMARK    5  A    between atoms: C_14  and  C_15 
REMARK       I    between atoms: C_15  and  N_16 
REMARK    6  A    between atoms: N_16  and  C_17 
REMARK    7  A    between atoms: C_17  and  C_18 
REMARK    8  A    between atoms: C_18  and  N_19 
REMARK    9  A    between atoms: C_27  and  C_28 
ROOT
HETATM    1  C   UNL     1      41.296 -14.665   0.919  1.00  0.00     0.130 A 
HETATM    2  N   UNL     1      40.767 -14.429   2.132  1.00  0.00    -0.205 NA
HETATM    3  C   UNL     1      41.073 -15.266   3.139  1.00  0.00     0.191 A 
HETATM    4  N   UNL     1      41.803 -16.375   3.003  1.00  0.00    -0.218 NA
HETATM    5  C   UNL     1      42.330 -16.621   1.784  1.00  0.00     0.146 A 
HETATM    6  C   UNL     1      42.107 -15.767   0.716  1.00  0.00     0.087 A 
ENDROOT
BRANCH   3   7
HETATM    7  S   UNL     1      40.514 -14.832   4.768  1.00  0.00    -0.084 SA
BRANCH   7   8
HETATM    8  C   UNL     1      41.634 -13.431   5.053  1.00  0.00     0.147 C 
BRANCH   8   9
HETATM    9  C   UNL     1      42.858 -13.796   5.814  1.00  0.00     0.063 A 
HETATM   10  O   UNL     1      43.284 -12.923   6.775  1.00  0.00    -0.309 OA
HETATM   11  C   UNL     1      44.293 -13.543   7.465  1.00  0.00     0.143 A 
HETATM   12  C   UNL     1      44.537 -14.785   6.916  1.00  0.00     0.045 A 
HETATM   13  C   UNL     1      43.633 -14.937   5.838  1.00  0.00     0.036 A 
BRANCH  11  14
HETATM   14  C   UNL     1      44.868 -12.881   8.609  1.00  0.00     0.275 C 
HETATM   15  N   UNL     1      43.967 -12.493   9.578  1.00  0.00    -0.354 N 
HETATM   16  H   UNL     1      42.985 -12.622   9.344  1.00  0.00     0.162 HD
HETATM   17  O   UNL     1      46.073 -12.688   8.779  1.00  0.00    -0.265 OA
BRANCH  15  18
HETATM   18  C   UNL     1      44.330 -11.596  10.666  1.00  0.00     0.150 C 
BRANCH  18  19
HETATM   19  C   UNL     1      43.383 -11.668  11.880  1.00  0.00     0.253 C 
BRANCH  19  20
HETATM   20  N   UNL     1      43.334 -10.367  12.656  1.00  0.00    -0.077 N 
HETATM   21  H   UNL     1      44.298 -10.178  12.996  1.00  0.00     0.279 HD
HETATM   22  C   UNL     1      43.011  -9.171  11.809  1.00  0.00     0.269 C 
HETATM   23  C   UNL     1      42.454 -10.452  13.865  1.00  0.00     0.269 C 
ENDBRANCH  19  20
ENDBRANCH  18  19
ENDBRANCH  15  18
ENDBRANCH  11  14
ENDBRANCH   8   9
ENDBRANCH   7   8
ENDBRANCH   3   7
BRANCH   1  24
HETATM   24  N   UNL     1      41.066 -13.738  -0.101  1.00  0.00    -0.362 N 
HETATM   25  C   UNL     1      39.791 -12.992  -0.017  1.00  0.00     0.152 C 
HETATM   26  C   UNL     1      38.652 -13.763  -0.718  1.00  0.00     0.254 C 
HETATM   27  N   UNL     1      39.049 -14.068  -2.170  1.00  0.00    -0.072 N 
HETATM   28  C   UNL     1      37.957 -14.763  -2.925  1.00  0.00     0.269 C 
HETATM   29  H   UNL     1      39.205 -13.161  -2.630  1.00  0.00     0.279 HD
HETATM   30  C   UNL     1      40.367 -14.837  -2.227  1.00  0.00     0.254 C 
HETATM   31  C   UNL     1      41.479 -14.064  -1.481  1.00  0.00     0.152 C 
ENDBRANCH   1  24
BRANCH   5  32
HETATM   32  C   UNL     1      43.191 -17.857   1.573  1.00  0.00     0.434 C 
HETATM   33  F   UNL     1      42.515 -19.029   1.707  1.00  0.00    -0.165 F 
HETATM   34  F   UNL     1      43.747 -17.876   0.329  1.00  0.00    -0.165 F 
HETATM   35  F   UNL     1      44.234 -17.915   2.447  1.00  0.00    -0.165 F 
ENDBRANCH   5  32
TORSDOF 9
ENDMDL
MODEL 10
REMARK VINA RESULT:      -7.6      3.794      5.961
REMARK  9 active torsions:
REMARK  status: ('A' for Active; 'I' for Inactive)
REMARK    1  A    between atoms: N_6  and  C_7 
REMARK    2  A    between atoms: C_9  and  S_10 
REMARK    3  A    between atoms: S_10  and  C_11 
REMARK    4  A    between atoms: C_11  and  C_12 
REMARK    5  A    between atoms: C_14  and  C_15 
REMARK       I    between atoms: C_15  and  N_16 
REMARK    6  A    between atoms: N_16  and  C_17 
REMARK    7  A    between atoms: C_17  and  C_18 
REMARK    8  A    between atoms: C_18  and  N_19 
REMARK    9  A    between atoms: C_27  and  C_28 
ROOT
HETATM    1  C   UNL     1      41.059 -15.033  -0.505  1.00  0.00     0.130 A 
HETATM    2  N   UNL     1      40.242 -14.542   0.444  1.00  0.00    -0.205 NA
HETATM    3  C   UNL     1      40.323 -15.052   1.686  1.00  0.00     0.191 A 
HETATM    4  N   UNL     1      41.103 -16.079   2.030  1.00  0.00    -0.218 NA
HETATM    5  C   UNL     1      41.919 -16.581   1.078  1.00  0.00     0.146 A 
HETATM    6  C   UNL     1      41.932 -16.063  -0.207  1.00  0.00     0.087 A 
ENDROOT
BRANCH   3   7
HETATM    7  S   UNL     1      39.369 -14.265   2.961  1.00  0.00    -0.084 SA
BRANCH   7   8
HETATM    8  C   UNL     1      40.516 -12.906   3.329  1.00  0.00     0.147 C 
BRANCH   8   9
HETATM    9  C   UNL     1      41.837 -13.365   3.833  1.00  0.00     0.063 A 
HETATM   10  O   UNL     1      41.861 -14.014   5.035  1.00  0.00    -0.309 OA
HETATM   11  C   UNL     1      43.129 -14.507   5.203  1.00  0.00     0.143 A 
HETATM   12  C   UNL     1      43.919 -14.134   4.135  1.00  0.00     0.045 A 
HETATM   13  C   UNL     1      43.095 -13.379   3.267  1.00  0.00     0.036 A 
BRANCH  11  14
HETATM   14  C   UNL     1      43.415 -15.326   6.354  1.00  0.00     0.275 C 
HETATM   15  N   UNL     1      42.824 -16.572   6.351  1.00  0.00    -0.354 N 
HETATM   16  H   UNL     1      42.169 -16.747   5.591  1.00  0.00     0.162 HD
HETATM   17  O   UNL     1      44.159 -15.003   7.281  1.00  0.00    -0.265 OA
BRANCH  15  18
HETATM   18  C   UNL     1      42.790 -17.422   7.532  1.00  0.00     0.150 C 
BRANCH  18  19
HETATM   19  C   UNL     1      43.885 -18.507   7.554  1.00  0.00     0.253 C 
BRANCH  19  20
HETATM   20  N   UNL     1      43.630 -19.611   6.548  1.00  0.00    -0.077 N 
HETATM   21  H   UNL     1      42.686 -19.446   6.147  1.00  0.00     0.279 HD
HETATM   22  C   UNL     1      44.541 -19.563   5.356  1.00  0.00     0.269 C 
HETATM   23  C   UNL     1      43.604 -20.969   7.180  1.00  0.00     0.269 C 
ENDBRANCH  19  20
ENDBRANCH  18  19
ENDBRANCH  15  18
ENDBRANCH  11  14
ENDBRANCH   8   9
ENDBRANCH   7   8
ENDBRANCH   3   7
BRANCH   1  24
HETATM   24  N   UNL     1      41.052 -14.432  -1.767  1.00  0.00    -0.362 N 
HETATM   25  C   UNL     1      40.129 -13.287  -1.929  1.00  0.00     0.152 C 
HETATM   26  C   UNL     1      38.724 -13.765  -2.357  1.00  0.00     0.254 C 
HETATM   27  N   UNL     1      38.830 -14.608  -3.636  1.00  0.00    -0.072 N 
HETATM   28  C   UNL     1      37.491 -15.052  -4.139  1.00  0.00     0.269 C 
HETATM   29  H   UNL     1      39.238 -13.999  -4.359  1.00  0.00     0.279 HD
HETATM   30  C   UNL     1      39.789 -15.781  -3.440  1.00  0.00     0.254 C 
HETATM   31  C   UNL     1      41.173 -15.278  -2.971  1.00  0.00     0.152 C 
ENDBRANCH   1  24
BRANCH   5  32
HETATM   32  C   UNL     1      42.847 -17.736   1.417  1.00  0.00     0.434 C 
HETATM   33  F   UNL     1      42.208 -18.923   1.597  1.00  0.00    -0.165 F 
HETATM   34  F   UNL     1      43.771 -17.944   0.437  1.00  0.00    -0.165 F 
HETATM   35  F   UNL     1      43.559 -17.509   2.556  1.00  0.00    -0.165 F 
ENDBRANCH   5  32
TORSDOF 9
ENDMDL
