MODEL 1
REMARK VINA RESULT:      -9.3      0.000      0.000
REMARK  7 active torsions:
REMARK  status: ('A' for Active; 'I' for Inactive)
REMARK       I    between atoms: C_2  and  N_3 
REMARK    1  A    between atoms: N_3  and  C_4 
REMARK    2  A    between atoms: C_6  and  N_7 
REMARK       I    between atoms: N_7  and  C_8 
REMARK    3  A    between atoms: C_8  and  C_9 
REMARK       I    between atoms: C_9  and  N_10 
REMARK    4  A    between atoms: N_10  and  C_11 
REMARK    5  A    between atoms: C_11  and  C_12 
REMARK    6  A    between atoms: C_12  and  O_13 
REMARK    7  A    between atoms: C_12  and  C_14 
ROOT
HETATM    1  C   UNL     1      45.248 -12.972   7.788  1.00  0.00     0.309 C 
HETATM    2  N   UNL     1      44.267 -13.941   7.739  1.00  0.00    -0.350 N 
HETATM    3  O   UNL     1      46.259 -12.929   7.101  1.00  0.00    -0.262 OA
HETATM    4  H   UNL     1      43.607 -13.922   8.513  1.00  0.00     0.163 HD
ENDROOT
BRANCH   1   5
HETATM    5  C   UNL     1      45.001 -11.880   8.851  1.00  0.00     0.313 C 
HETATM    6  N   UNL     1      43.835 -12.104   9.549  1.00  0.00    -0.319 N 
HETATM    7  H   UNL     1      43.324 -12.935   9.255  1.00  0.00     0.169 HD
HETATM    8  O   UNL     1      45.807 -10.967   8.952  1.00  0.00    -0.262 OA
BRANCH   6   9
HETATM    9  C   UNL     1      43.275 -11.326  10.577  1.00  0.00     0.037 A 
HETATM   10  C   UNL     1      41.906 -11.069  10.700  1.00  0.00     0.059 A 
HETATM   11  C   UNL     1      41.410 -10.284  11.754  1.00  0.00     0.036 A 
HETATM   12  C   UNL     1      42.302  -9.759  12.687  1.00  0.00     0.029 A 
HETATM   13  C   UNL     1      43.672 -10.008  12.570  1.00  0.00     0.004 A 
HETATM   14  C   UNL     1      44.156 -10.785  11.518  1.00  0.00     0.029 A 
BRANCH  11  15
HETATM   15  N   UNL     1      40.014 -10.075  11.795  1.00  0.00    -0.327 N 
HETATM   16  C   UNL     1      39.328  -8.911  11.500  1.00  0.00     0.218 C 
HETATM   17  C   UNL     1      37.837  -9.083  11.645  1.00  0.00     0.117 C 
HETATM   18  O   UNL     1      39.803  -7.841  11.136  1.00  0.00    -0.274 OA
HETATM   19  H   UNL     1      39.456 -10.875  12.064  1.00  0.00     0.169 HD
ENDBRANCH  11  15
ENDBRANCH   6   9
ENDBRANCH   1   5
BRANCH   2  20
HETATM   20  C   UNL     1      44.469 -15.169   6.981  1.00  0.00     0.159 C 
BRANCH  20  21
HETATM   21  C   UNL     1      43.136 -15.798   6.530  1.00  0.00     0.171 C 
BRANCH  21  22
HETATM   22  O   UNL     1      42.113 -14.791   6.533  1.00  0.00    -0.389 OA
HETATM   23  H   UNL     1      41.500 -15.022   5.814  1.00  0.00     0.210 HD
ENDBRANCH  21  22
BRANCH  21  24
HETATM   24  C   UNL     1      43.264 -16.437   5.181  1.00  0.00     0.000 A 
HETATM   25  C   UNL     1      43.744 -17.759   4.902  1.00  0.00     0.001 A 
HETATM   26  C   UNL     1      43.722 -17.935   3.513  1.00  0.00     0.044 A 
HETATM   27  C   UNL     1      44.202 -18.821   5.711  1.00  0.00     0.014 A 
HETATM   28  C   UNL     1      44.134 -19.136   2.911  1.00  0.00     0.030 A 
HETATM   29  N   UNL     1      43.243 -16.763   2.970  1.00  0.00    -0.360 N 
HETATM   30  C   UNL     1      44.585 -20.170   3.736  1.00  0.00     0.002 A 
HETATM   31  C   UNL     1      44.620 -20.017   5.118  1.00  0.00     0.001 A 
HETATM   32  C   UNL     1      43.046 -16.489   1.564  1.00  0.00     0.155 C 
HETATM   33  C   UNL     1      42.967 -15.861   3.961  1.00  0.00     0.101 A 
ENDBRANCH  21  24
ENDBRANCH  20  21
ENDBRANCH   2  20
TORSDOF 7
ENDMDL
MODEL 2
REMARK VINA RESULT:      -9.3      1.681      2.210
REMARK  7 active torsions:
REMARK  status: ('A' for Active; 'I' for Inactive)
REMARK       I    between atoms: C_2  and  N_3 
REMARK    1  A    between atoms: N_3  and  C_4 
REMARK    2  A    between atoms: C_6  and  N_7 
REMARK       I    between atoms: N_7  and  C_8 
REMARK    3  A    between atoms: C_8  and  C_9 
REMARK       I    between atoms: C_9  and  N_10 
REMARK    4  A    between atoms: N_10  and  C_11 
REMARK    5  A    between atoms: C_11  and  C_12 
REMARK    6  A    between atoms: C_12  and  O_13 
REMARK    7  A    between atoms: C_12  and  C_14 
ROOT
HETATM    1  C   UNL     1      44.870 -13.759   7.452  1.00  0.00     0.309 C 
HETATM    2  N   UNL     1      43.985 -14.814   7.403  1.00  0.00    -0.350 N 
HETATM    3  O   UNL     1      45.858 -13.609   6.747  1.00  0.00    -0.262 OA
HETATM    4  H   UNL     1      43.342 -14.872   8.191  1.00  0.00     0.163 HD
ENDROOT
BRANCH   1   5
HETATM    5  C   UNL     1      44.546 -12.715   8.543  1.00  0.00     0.313 C 
HETATM    6  N   UNL     1      43.377 -12.040   8.269  1.00  0.00    -0.319 N 
HETATM    7  H   UNL     1      42.923 -12.324   7.403  1.00  0.00     0.169 HD
HETATM    8  O   UNL     1      45.322 -12.584   9.479  1.00  0.00    -0.262 OA
BRANCH   6   9
HETATM    9  C   UNL     1      42.771 -11.017   9.017  1.00  0.00     0.037 A 
HETATM   10  C   UNL     1      42.927 -10.866  10.399  1.00  0.00     0.059 A 
HETATM   11  C   UNL     1      42.295  -9.819  11.088  1.00  0.00     0.036 A 
HETATM   12  C   UNL     1      41.504  -8.919  10.376  1.00  0.00     0.029 A 
HETATM   13  C   UNL     1      41.340  -9.062   8.996  1.00  0.00     0.004 A 
HETATM   14  C   UNL     1      41.968 -10.108   8.321  1.00  0.00     0.029 A 
BRANCH  11  15
HETATM   15  N   UNL     1      42.506  -9.749  12.482  1.00  0.00    -0.327 N 
HETATM   16  C   UNL     1      41.797 -10.400  13.476  1.00  0.00     0.218 C 
HETATM   17  C   UNL     1      42.332 -10.084  14.849  1.00  0.00     0.117 C 
HETATM   18  O   UNL     1      40.854 -11.170  13.331  1.00  0.00    -0.274 OA
HETATM   19  H   UNL     1      43.272  -9.159  12.783  1.00  0.00     0.169 HD
ENDBRANCH  11  15
ENDBRANCH   6   9
ENDBRANCH   1   5
BRANCH   2  20
HETATM   20  C   UNL     1      44.283 -16.004   6.616  1.00  0.00     0.159 C 
BRANCH  20  21
HETATM   21  C   UNL     1      43.070 -16.948   6.507  1.00  0.00     0.171 C 
BRANCH  21  22
HETATM   22  O   UNL     1      41.891 -16.255   6.945  1.00  0.00    -0.389 OA
HETATM   23  H   UNL     1      41.175 -16.913   6.958  1.00  0.00     0.210 HD
ENDBRANCH  21  22
BRANCH  21  24
HETATM   24  C   UNL     1      42.907 -17.466   5.111  1.00  0.00     0.000 A 
HETATM   25  C   UNL     1      43.595 -18.578   4.524  1.00  0.00     0.001 A 
HETATM   26  C   UNL     1      43.161 -18.696   3.198  1.00  0.00     0.044 A 
HETATM   27  C   UNL     1      44.555 -19.495   5.005  1.00  0.00     0.014 A 
HETATM   28  C   UNL     1      43.650 -19.700   2.344  1.00  0.00     0.030 A 
HETATM   29  N   UNL     1      42.242 -17.692   2.988  1.00  0.00    -0.360 N 
HETATM   30  C   UNL     1      44.601 -20.592   2.847  1.00  0.00     0.002 A 
HETATM   31  C   UNL     1      45.049 -20.493   4.159  1.00  0.00     0.001 A 
HETATM   32  C   UNL     1      41.527 -17.429   1.759  1.00  0.00     0.155 C 
HETATM   33  C   UNL     1      42.084 -16.950   4.127  1.00  0.00     0.101 A 
ENDBRANCH  21  24
ENDBRANCH  20  21
ENDBRANCH   2  20
TORSDOF 7
ENDMDL
MODEL 3
REMARK VINA RESULT:      -9.1      1.058      2.053
REMARK  7 active torsions:
REMARK  status: ('A' for Active; 'I' for Inactive)
REMARK       I    between atoms: C_2  and  N_3 
REMARK    1  A    between atoms: N_3  and  C_4 
REMARK    2  A    between atoms: C_6  and  N_7 
REMARK       I    between atoms: N_7  and  C_8 
REMARK    3  A    between atoms: C_8  and  C_9 
REMARK       I    between atoms: C_9  and  N_10 
REMARK    4  A    between atoms: N_10  and  C_11 
REMARK    5  A    between atoms: C_11  and  C_12 
REMARK    6  A    between atoms: C_12  and  O_13 
REMARK    7  A    between atoms: C_12  and  C_14 
ROOT
HETATM    1  C   UNL     1      44.648 -12.990   8.169  1.00  0.00     0.309 C 
HETATM    2  N   UNL     1      43.891 -13.840   7.390  1.00  0.00    -0.350 N 
HETATM    3  O   UNL     1      45.850 -13.076   8.376  1.00  0.00    -0.262 OA
HETATM    4  H   UNL     1      42.883 -13.732   7.493  1.00  0.00     0.163 HD
ENDROOT
BRANCH   1   5
HETATM    5  C   UNL     1      43.837 -11.861   8.841  1.00  0.00     0.313 C 
HETATM    6  N   UNL     1      43.807 -12.001  10.211  1.00  0.00    -0.319 N 
HETATM    7  H   UNL     1      44.309 -12.816  10.559  1.00  0.00     0.169 HD
HETATM    8  O   UNL     1      43.315 -11.012   8.132  1.00  0.00    -0.262 OA
BRANCH   6   9
HETATM    9  C   UNL     1      43.163 -11.182  11.153  1.00  0.00     0.037 A 
HETATM   10  C   UNL     1      41.782 -10.962  11.176  1.00  0.00     0.059 A 
HETATM   11  C   UNL     1      41.198 -10.133  12.148  1.00  0.00     0.036 A 
HETATM   12  C   UNL     1      42.015  -9.526  13.101  1.00  0.00     0.029 A 
HETATM   13  C   UNL     1      43.395  -9.738  13.084  1.00  0.00     0.004 A 
HETATM   14  C   UNL     1      43.967 -10.560  12.112  1.00  0.00     0.029 A 
BRANCH  11  15
HETATM   15  N   UNL     1      39.798  -9.966  12.091  1.00  0.00    -0.327 N 
HETATM   16  C   UNL     1      39.097  -8.908  11.540  1.00  0.00     0.218 C 
HETATM   17  C   UNL     1      37.606  -9.097  11.658  1.00  0.00     0.117 C 
HETATM   18  O   UNL     1      39.562  -7.918  10.987  1.00  0.00    -0.274 OA
HETATM   19  H   UNL     1      39.248 -10.714  12.494  1.00  0.00     0.169 HD
ENDBRANCH  11  15
ENDBRANCH   6   9
ENDBRANCH   1   5
BRANCH   2  20
HETATM   20  C   UNL     1      44.444 -15.095   6.899  1.00  0.00     0.159 C 
BRANCH  20  21
HETATM   21  C   UNL     1      43.426 -16.249   6.976  1.00  0.00     0.171 C 
BRANCH  21  22
HETATM   22  O   UNL     1      42.102 -15.723   6.796  1.00  0.00    -0.389 OA
HETATM   23  H   UNL     1      41.924 -15.157   7.567  1.00  0.00     0.210 HD
ENDBRANCH  21  22
BRANCH  21  24
HETATM   24  C   UNL     1      43.729 -17.312   5.966  1.00  0.00     0.000 A 
HETATM   25  C   UNL     1      43.603 -17.202   4.542  1.00  0.00     0.001 A 
HETATM   26  C   UNL     1      43.965 -18.434   3.986  1.00  0.00     0.044 A 
HETATM   27  C   UNL     1      43.208 -16.159   3.676  1.00  0.00     0.014 A 
HETATM   28  C   UNL     1      43.949 -18.655   2.598  1.00  0.00     0.030 A 
HETATM   29  N   UNL     1      44.299 -19.263   5.034  1.00  0.00    -0.360 N 
HETATM   30  C   UNL     1      43.551 -17.606   1.765  1.00  0.00     0.002 A 
HETATM   31  C   UNL     1      43.185 -16.374   2.294  1.00  0.00     0.001 A 
HETATM   32  C   UNL     1      44.737 -20.637   4.934  1.00  0.00     0.155 C 
HETATM   33  C   UNL     1      44.161 -18.600   6.223  1.00  0.00     0.101 A 
ENDBRANCH  21  24
ENDBRANCH  20  21
ENDBRANCH   2  20
TORSDOF 7
ENDMDL
MODEL 4
REMARK VINA RESULT:      -8.9      2.671      3.335
REMARK  7 active torsions:
REMARK  status: ('A' for Active; 'I' for Inactive)
REMARK       I    between atoms: C_2  and  N_3 
REMARK    1  A    between atoms: N_3  and  C_4 
REMARK    2  A    between atoms: C_6  and  N_7 
REMARK       I    between atoms: N_7  and  C_8 
REMARK    3  A    between atoms: C_8  and  C_9 
REMARK       I    between atoms: C_9  and  N_10 
REMARK    4  A    between atoms: N_10  and  C_11 
REMARK    5  A    between atoms: C_11  and  C_12 
REMARK    6  A    between atoms: C_12  and  O_13 
REMARK    7  A    between atoms: C_12  and  C_14 
ROOT
HETATM    1  C   UNL     1      40.964 -12.144   5.978  1.00  0.00     0.309 C 
HETATM    2  N   UNL     1      40.881 -13.472   6.340  1.00  0.00    -0.350 N 
HETATM    3  O   UNL     1      40.456 -11.629   4.992  1.00  0.00    -0.262 OA
HETATM    4  H   UNL     1      41.526 -13.757   7.075  1.00  0.00     0.163 HD
ENDROOT
BRANCH   1   5
HETATM    5  C   UNL     1      41.816 -11.283   6.935  1.00  0.00     0.313 C 
HETATM    6  N   UNL     1      42.661 -12.057   7.700  1.00  0.00    -0.319 N 
HETATM    7  H   UNL     1      42.586 -13.057   7.524  1.00  0.00     0.169 HD
HETATM    8  O   UNL     1      41.655 -10.071   6.934  1.00  0.00    -0.262 OA
BRANCH   6   9
HETATM    9  C   UNL     1      43.570 -11.635   8.685  1.00  0.00     0.037 A 
HETATM   10  C   UNL     1      43.217 -10.842   9.781  1.00  0.00     0.059 A 
HETATM   11  C   UNL     1      44.176 -10.456  10.733  1.00  0.00     0.036 A 
HETATM   12  C   UNL     1      45.495 -10.878  10.576  1.00  0.00     0.029 A 
HETATM   13  C   UNL     1      45.857 -11.668   9.482  1.00  0.00     0.004 A 
HETATM   14  C   UNL     1      44.899 -12.043   8.540  1.00  0.00     0.029 A 
BRANCH  11  15
HETATM   15  N   UNL     1      43.728  -9.651  11.803  1.00  0.00    -0.327 N 
HETATM   16  C   UNL     1      43.103 -10.065  12.965  1.00  0.00     0.218 C 
HETATM   17  C   UNL     1      42.789  -8.907  13.879  1.00  0.00     0.117 C 
HETATM   18  O   UNL     1      42.829 -11.214  13.290  1.00  0.00    -0.274 OA
HETATM   19  H   UNL     1      43.894  -8.657  11.705  1.00  0.00     0.169 HD
ENDBRANCH  11  15
ENDBRANCH   6   9
ENDBRANCH   1   5
BRANCH   2  20
HETATM   20  C   UNL     1      40.339 -14.464   5.420  1.00  0.00     0.159 C 
BRANCH  20  21
HETATM   21  C   UNL     1      40.906 -15.872   5.684  1.00  0.00     0.171 C 
BRANCH  21  22
HETATM   22  O   UNL     1      39.922 -16.656   6.376  1.00  0.00    -0.389 OA
HETATM   23  H   UNL     1      39.349 -17.042   5.691  1.00  0.00     0.210 HD
ENDBRANCH  21  22
BRANCH  21  24
HETATM   24  C   UNL     1      41.330 -16.536   4.410  1.00  0.00     0.000 A 
HETATM   25  C   UNL     1      42.300 -17.583   4.272  1.00  0.00     0.001 A 
HETATM   26  C   UNL     1      42.407 -17.887   2.909  1.00  0.00     0.044 A 
HETATM   27  C   UNL     1      43.102 -18.297   5.188  1.00  0.00     0.014 A 
HETATM   28  C   UNL     1      43.281 -18.881   2.437  1.00  0.00     0.030 A 
HETATM   29  N   UNL     1      41.532 -17.055   2.246  1.00  0.00    -0.360 N 
HETATM   30  C   UNL     1      44.064 -19.570   3.367  1.00  0.00     0.002 A 
HETATM   31  C   UNL     1      43.978 -19.284   4.725  1.00  0.00     0.001 A 
HETATM   32  C   UNL     1      41.303 -17.017   0.818  1.00  0.00     0.155 C 
HETATM   33  C   UNL     1      40.884 -16.243   3.135  1.00  0.00     0.101 A 
ENDBRANCH  21  24
ENDBRANCH  20  21
ENDBRANCH   2  20
TORSDOF 7
ENDMDL
MODEL 5
REMARK VINA RESULT:      -8.9      1.970     10.035
REMARK  7 active torsions:
REMARK  status: ('A' for Active; 'I' for Inactive)
REMARK       I    between atoms: C_2  and  N_3 
REMARK    1  A    between atoms: N_3  and  C_4 
REMARK    2  A    between atoms: C_6  and  N_7 
REMARK       I    between atoms: N_7  and  C_8 
REMARK    3  A    between atoms: C_8  and  C_9 
REMARK       I    between atoms: C_9  and  N_10 
REMARK    4  A    between atoms: N_10  and  C_11 
REMARK    5  A    between atoms: C_11  and  C_12 
REMARK    6  A    between atoms: C_12  and  O_13 
REMARK    7  A    between atoms: C_12  and  C_14 
ROOT
HETATM    1  C   UNL     1      45.032 -13.173   8.301  1.00  0.00     0.309 C 
HETATM    2  N   UNL     1      44.019 -12.908   9.198  1.00  0.00    -0.350 N 
HETATM    3  O   UNL     1      46.191 -12.792   8.384  1.00  0.00    -0.262 OA
HETATM    4  H   UNL     1      43.083 -13.135   8.869  1.00  0.00     0.163 HD
ENDROOT
BRANCH   1   5
HETATM    5  C   UNL     1      44.590 -14.013   7.083  1.00  0.00     0.313 C 
HETATM    6  N   UNL     1      43.774 -15.058   7.455  1.00  0.00    -0.319 N 
HETATM    7  H   UNL     1      43.600 -15.117   8.457  1.00  0.00     0.169 HD
HETATM    8  O   UNL     1      44.997 -13.698   5.974  1.00  0.00    -0.262 OA
BRANCH   6   9
HETATM    9  C   UNL     1      43.190 -16.038   6.634  1.00  0.00     0.037 A 
HETATM   10  C   UNL     1      43.827 -17.228   6.271  1.00  0.00     0.059 A 
HETATM   11  C   UNL     1      43.187 -18.170   5.448  1.00  0.00     0.036 A 
HETATM   12  C   UNL     1      41.896 -17.905   4.993  1.00  0.00     0.029 A 
HETATM   13  C   UNL     1      41.253 -16.717   5.348  1.00  0.00     0.004 A 
HETATM   14  C   UNL     1      41.898 -15.787   6.163  1.00  0.00     0.029 A 
BRANCH  11  15
HETATM   15  N   UNL     1      43.909 -19.340   5.130  1.00  0.00    -0.327 N 
HETATM   16  C   UNL     1      44.099 -20.456   5.926  1.00  0.00     0.218 C 
HETATM   17  C   UNL     1      44.919 -21.512   5.228  1.00  0.00     0.117 C 
HETATM   18  O   UNL     1      43.665 -20.642   7.056  1.00  0.00    -0.274 OA
HETATM   19  H   UNL     1      44.328 -19.362   4.209  1.00  0.00     0.169 HD
ENDBRANCH  11  15
ENDBRANCH   6   9
ENDBRANCH   1   5
BRANCH   2  20
HETATM   20  C   UNL     1      44.200 -11.924  10.259  1.00  0.00     0.159 C 
BRANCH  20  21
HETATM   21  C   UNL     1      43.645 -10.540   9.868  1.00  0.00     0.171 C 
BRANCH  21  22
HETATM   22  O   UNL     1      43.312 -10.542   8.472  1.00  0.00    -0.389 OA
HETATM   23  H   UNL     1      43.527  -9.654   8.138  1.00  0.00     0.210 HD
ENDBRANCH  21  22
BRANCH  21  24
HETATM   24  C   UNL     1      42.461 -10.172  10.708  1.00  0.00     0.000 A 
HETATM   25  C   UNL     1      42.474  -9.805  12.094  1.00  0.00     0.001 A 
HETATM   26  C   UNL     1      41.151  -9.567  12.484  1.00  0.00     0.044 A 
HETATM   27  C   UNL     1      43.499  -9.659  13.054  1.00  0.00     0.014 A 
HETATM   28  C   UNL     1      40.822  -9.184  13.796  1.00  0.00     0.030 A 
HETATM   29  N   UNL     1      40.364  -9.780  11.375  1.00  0.00    -0.360 N 
HETATM   30  C   UNL     1      41.857  -9.049  14.726  1.00  0.00     0.002 A 
HETATM   31  C   UNL     1      43.178  -9.283  14.362  1.00  0.00     0.001 A 
HETATM   32  C   UNL     1      38.925  -9.649  11.308  1.00  0.00     0.155 C 
HETATM   33  C   UNL     1      41.138 -10.143  10.307  1.00  0.00     0.101 A 
ENDBRANCH  21  24
ENDBRANCH  20  21
ENDBRANCH   2  20
TORSDOF 7
ENDMDL
MODEL 6
REMARK VINA RESULT:      -8.8      7.347     10.694
REMARK  7 active torsions:
REMARK  status: ('A' for Active; 'I' for Inactive)
REMARK       I    between atoms: C_2  and  N_3 
REMARK    1  A    between atoms: N_3  and  C_4 
REMARK    2  A    between atoms: C_6  and  N_7 
REMARK       I    between atoms: N_7  and  C_8 
REMARK    3  A    between atoms: C_8  and  C_9 
REMARK       I    between atoms: C_9  and  N_10 
REMARK    4  A    between atoms: N_10  and  C_11 
REMARK    5  A    between atoms: C_11  and  C_12 
REMARK    6  A    between atoms: C_12  and  O_13 
REMARK    7  A    between atoms: C_12  and  C_14 
ROOT
HETATM    1  C   UNL     1      40.323 -15.670   1.539  1.00  0.00     0.309 C 
HETATM    2  N   UNL     1      41.015 -16.598   0.790  1.00  0.00    -0.350 N 
HETATM    3  O   UNL     1      40.155 -15.697   2.750  1.00  0.00    -0.262 OA
HETATM    4  H   UNL     1      40.882 -16.521  -0.217  1.00  0.00     0.163 HD
ENDROOT
BRANCH   1   5
HETATM    5  C   UNL     1      39.701 -14.527   0.708  1.00  0.00     0.313 C 
HETATM    6  N   UNL     1      39.977 -14.666  -0.634  1.00  0.00    -0.319 N 
HETATM    7  H   UNL     1      40.544 -15.481  -0.863  1.00  0.00     0.169 HD
HETATM    8  O   UNL     1      39.077 -13.651   1.289  1.00  0.00    -0.262 OA
BRANCH   6   9
HETATM    9  C   UNL     1      39.595 -13.822  -1.691  1.00  0.00     0.037 A 
HETATM   10  C   UNL     1      38.309 -13.796  -2.238  1.00  0.00     0.059 A 
HETATM   11  C   UNL     1      37.990 -12.925  -3.294  1.00  0.00     0.036 A 
HETATM   12  C   UNL     1      38.975 -12.076  -3.793  1.00  0.00     0.029 A 
HETATM   13  C   UNL     1      40.264 -12.097  -3.254  1.00  0.00     0.004 A 
HETATM   14  C   UNL     1      40.572 -12.968  -2.209  1.00  0.00     0.029 A 
BRANCH  11  15
HETATM   15  N   UNL     1      36.668 -12.973  -3.786  1.00  0.00    -0.327 N 
HETATM   16  C   UNL     1      36.119 -13.914  -4.639  1.00  0.00     0.218 C 
HETATM   17  C   UNL     1      34.666 -13.633  -4.927  1.00  0.00     0.117 C 
HETATM   18  O   UNL     1      36.677 -14.893  -5.120  1.00  0.00    -0.274 OA
HETATM   19  H   UNL     1      36.052 -12.234  -3.469  1.00  0.00     0.169 HD
ENDBRANCH  11  15
ENDBRANCH   6   9
ENDBRANCH   1   5
BRANCH   2  20
HETATM   20  C   UNL     1      41.440 -17.863   1.375  1.00  0.00     0.159 C 
BRANCH  20  21
HETATM   21  C   UNL     1      42.958 -18.086   1.236  1.00  0.00     0.171 C 
BRANCH  21  22
HETATM   22  O   UNL     1      43.582 -16.856   0.837  1.00  0.00    -0.389 OA
HETATM   23  H   UNL     1      42.982 -16.442   0.193  1.00  0.00     0.210 HD
ENDBRANCH  21  22
BRANCH  21  24
HETATM   24  C   UNL     1      43.551 -18.605   2.510  1.00  0.00     0.000 A 
HETATM   25  C   UNL     1      43.938 -19.958   2.787  1.00  0.00     0.001 A 
HETATM   26  C   UNL     1      44.418 -20.004   4.101  1.00  0.00     0.044 A 
HETATM   27  C   UNL     1      43.916 -21.151   2.033  1.00  0.00     0.014 A 
HETATM   28  C   UNL     1      44.881 -21.198   4.680  1.00  0.00     0.030 A 
HETATM   29  N   UNL     1      44.327 -18.725   4.603  1.00  0.00    -0.360 N 
HETATM   30  C   UNL     1      44.845 -22.365   3.911  1.00  0.00     0.002 A 
HETATM   31  C   UNL     1      44.370 -22.344   2.605  1.00  0.00     0.001 A 
HETATM   32  C   UNL     1      44.714 -18.296   5.930  1.00  0.00     0.155 C 
HETATM   33  C   UNL     1      43.810 -17.881   3.659  1.00  0.00     0.101 A 
ENDBRANCH  21  24
ENDBRANCH  20  21
ENDBRANCH   2  20
TORSDOF 7
ENDMDL
MODEL 7
REMARK VINA RESULT:      -8.7      5.594      9.108
REMARK  7 active torsions:
REMARK  status: ('A' for Active; 'I' for Inactive)
REMARK       I    between atoms: C_2  and  N_3 
REMARK    1  A    between atoms: N_3  and  C_4 
REMARK    2  A    between atoms: C_6  and  N_7 
REMARK       I    between atoms: N_7  and  C_8 
REMARK    3  A    between atoms: C_8  and  C_9 
REMARK       I    between atoms: C_9  and  N_10 
REMARK    4  A    between atoms: N_10  and  C_11 
REMARK    5  A    between atoms: C_11  and  C_12 
REMARK    6  A    between atoms: C_12  and  O_13 
REMARK    7  A    between atoms: C_12  and  C_14 
ROOT
HETATM    1  C   UNL     1      41.088 -16.148   4.678  1.00  0.00     0.309 C 
HETATM    2  N   UNL     1      41.898 -15.556   5.624  1.00  0.00    -0.350 N 
HETATM    3  O   UNL     1      40.767 -17.327   4.636  1.00  0.00    -0.262 OA
HETATM    4  H   UNL     1      42.215 -14.617   5.389  1.00  0.00     0.163 HD
ENDROOT
BRANCH   1   5
HETATM    5  C   UNL     1      40.596 -15.184   3.577  1.00  0.00     0.313 C 
HETATM    6  N   UNL     1      41.348 -15.296   2.429  1.00  0.00    -0.319 N 
HETATM    7  H   UNL     1      42.102 -15.979   2.487  1.00  0.00     0.169 HD
HETATM    8  O   UNL     1      39.654 -14.445   3.823  1.00  0.00    -0.262 OA
BRANCH   6   9
HETATM    9  C   UNL     1      41.212 -14.579   1.228  1.00  0.00     0.037 A 
HETATM   10  C   UNL     1      40.493 -15.044   0.123  1.00  0.00     0.059 A 
HETATM   11  C   UNL     1      40.392 -14.276  -1.049  1.00  0.00     0.036 A 
HETATM   12  C   UNL     1      41.019 -13.033  -1.101  1.00  0.00     0.029 A 
HETATM   13  C   UNL     1      41.741 -12.561  -0.002  1.00  0.00     0.004 A 
HETATM   14  C   UNL     1      41.839 -13.332   1.156  1.00  0.00     0.029 A 
BRANCH  11  15
HETATM   15  N   UNL     1      39.650 -14.829  -2.116  1.00  0.00    -0.327 N 
HETATM   16  C   UNL     1      40.140 -15.401  -3.276  1.00  0.00     0.218 C 
HETATM   17  C   UNL     1      39.032 -15.893  -4.173  1.00  0.00     0.117 C 
HETATM   18  O   UNL     1      41.315 -15.545  -3.592  1.00  0.00    -0.274 OA
HETATM   19  H   UNL     1      38.643 -14.808  -2.009  1.00  0.00     0.169 HD
ENDBRANCH  11  15
ENDBRANCH   6   9
ENDBRANCH   1   5
BRANCH   2  20
HETATM   20  C   UNL     1      42.650 -16.364   6.575  1.00  0.00     0.159 C 
BRANCH  20  21
HETATM   21  C   UNL     1      44.077 -16.667   6.079  1.00  0.00     0.171 C 
BRANCH  21  22
HETATM   22  O   UNL     1      45.004 -16.469   7.157  1.00  0.00    -0.389 OA
HETATM   23  H   UNL     1      45.829 -16.912   6.894  1.00  0.00     0.210 HD
ENDBRANCH  21  22
BRANCH  21  24
HETATM   24  C   UNL     1      44.178 -18.055   5.526  1.00  0.00     0.000 A 
HETATM   25  C   UNL     1      44.065 -18.439   4.149  1.00  0.00     0.001 A 
HETATM   26  C   UNL     1      44.195 -19.831   4.082  1.00  0.00     0.044 A 
HETATM   27  C   UNL     1      43.858 -17.721   2.950  1.00  0.00     0.014 A 
HETATM   28  C   UNL     1      44.131 -20.525   2.862  1.00  0.00     0.030 A 
HETATM   29  N   UNL     1      44.381 -20.276   5.373  1.00  0.00    -0.360 N 
HETATM   30  C   UNL     1      43.923 -19.789   1.692  1.00  0.00     0.002 A 
HETATM   31  C   UNL     1      43.788 -18.406   1.733  1.00  0.00     0.001 A 
HETATM   32  C   UNL     1      44.565 -21.650   5.787  1.00  0.00     0.155 C 
HETATM   33  C   UNL     1      44.372 -19.221   6.243  1.00  0.00     0.101 A 
ENDBRANCH  21  24
ENDBRANCH  20  21
ENDBRANCH   2  20
TORSDOF 7
ENDMDL
MODEL 8
REMARK VINA RESULT:      -8.7      1.766      9.969
REMARK  7 active torsions:
REMARK  status: ('A' for Active; 'I' for Inactive)
REMARK       I    between atoms: C_2  and  N_3 
REMARK    1  A    between atoms: N_3  and  C_4 
REMARK    2  A    between atoms: C_6  and  N_7 
REMARK       I    between atoms: N_7  and  C_8 
REMARK    3  A    between atoms: C_8  and  C_9 
REMARK       I    between atoms: C_9  and  N_10 
REMARK    4  A    between atoms: N_10  and  C_11 
REMARK    5  A    between atoms: C_11  and  C_12 
REMARK    6  A    between atoms: C_12  and  O_13 
REMARK    7  A    between atoms: C_12  and  C_14 
ROOT
HETATM    1  C   UNL     1      44.755 -12.894   8.363  1.00  0.00     0.309 C 
HETATM    2  N   UNL     1      43.574 -12.182   8.386  1.00  0.00    -0.350 N 
HETATM    3  O   UNL     1      45.684 -12.782   9.150  1.00  0.00    -0.262 OA
HETATM    4  H   UNL     1      43.006 -12.266   7.545  1.00  0.00     0.163 HD
ENDROOT
BRANCH   1   5
HETATM    5  C   UNL     1      44.864 -13.894   7.191  1.00  0.00     0.313 C 
HETATM    6  N   UNL     1      44.071 -15.002   7.391  1.00  0.00    -0.319 N 
HETATM    7  H   UNL     1      43.552 -14.992   8.268  1.00  0.00     0.169 HD
HETATM    8  O   UNL     1      45.615 -13.629   6.263  1.00  0.00    -0.262 OA
BRANCH   6   9
HETATM    9  C   UNL     1      43.919 -16.122   6.557  1.00  0.00     0.037 A 
HETATM   10  C   UNL     1      42.942 -16.223   5.562  1.00  0.00     0.059 A 
HETATM   11  C   UNL     1      42.844 -17.371   4.758  1.00  0.00     0.036 A 
HETATM   12  C   UNL     1      43.740 -18.419   4.962  1.00  0.00     0.029 A 
HETATM   13  C   UNL     1      44.717 -18.328   5.956  1.00  0.00     0.004 A 
HETATM   14  C   UNL     1      44.804 -17.186   6.751  1.00  0.00     0.029 A 
BRANCH  11  15
HETATM   15  N   UNL     1      41.824 -17.386   3.783  1.00  0.00    -0.327 N 
HETATM   16  C   UNL     1      41.865 -16.842   2.512  1.00  0.00     0.218 C 
HETATM   17  C   UNL     1      40.580 -17.074   1.757  1.00  0.00     0.117 C 
HETATM   18  O   UNL     1      42.803 -16.252   1.988  1.00  0.00    -0.274 OA
HETATM   19  H   UNL     1      40.968 -17.857   4.048  1.00  0.00     0.169 HD
ENDBRANCH  11  15
ENDBRANCH   6   9
ENDBRANCH   1   5
BRANCH   2  20
HETATM   20  C   UNL     1      43.415 -11.028   9.262  1.00  0.00     0.159 C 
BRANCH  20  21
HETATM   21  C   UNL     1      43.215 -11.439  10.733  1.00  0.00     0.171 C 
BRANCH  21  22
HETATM   22  O   UNL     1      44.444 -11.247  11.449  1.00  0.00    -0.389 OA
HETATM   23  H   UNL     1      44.241 -11.397  12.388  1.00  0.00     0.210 HD
ENDBRANCH  21  22
BRANCH  21  24
HETATM   24  C   UNL     1      42.095 -10.671  11.365  1.00  0.00     0.000 A 
HETATM   25  C   UNL     1      42.121 -10.009  12.637  1.00  0.00     0.001 A 
HETATM   26  C   UNL     1      40.858  -9.441  12.848  1.00  0.00     0.044 A 
HETATM   27  C   UNL     1      43.109  -9.847  13.632  1.00  0.00     0.014 A 
HETATM   28  C   UNL     1      40.556  -8.716  14.012  1.00  0.00     0.030 A 
HETATM   29  N   UNL     1      40.095  -9.746  11.743  1.00  0.00    -0.360 N 
HETATM   30  C   UNL     1      41.553  -8.574  14.982  1.00  0.00     0.002 A 
HETATM   31  C   UNL     1      42.813  -9.131  14.797  1.00  0.00     0.001 A 
HETATM   32  C   UNL     1      38.718  -9.362  11.520  1.00  0.00     0.155 C 
HETATM   33  C   UNL     1      40.826 -10.482  10.851  1.00  0.00     0.101 A 
ENDBRANCH  21  24
ENDBRANCH  20  21
ENDBRANCH   2  20
TORSDOF 7
ENDMDL
MODEL 9
REMARK VINA RESULT:      -8.6      2.564      4.113
REMARK  7 active torsions:
REMARK  status: ('A' for Active; 'I' for Inactive)
REMARK       I    between atoms: C_2  and  N_3 
REMARK    1  A    between atoms: N_3  and  C_4 
REMARK    2  A    between atoms: C_6  and  N_7 
REMARK       I    between atoms: N_7  and  C_8 
REMARK    3  A    between atoms: C_8  and  C_9 
REMARK       I    between atoms: C_9  and  N_10 
REMARK    4  A    between atoms: N_10  and  C_11 
REMARK    5  A    between atoms: C_11  and  C_12 
REMARK    6  A    between atoms: C_12  and  O_13 
REMARK    7  A    between atoms: C_12  and  C_14 
ROOT
HETATM    1  C   UNL     1      39.704 -12.930   5.881  1.00  0.00     0.309 C 
HETATM    2  N   UNL     1      40.219 -13.995   6.589  1.00  0.00    -0.350 N 
HETATM    3  O   UNL     1      39.420 -12.921   4.692  1.00  0.00    -0.262 OA
HETATM    4  H   UNL     1      40.578 -13.762   7.513  1.00  0.00     0.163 HD
ENDROOT
BRANCH   1   5
HETATM    5  C   UNL     1      39.519 -11.646   6.719  1.00  0.00     0.313 C 
HETATM    6  N   UNL     1      39.805 -11.862   8.049  1.00  0.00    -0.319 N 
HETATM    7  H   UNL     1      40.081 -12.818   8.268  1.00  0.00     0.169 HD
HETATM    8  O   UNL     1      39.141 -10.628   6.158  1.00  0.00    -0.262 OA
BRANCH   6   9
HETATM    9  C   UNL     1      39.739 -10.944   9.111  1.00  0.00     0.037 A 
HETATM   10  C   UNL     1      40.811 -10.664   9.964  1.00  0.00     0.059 A 
HETATM   11  C   UNL     1      40.681  -9.732  11.007  1.00  0.00     0.036 A 
HETATM   12  C   UNL     1      39.462  -9.080  11.185  1.00  0.00     0.029 A 
HETATM   13  C   UNL     1      38.385  -9.355  10.339  1.00  0.00     0.004 A 
HETATM   14  C   UNL     1      38.523 -10.285   9.309  1.00  0.00     0.029 A 
BRANCH  11  15
HETATM   15  N   UNL     1      41.815  -9.517  11.820  1.00  0.00    -0.327 N 
HETATM   16  C   UNL     1      42.030  -9.980  13.105  1.00  0.00     0.218 C 
HETATM   17  C   UNL     1      43.373  -9.553  13.641  1.00  0.00     0.117 C 
HETATM   18  O   UNL     1      41.278 -10.675  13.779  1.00  0.00    -0.274 OA
HETATM   19  H   UNL     1      42.557  -8.966  11.406  1.00  0.00     0.169 HD
ENDBRANCH  11  15
ENDBRANCH   6   9
ENDBRANCH   1   5
BRANCH   2  20
HETATM   20  C   UNL     1      40.693 -15.190   5.902  1.00  0.00     0.159 C 
BRANCH  20  21
HETATM   21  C   UNL     1      42.205 -15.131   5.611  1.00  0.00     0.171 C 
BRANCH  21  22
HETATM   22  O   UNL     1      42.874 -14.500   6.713  1.00  0.00    -0.389 OA
HETATM   23  H   UNL     1      42.455 -14.844   7.521  1.00  0.00     0.210 HD
ENDBRANCH  21  22
BRANCH  21  24
HETATM   24  C   UNL     1      42.762 -16.497   5.349  1.00  0.00     0.000 A 
HETATM   25  C   UNL     1      43.175 -17.024   4.081  1.00  0.00     0.001 A 
HETATM   26  C   UNL     1      43.605 -18.340   4.287  1.00  0.00     0.044 A 
HETATM   27  C   UNL     1      43.217 -16.497   2.772  1.00  0.00     0.014 A 
HETATM   28  C   UNL     1      44.078 -19.140   3.233  1.00  0.00     0.030 A 
HETATM   29  N   UNL     1      43.459 -18.601   5.631  1.00  0.00    -0.360 N 
HETATM   30  C   UNL     1      44.106 -18.592   1.947  1.00  0.00     0.002 A 
HETATM   31  C   UNL     1      43.681 -17.289   1.717  1.00  0.00     0.001 A 
HETATM   32  C   UNL     1      43.782 -19.841   6.303  1.00  0.00     0.155 C 
HETATM   33  C   UNL     1      42.955 -17.504   6.275  1.00  0.00     0.101 A 
ENDBRANCH  21  24
ENDBRANCH  20  21
ENDBRANCH   2  20
TORSDOF 7
ENDMDL
MODEL 10
REMARK VINA RESULT:      -8.6      2.443      9.693
REMARK  7 active torsions:
REMARK  status: ('A' for Active; 'I' for Inactive)
REMARK       I    between atoms: C_2  and  N_3 
REMARK    1  A    between atoms: N_3  and  C_4 
REMARK    2  A    between atoms: C_6  and  N_7 
REMARK       I    between atoms: N_7  and  C_8 
REMARK    3  A    between atoms: C_8  and  C_9 
REMARK       I    between atoms: C_9  and  N_10 
REMARK    4  A    between atoms: N_10  and  C_11 
REMARK    5  A    between atoms: C_11  and  C_12 
REMARK    6  A    between atoms: C_12  and  O_13 
REMARK    7  A    between atoms: C_12  and  C_14 
ROOT
HETATM    1  C   UNL     1      40.806 -13.523   5.850  1.00  0.00     0.309 C 
HETATM    2  N   UNL     1      41.030 -12.409   6.630  1.00  0.00    -0.350 N 
HETATM    3  O   UNL     1      39.721 -13.921   5.451  1.00  0.00    -0.262 OA
HETATM    4  H   UNL     1      41.965 -12.345   7.029  1.00  0.00     0.163 HD
ENDROOT
BRANCH   1   5
HETATM    5  C   UNL     1      42.083 -14.320   5.507  1.00  0.00     0.313 C 
HETATM    6  N   UNL     1      42.020 -15.611   5.982  1.00  0.00    -0.319 N 
HETATM    7  H   UNL     1      41.161 -15.832   6.482  1.00  0.00     0.169 HD
HETATM    8  O   UNL     1      42.981 -13.755   4.900  1.00  0.00    -0.262 OA
BRANCH   6   9
HETATM    9  C   UNL     1      42.990 -16.623   5.877  1.00  0.00     0.037 A 
HETATM   10  C   UNL     1      42.931 -17.662   4.943  1.00  0.00     0.059 A 
HETATM   11  C   UNL     1      43.936 -18.642   4.888  1.00  0.00     0.036 A 
HETATM   12  C   UNL     1      45.005 -18.568   5.779  1.00  0.00     0.029 A 
HETATM   13  C   UNL     1      45.071 -17.534   6.716  1.00  0.00     0.004 A 
HETATM   14  C   UNL     1      44.067 -16.568   6.766  1.00  0.00     0.029 A 
BRANCH  11  15
HETATM   15  N   UNL     1      43.789 -19.656   3.917  1.00  0.00    -0.327 N 
HETATM   16  C   UNL     1      43.957 -19.543   2.548  1.00  0.00     0.218 C 
HETATM   17  C   UNL     1      43.726 -20.856   1.842  1.00  0.00     0.117 C 
HETATM   18  O   UNL     1      44.275 -18.540   1.921  1.00  0.00    -0.274 OA
HETATM   19  H   UNL     1      43.540 -20.572   4.270  1.00  0.00     0.169 HD
ENDBRANCH  11  15
ENDBRANCH   6   9
ENDBRANCH   1   5
BRANCH   2  20
HETATM   20  C   UNL     1      39.922 -11.697   7.254  1.00  0.00     0.159 C 
BRANCH  20  21
HETATM   21  C   UNL     1      40.385 -10.416   7.973  1.00  0.00     0.171 C 
BRANCH  21  22
HETATM   22  O   UNL     1      39.306  -9.470   7.997  1.00  0.00    -0.389 OA
HETATM   23  H   UNL     1      38.993  -9.389   7.079  1.00  0.00     0.210 HD
ENDBRANCH  21  22
BRANCH  21  24
HETATM   24  C   UNL     1      40.874 -10.715   9.357  1.00  0.00     0.000 A 
HETATM   25  C   UNL     1      42.240 -10.835   9.776  1.00  0.00     0.001 A 
HETATM   26  C   UNL     1      42.241 -11.146  11.141  1.00  0.00     0.044 A 
HETATM   27  C   UNL     1      43.479 -10.711   9.111  1.00  0.00     0.014 A 
HETATM   28  C   UNL     1      43.434 -11.330  11.859  1.00  0.00     0.030 A 
HETATM   29  N   UNL     1      40.923 -11.211  11.536  1.00  0.00    -0.360 N 
HETATM   30  C   UNL     1      44.646 -11.204  11.174  1.00  0.00     0.002 A 
HETATM   31  C   UNL     1      44.670 -10.898   9.818  1.00  0.00     0.001 A 
HETATM   32  C   UNL     1      40.442 -11.503  12.869  1.00  0.00     0.155 C 
HETATM   33  C   UNL     1      40.098 -10.955  10.476  1.00  0.00     0.101 A 
ENDBRANCH  21  24
ENDBRANCH  20  21
ENDBRANCH   2  20
TORSDOF 7
ENDMDL
