MODEL 1
REMARK VINA RESULT:      -7.2      0.000      0.000
REMARK  3 active torsions:
REMARK  status: ('A' for Active; 'I' for Inactive)
REMARK    1  A    between atoms: C_2  and  N_3 
REMARK    2  A    between atoms: N_3  and  C_4 
REMARK    3  A    between atoms: C_12  and  C_13 
ROOT
HETATM    1  C   UNL     1      43.760 -19.667   5.589  1.00  0.00     0.139 A 
HETATM    2  N   UNL     1      44.442 -20.818   5.771  1.00  0.00    -0.224 NA
HETATM    3  C   UNL     1      44.895 -21.497   4.710  1.00  0.00     0.236 A 
HETATM    4  N   UNL     1      44.761 -21.173   3.426  1.00  0.00    -0.234 NA
HETATM    5  C   UNL     1      44.097 -20.019   3.261  1.00  0.00     0.113 A 
HETATM    6  C   UNL     1      43.573 -19.205   4.257  1.00  0.00     0.055 A 
HETATM    7  S   UNL     1      43.825 -19.419   1.694  1.00  0.00    -0.081 SA
HETATM    8  C   UNL     1      43.016 -18.048   2.296  1.00  0.00     0.062 A 
HETATM    9  C   UNL     1      42.939 -18.019   3.680  1.00  0.00    -0.003 A 
ENDROOT
BRANCH   9  10
HETATM   10  C   UNL     1      42.289 -16.914   4.500  1.00  0.00     0.188 C 
HETATM   11  O   UNL     1      40.966 -16.612   4.012  1.00  0.00    -0.336 OA
HETATM   12  C   UNL     1      40.984 -15.705   2.986  1.00  0.00     0.103 A 
HETATM   13  C   UNL     1      42.082 -14.889   2.704  1.00  0.00     0.102 A 
HETATM   14  C   UNL     1      39.833 -15.624   2.204  1.00  0.00     0.040 A 
HETATM   15  O   UNL     1      43.239 -14.898   3.437  1.00  0.00    -0.345 OA
HETATM   16  C   UNL     1      42.042 -14.020   1.615  1.00  0.00     0.039 A 
HETATM   17  C   UNL     1      43.085 -15.616   4.668  1.00  0.00     0.213 C 
HETATM   18  C   UNL     1      40.895 -13.948   0.822  1.00  0.00     0.003 A 
HETATM   19  C   UNL     1      39.789 -14.747   1.119  1.00  0.00     0.003 A 
ENDBRANCH   9  10
BRANCH   1  20
HETATM   20  N   UNL     1      43.271 -18.963   6.685  1.00  0.00    -0.366 N 
HETATM   21  H   UNL     1      42.608 -19.542   7.197  1.00  0.00     0.162 HD
BRANCH  20  22
HETATM   22  C   UNL     1      44.124 -18.167   7.583  1.00  0.00     0.021 C 
HETATM   23  C   UNL     1      45.352 -17.594   6.863  1.00  0.00     0.037 C 
HETATM   24  C   UNL     1      44.523 -18.977   8.824  1.00  0.00     0.037 C 
HETATM   25  C   UNL     1      43.260 -16.973   8.045  1.00  0.00     0.037 C 
ENDBRANCH  20  22
ENDBRANCH   1  20
TORSDOF 3
ENDMDL
MODEL 2
REMARK VINA RESULT:      -7.1      3.036      4.699
REMARK  3 active torsions:
REMARK  status: ('A' for Active; 'I' for Inactive)
REMARK    1  A    between atoms: C_2  and  N_3 
REMARK    2  A    between atoms: N_3  and  C_4 
REMARK    3  A    between atoms: C_12  and  C_13 
ROOT
HETATM    1  C   UNL     1      43.176 -17.809   4.655  1.00  0.00     0.139 A 
HETATM    2  N   UNL     1      43.811 -18.887   5.163  1.00  0.00    -0.224 NA
HETATM    3  C   UNL     1      44.638 -18.741   6.205  1.00  0.00     0.236 A 
HETATM    4  N   UNL     1      44.936 -17.614   6.849  1.00  0.00    -0.234 NA
HETATM    5  C   UNL     1      44.285 -16.555   6.344  1.00  0.00     0.113 A 
HETATM    6  C   UNL     1      43.398 -16.549   5.276  1.00  0.00     0.055 A 
HETATM    7  S   UNL     1      44.517 -15.017   7.030  1.00  0.00    -0.081 SA
HETATM    8  C   UNL     1      43.429 -14.300   5.934  1.00  0.00     0.062 A 
HETATM    9  C   UNL     1      42.875 -15.202   5.041  1.00  0.00    -0.003 A 
ENDROOT
BRANCH   9  10
HETATM   10  C   UNL     1      41.863 -14.857   3.958  1.00  0.00     0.188 C 
HETATM   11  O   UNL     1      41.902 -13.451   3.637  1.00  0.00    -0.336 OA
HETATM   12  C   UNL     1      41.116 -12.704   4.474  1.00  0.00     0.103 A 
HETATM   13  C   UNL     1      40.113 -13.253   5.277  1.00  0.00     0.102 A 
HETATM   14  C   UNL     1      41.361 -11.332   4.501  1.00  0.00     0.040 A 
HETATM   15  O   UNL     1      39.802 -14.587   5.290  1.00  0.00    -0.345 OA
HETATM   16  C   UNL     1      39.383 -12.434   6.135  1.00  0.00     0.039 A 
HETATM   17  C   UNL     1      40.413 -15.290   4.202  1.00  0.00     0.213 C 
HETATM   18  C   UNL     1      39.637 -11.062   6.174  1.00  0.00     0.003 A 
HETATM   19  C   UNL     1      40.623 -10.510   5.354  1.00  0.00     0.003 A 
ENDBRANCH   9  10
BRANCH   1  20
HETATM   20  N   UNL     1      42.327 -17.948   3.561  1.00  0.00    -0.366 N 
HETATM   21  H   UNL     1      41.586 -17.250   3.610  1.00  0.00     0.162 HD
BRANCH  20  22
HETATM   22  C   UNL     1      42.805 -18.156   2.185  1.00  0.00     0.021 C 
HETATM   23  C   UNL     1      43.091 -19.634   1.884  1.00  0.00     0.037 C 
HETATM   24  C   UNL     1      44.024 -17.273   1.885  1.00  0.00     0.037 C 
HETATM   25  C   UNL     1      41.650 -17.712   1.260  1.00  0.00     0.037 C 
ENDBRANCH  20  22
ENDBRANCH   1  20
TORSDOF 3
ENDMDL
MODEL 3
REMARK VINA RESULT:      -7.0      2.451      4.511
REMARK  3 active torsions:
REMARK  status: ('A' for Active; 'I' for Inactive)
REMARK    1  A    between atoms: C_2  and  N_3 
REMARK    2  A    between atoms: N_3  and  C_4 
REMARK    3  A    between atoms: C_12  and  C_13 
ROOT
HETATM    1  C   UNL     1      43.017 -17.138   4.430  1.00  0.00     0.139 A 
HETATM    2  N   UNL     1      43.621 -17.317   5.625  1.00  0.00    -0.224 NA
HETATM    3  C   UNL     1      43.944 -16.253   6.371  1.00  0.00     0.236 A 
HETATM    4  N   UNL     1      43.738 -14.970   6.082  1.00  0.00    -0.234 NA
HETATM    5  C   UNL     1      43.122 -14.809   4.901  1.00  0.00     0.113 A 
HETATM    6  C   UNL     1      42.723 -15.808   4.023  1.00  0.00     0.055 A 
HETATM    7  S   UNL     1      42.755 -13.244   4.347  1.00  0.00    -0.081 SA
HETATM    8  C   UNL     1      42.039 -13.852   2.927  1.00  0.00     0.062 A 
HETATM    9  C   UNL     1      42.062 -15.235   2.849  1.00  0.00    -0.003 A 
ENDROOT
BRANCH   9  10
HETATM   10  C   UNL     1      41.485 -16.059   1.707  1.00  0.00     0.188 C 
HETATM   11  O   UNL     1      41.423 -15.290   0.488  1.00  0.00    -0.336 OA
HETATM   12  C   UNL     1      40.275 -14.547   0.401  1.00  0.00     0.103 A 
HETATM   13  C   UNL     1      39.144 -14.787   1.185  1.00  0.00     0.102 A 
HETATM   14  C   UNL     1      40.277 -13.504  -0.525  1.00  0.00     0.040 A 
HETATM   15  O   UNL     1      39.062 -15.803   2.100  1.00  0.00    -0.345 OA
HETATM   16  C   UNL     1      38.029 -13.960   1.069  1.00  0.00     0.039 A 
HETATM   17  C   UNL     1      40.136 -16.741   1.957  1.00  0.00     0.213 C 
HETATM   18  C   UNL     1      38.034 -12.907   0.153  1.00  0.00     0.003 A 
HETATM   19  C   UNL     1      39.156 -12.682  -0.647  1.00  0.00     0.003 A 
ENDBRANCH   9  10
BRANCH   1  20
HETATM   20  N   UNL     1      42.692 -18.236   3.641  1.00  0.00    -0.366 N 
HETATM   21  H   UNL     1      41.815 -18.060   3.151  1.00  0.00     0.162 HD
BRANCH  20  22
HETATM   22  C   UNL     1      43.667 -18.945   2.796  1.00  0.00     0.021 C 
HETATM   23  C   UNL     1      44.640 -19.799   3.621  1.00  0.00     0.037 C 
HETATM   24  C   UNL     1      44.413 -17.968   1.877  1.00  0.00     0.037 C 
HETATM   25  C   UNL     1      42.845 -19.907   1.910  1.00  0.00     0.037 C 
ENDBRANCH  20  22
ENDBRANCH   1  20
TORSDOF 3
ENDMDL
MODEL 4
REMARK VINA RESULT:      -6.8      3.030      5.093
REMARK  3 active torsions:
REMARK  status: ('A' for Active; 'I' for Inactive)
REMARK    1  A    between atoms: C_2  and  N_3 
REMARK    2  A    between atoms: N_3  and  C_4 
REMARK    3  A    between atoms: C_12  and  C_13 
ROOT
HETATM    1  C   UNL     1      42.389 -16.185   4.364  1.00  0.00     0.139 A 
HETATM    2  N   UNL     1      43.323 -16.217   5.339  1.00  0.00    -0.224 NA
HETATM    3  C   UNL     1      43.588 -15.107   6.041  1.00  0.00     0.236 A 
HETATM    4  N   UNL     1      43.024 -13.910   5.904  1.00  0.00    -0.234 NA
HETATM    5  C   UNL     1      42.087 -13.898   4.943  1.00  0.00     0.113 A 
HETATM    6  C   UNL     1      41.699 -14.962   4.140  1.00  0.00     0.055 A 
HETATM    7  S   UNL     1      41.235 -12.464   4.613  1.00  0.00    -0.081 SA
HETATM    8  C   UNL     1      40.313 -13.222   3.400  1.00  0.00     0.062 A 
HETATM    9  C   UNL     1      40.628 -14.560   3.227  1.00  0.00    -0.003 A 
ENDROOT
BRANCH   9  10
HETATM   10  C   UNL     1      39.962 -15.496   2.228  1.00  0.00     0.188 C 
HETATM   11  O   UNL     1      40.820 -15.747   1.096  1.00  0.00    -0.336 OA
HETATM   12  C   UNL     1      40.698 -14.786   0.128  1.00  0.00     0.103 A 
HETATM   13  C   UNL     1      39.620 -13.899   0.059  1.00  0.00     0.102 A 
HETATM   14  C   UNL     1      41.721 -14.718  -0.816  1.00  0.00     0.040 A 
HETATM   15  O   UNL     1      38.570 -13.918   0.938  1.00  0.00    -0.345 OA
HETATM   16  C   UNL     1      39.588 -12.919  -0.931  1.00  0.00     0.039 A 
HETATM   17  C   UNL     1      38.563 -15.106   1.739  1.00  0.00     0.213 C 
HETATM   18  C   UNL     1      40.619 -12.840  -1.868  1.00  0.00     0.003 A 
HETATM   19  C   UNL     1      41.684 -13.742  -1.813  1.00  0.00     0.003 A 
ENDBRANCH   9  10
BRANCH   1  20
HETATM   20  N   UNL     1      42.117 -17.328   3.619  1.00  0.00    -0.366 N 
HETATM   21  H   UNL     1      41.220 -17.225   3.147  1.00  0.00     0.162 HD
BRANCH  20  22
HETATM   22  C   UNL     1      43.116 -18.000   2.773  1.00  0.00     0.021 C 
HETATM   23  C   UNL     1      43.986 -18.984   3.568  1.00  0.00     0.037 C 
HETATM   24  C   UNL     1      43.971 -16.978   2.011  1.00  0.00     0.037 C 
HETATM   25  C   UNL     1      42.315 -18.823   1.739  1.00  0.00     0.037 C 
ENDBRANCH  20  22
ENDBRANCH   1  20
TORSDOF 3
ENDMDL
MODEL 5
REMARK VINA RESULT:      -6.8      3.404      6.223
REMARK  3 active torsions:
REMARK  status: ('A' for Active; 'I' for Inactive)
REMARK    1  A    between atoms: C_2  and  N_3 
REMARK    2  A    between atoms: N_3  and  C_4 
REMARK    3  A    between atoms: C_12  and  C_13 
ROOT
HETATM    1  C   UNL     1      40.197 -14.732   1.855  1.00  0.00     0.139 A 
HETATM    2  N   UNL     1      40.145 -14.428   0.540  1.00  0.00    -0.224 NA
HETATM    3  C   UNL     1      40.807 -15.186  -0.343  1.00  0.00     0.236 A 
HETATM    4  N   UNL     1      41.549 -16.261  -0.089  1.00  0.00    -0.234 NA
HETATM    5  C   UNL     1      41.577 -16.561   1.219  1.00  0.00     0.113 A 
HETATM    6  C   UNL     1      40.942 -15.877   2.247  1.00  0.00     0.055 A 
HETATM    7  S   UNL     1      42.463 -17.908   1.757  1.00  0.00    -0.081 SA
HETATM    8  C   UNL     1      42.014 -17.630   3.376  1.00  0.00     0.062 A 
HETATM    9  C   UNL     1      41.192 -16.526   3.535  1.00  0.00    -0.003 A 
ENDROOT
BRANCH   9  10
HETATM   10  C   UNL     1      40.622 -16.041   4.860  1.00  0.00     0.188 C 
HETATM   11  O   UNL     1      41.126 -14.733   5.198  1.00  0.00    -0.336 OA
HETATM   12  C   UNL     1      42.330 -14.792   5.850  1.00  0.00     0.103 A 
HETATM   13  C   UNL     1      42.819 -15.953   6.453  1.00  0.00     0.102 A 
HETATM   14  C   UNL     1      43.076 -13.615   5.889  1.00  0.00     0.040 A 
HETATM   15  O   UNL     1      42.136 -17.140   6.471  1.00  0.00    -0.345 OA
HETATM   16  C   UNL     1      44.073 -15.947   7.060  1.00  0.00     0.039 A 
HETATM   17  C   UNL     1      40.772 -16.978   6.064  1.00  0.00     0.213 C 
HETATM   18  C   UNL     1      44.828 -14.773   7.088  1.00  0.00     0.003 A 
HETATM   19  C   UNL     1      44.328 -13.606   6.506  1.00  0.00     0.003 A 
ENDBRANCH   9  10
BRANCH   1  20
HETATM   20  N   UNL     1      39.525 -13.940   2.782  1.00  0.00    -0.366 N 
HETATM   21  H   UNL     1      39.497 -14.416   3.683  1.00  0.00     0.162 HD
BRANCH  20  22
HETATM   22  C   UNL     1      39.749 -12.493   2.925  1.00  0.00     0.021 C 
HETATM   23  C   UNL     1      38.933 -11.675   1.914  1.00  0.00     0.037 C 
HETATM   24  C   UNL     1      41.244 -12.155   2.849  1.00  0.00     0.037 C 
HETATM   25  C   UNL     1      39.242 -12.120   4.336  1.00  0.00     0.037 C 
ENDBRANCH  20  22
ENDBRANCH   1  20
TORSDOF 3
ENDMDL
MODEL 6
REMARK VINA RESULT:      -6.8      2.626      3.270
REMARK  3 active torsions:
REMARK  status: ('A' for Active; 'I' for Inactive)
REMARK    1  A    between atoms: C_2  and  N_3 
REMARK    2  A    between atoms: N_3  and  C_4 
REMARK    3  A    between atoms: C_12  and  C_13 
ROOT
HETATM    1  C   UNL     1      43.040 -18.575   3.881  1.00  0.00     0.139 A 
HETATM    2  N   UNL     1      43.676 -19.416   3.037  1.00  0.00    -0.224 NA
HETATM    3  C   UNL     1      43.786 -19.098   1.741  1.00  0.00     0.236 A 
HETATM    4  N   UNL     1      43.332 -18.003   1.137  1.00  0.00    -0.234 NA
HETATM    5  C   UNL     1      42.718 -17.169   1.990  1.00  0.00     0.113 A 
HETATM    6  C   UNL     1      42.532 -17.357   3.353  1.00  0.00     0.055 A 
HETATM    7  S   UNL     1      42.074 -15.703   1.421  1.00  0.00    -0.081 SA
HETATM    8  C   UNL     1      41.539 -15.267   2.978  1.00  0.00     0.062 A 
HETATM    9  C   UNL     1      41.839 -16.212   3.946  1.00  0.00    -0.003 A 
ENDROOT
BRANCH   9  10
HETATM   10  C   UNL     1      41.500 -16.091   5.425  1.00  0.00     0.188 C 
HETATM   11  O   UNL     1      40.270 -15.363   5.620  1.00  0.00    -0.336 OA
HETATM   12  C   UNL     1      40.468 -14.007   5.655  1.00  0.00     0.103 A 
HETATM   13  C   UNL     1      41.719 -13.420   5.864  1.00  0.00     0.102 A 
HETATM   14  C   UNL     1      39.343 -13.208   5.465  1.00  0.00     0.040 A 
HETATM   15  O   UNL     1      42.865 -14.140   6.076  1.00  0.00    -0.345 OA
HETATM   16  C   UNL     1      41.848 -12.033   5.843  1.00  0.00     0.039 A 
HETATM   17  C   UNL     1      42.588 -15.521   6.340  1.00  0.00     0.213 C 
HETATM   18  C   UNL     1      40.725 -11.231   5.638  1.00  0.00     0.003 A 
HETATM   19  C   UNL     1      39.471 -11.818   5.454  1.00  0.00     0.003 A 
ENDBRANCH   9  10
BRANCH   1  20
HETATM   20  N   UNL     1      42.907 -18.904   5.227  1.00  0.00    -0.366 N 
HETATM   21  H   UNL     1      42.111 -19.528   5.351  1.00  0.00     0.162 HD
BRANCH  20  22
HETATM   22  C   UNL     1      44.042 -19.275   6.087  1.00  0.00     0.021 C 
HETATM   23  C   UNL     1      45.289 -18.426   5.805  1.00  0.00     0.037 C 
HETATM   24  C   UNL     1      44.346 -20.776   5.982  1.00  0.00     0.037 C 
HETATM   25  C   UNL     1      43.596 -18.975   7.535  1.00  0.00     0.037 C 
ENDBRANCH  20  22
ENDBRANCH   1  20
TORSDOF 3
ENDMDL
MODEL 7
REMARK VINA RESULT:      -6.7      1.981      2.452
REMARK  3 active torsions:
REMARK  status: ('A' for Active; 'I' for Inactive)
REMARK    1  A    between atoms: C_2  and  N_3 
REMARK    2  A    between atoms: N_3  and  C_4 
REMARK    3  A    between atoms: C_12  and  C_13 
ROOT
HETATM    1  C   UNL     1      43.762 -17.887   4.193  1.00  0.00     0.139 A 
HETATM    2  N   UNL     1      44.235 -19.134   3.986  1.00  0.00    -0.224 NA
HETATM    3  C   UNL     1      43.790 -19.849   2.945  1.00  0.00     0.236 A 
HETATM    4  N   UNL     1      42.896 -19.477   2.032  1.00  0.00    -0.234 NA
HETATM    5  C   UNL     1      42.447 -18.229   2.241  1.00  0.00     0.113 A 
HETATM    6  C   UNL     1      42.816 -17.369   3.267  1.00  0.00     0.055 A 
HETATM    7  S   UNL     1      41.303 -17.555   1.180  1.00  0.00    -0.081 SA
HETATM    8  C   UNL     1      41.276 -16.090   2.047  1.00  0.00     0.062 A 
HETATM    9  C   UNL     1      42.125 -16.084   3.141  1.00  0.00    -0.003 A 
ENDROOT
BRANCH   9  10
HETATM   10  C   UNL     1      42.323 -14.913   4.092  1.00  0.00     0.188 C 
HETATM   11  O   UNL     1      41.081 -14.218   4.330  1.00  0.00    -0.336 OA
HETATM   12  C   UNL     1      40.823 -13.272   3.374  1.00  0.00     0.103 A 
HETATM   13  C   UNL     1      41.798 -12.771   2.508  1.00  0.00     0.102 A 
HETATM   14  C   UNL     1      39.509 -12.813   3.289  1.00  0.00     0.040 A 
HETATM   15  O   UNL     1      43.111 -13.159   2.543  1.00  0.00    -0.345 OA
HETATM   16  C   UNL     1      41.449 -11.841   1.531  1.00  0.00     0.039 A 
HETATM   17  C   UNL     1      43.417 -13.903   3.729  1.00  0.00     0.213 C 
HETATM   18  C   UNL     1      40.131 -11.391   1.435  1.00  0.00     0.003 A 
HETATM   19  C   UNL     1      39.162 -11.874   2.317  1.00  0.00     0.003 A 
ENDBRANCH   9  10
BRANCH   1  20
HETATM   20  N   UNL     1      44.206 -17.143   5.282  1.00  0.00    -0.366 N 
HETATM   21  H   UNL     1      44.287 -16.162   5.017  1.00  0.00     0.162 HD
BRANCH  20  22
HETATM   22  C   UNL     1      43.681 -17.308   6.646  1.00  0.00     0.021 C 
HETATM   23  C   UNL     1      44.465 -18.355   7.449  1.00  0.00     0.037 C 
HETATM   24  C   UNL     1      42.179 -17.622   6.624  1.00  0.00     0.037 C 
HETATM   25  C   UNL     1      43.878 -15.946   7.348  1.00  0.00     0.037 C 
ENDBRANCH  20  22
ENDBRANCH   1  20
TORSDOF 3
ENDMDL
MODEL 8
REMARK VINA RESULT:      -6.6      3.675      6.715
REMARK  3 active torsions:
REMARK  status: ('A' for Active; 'I' for Inactive)
REMARK    1  A    between atoms: C_2  and  N_3 
REMARK    2  A    between atoms: N_3  and  C_4 
REMARK    3  A    between atoms: C_12  and  C_13 
ROOT
HETATM    1  C   UNL     1      41.254 -14.355   2.428  1.00  0.00     0.139 A 
HETATM    2  N   UNL     1      40.138 -14.242   1.676  1.00  0.00    -0.224 NA
HETATM    3  C   UNL     1      39.087 -13.560   2.147  1.00  0.00     0.236 A 
HETATM    4  N   UNL     1      38.986 -12.939   3.320  1.00  0.00    -0.234 NA
HETATM    5  C   UNL     1      40.107 -13.046   4.048  1.00  0.00     0.113 A 
HETATM    6  C   UNL     1      41.274 -13.712   3.695  1.00  0.00     0.055 A 
HETATM    7  S   UNL     1      40.192 -12.314   5.580  1.00  0.00    -0.081 SA
HETATM    8  C   UNL     1      41.791 -12.850   5.813  1.00  0.00     0.062 A 
HETATM    9  C   UNL     1      42.285 -13.582   4.745  1.00  0.00    -0.003 A 
ENDROOT
BRANCH   9  10
HETATM   10  C   UNL     1      43.684 -14.176   4.661  1.00  0.00     0.188 C 
HETATM   11  O   UNL     1      43.633 -15.591   4.384  1.00  0.00    -0.336 OA
HETATM   12  C   UNL     1      43.489 -16.339   5.523  1.00  0.00     0.103 A 
HETATM   13  C   UNL     1      43.745 -15.843   6.804  1.00  0.00     0.102 A 
HETATM   14  C   UNL     1      43.061 -17.655   5.355  1.00  0.00     0.040 A 
HETATM   15  O   UNL     1      44.186 -14.570   7.046  1.00  0.00    -0.345 OA
HETATM   16  C   UNL     1      43.534 -16.653   7.918  1.00  0.00     0.039 A 
HETATM   17  C   UNL     1      44.619 -13.916   5.847  1.00  0.00     0.213 C 
HETATM   18  C   UNL     1      43.091 -17.966   7.752  1.00  0.00     0.003 A 
HETATM   19  C   UNL     1      42.858 -18.468   6.470  1.00  0.00     0.003 A 
ENDBRANCH   9  10
BRANCH   1  20
HETATM   20  N   UNL     1      42.346 -15.076   1.953  1.00  0.00    -0.366 N 
HETATM   21  H   UNL     1      43.121 -14.998   2.610  1.00  0.00     0.162 HD
BRANCH  20  22
HETATM   22  C   UNL     1      42.238 -16.427   1.380  1.00  0.00     0.021 C 
HETATM   23  C   UNL     1      41.743 -16.406  -0.072  1.00  0.00     0.037 C 
HETATM   24  C   UNL     1      41.366 -17.332   2.261  1.00  0.00     0.037 C 
HETATM   25  C   UNL     1      43.672 -17.002   1.371  1.00  0.00     0.037 C 
ENDBRANCH  20  22
ENDBRANCH   1  20
TORSDOF 3
ENDMDL
MODEL 9
REMARK VINA RESULT:      -6.5      4.195      6.584
REMARK  3 active torsions:
REMARK  status: ('A' for Active; 'I' for Inactive)
REMARK    1  A    between atoms: C_2  and  N_3 
REMARK    2  A    between atoms: N_3  and  C_4 
REMARK    3  A    between atoms: C_12  and  C_13 
ROOT
HETATM    1  C   UNL     1      40.200 -14.955   3.752  1.00  0.00     0.139 A 
HETATM    2  N   UNL     1      40.676 -14.999   5.015  1.00  0.00    -0.224 NA
HETATM    3  C   UNL     1      40.603 -13.909   5.791  1.00  0.00     0.236 A 
HETATM    4  N   UNL     1      40.094 -12.722   5.470  1.00  0.00    -0.234 NA
HETATM    5  C   UNL     1      39.610 -12.699   4.219  1.00  0.00     0.113 A 
HETATM    6  C   UNL     1      39.609 -13.743   3.303  1.00  0.00     0.055 A 
HETATM    7  S   UNL     1      38.904 -11.276   3.614  1.00  0.00    -0.081 SA
HETATM    8  C   UNL     1      38.562 -12.012   2.118  1.00  0.00     0.062 A 
HETATM    9  C   UNL     1      38.969 -13.335   2.051  1.00  0.00    -0.003 A 
ENDROOT
BRANCH   9  10
HETATM   10  C   UNL     1      38.784 -14.251   0.850  1.00  0.00     0.188 C 
HETATM   11  O   UNL     1      40.054 -14.607   0.265  1.00  0.00    -0.336 OA
HETATM   12  C   UNL     1      40.491 -13.673  -0.637  1.00  0.00     0.103 A 
HETATM   13  C   UNL     1      39.657 -12.708  -1.207  1.00  0.00     0.102 A 
HETATM   14  C   UNL     1      41.843 -13.717  -0.975  1.00  0.00     0.040 A 
HETATM   15  O   UNL     1      38.317 -12.614  -0.939  1.00  0.00    -0.345 OA
HETATM   16  C   UNL     1      40.184 -11.764  -2.085  1.00  0.00     0.039 A 
HETATM   17  C   UNL     1      37.828 -13.770  -0.247  1.00  0.00     0.213 C 
HETATM   18  C   UNL     1      41.540 -11.797  -2.413  1.00  0.00     0.003 A 
HETATM   19  C   UNL     1      42.369 -12.777  -1.861  1.00  0.00     0.003 A 
ENDBRANCH   9  10
BRANCH   1  20
HETATM   20  N   UNL     1      40.286 -16.077   2.934  1.00  0.00    -0.366 N 
HETATM   21  H   UNL     1      39.682 -15.957   2.122  1.00  0.00     0.162 HD
BRANCH  20  22
HETATM   22  C   UNL     1      41.557 -16.733   2.588  1.00  0.00     0.021 C 
HETATM   23  C   UNL     1      42.029 -17.701   3.682  1.00  0.00     0.037 C 
HETATM   24  C   UNL     1      42.637 -15.697   2.247  1.00  0.00     0.037 C 
HETATM   25  C   UNL     1      41.275 -17.570   1.320  1.00  0.00     0.037 C 
ENDBRANCH  20  22
ENDBRANCH   1  20
TORSDOF 3
ENDMDL
MODEL 10
REMARK VINA RESULT:      -6.4      4.450      7.889
REMARK  3 active torsions:
REMARK  status: ('A' for Active; 'I' for Inactive)
REMARK    1  A    between atoms: C_2  and  N_3 
REMARK    2  A    between atoms: N_3  and  C_4 
REMARK    3  A    between atoms: C_12  and  C_13 
ROOT
HETATM    1  C   UNL     1      39.639 -12.343   2.515  1.00  0.00     0.139 A 
HETATM    2  N   UNL     1      38.885 -11.258   2.238  1.00  0.00    -0.224 NA
HETATM    3  C   UNL     1      38.272 -10.603   3.233  1.00  0.00     0.236 A 
HETATM    4  N   UNL     1      38.309 -10.889   4.531  1.00  0.00    -0.234 NA
HETATM    5  C   UNL     1      39.076 -11.959   4.794  1.00  0.00     0.113 A 
HETATM    6  C   UNL     1      39.773 -12.733   3.875  1.00  0.00     0.055 A 
HETATM    7  S   UNL     1      39.266 -12.488   6.398  1.00  0.00    -0.081 SA
HETATM    8  C   UNL     1      40.296 -13.757   5.919  1.00  0.00     0.062 A 
HETATM    9  C   UNL     1      40.514 -13.800   4.551  1.00  0.00    -0.003 A 
ENDROOT
BRANCH   9  10
HETATM   10  C   UNL     1      41.398 -14.810   3.835  1.00  0.00     0.188 C 
HETATM   11  O   UNL     1      41.309 -16.111   4.451  1.00  0.00    -0.336 OA
HETATM   12  C   UNL     1      42.173 -16.248   5.505  1.00  0.00     0.103 A 
HETATM   13  C   UNL     1      43.264 -15.401   5.718  1.00  0.00     0.102 A 
HETATM   14  C   UNL     1      41.917 -17.294   6.390  1.00  0.00     0.040 A 
HETATM   15  O   UNL     1      43.589 -14.365   4.883  1.00  0.00    -0.345 OA
HETATM   16  C   UNL     1      44.074 -15.577   6.837  1.00  0.00     0.039 A 
HETATM   17  C   UNL     1      42.871 -14.430   3.644  1.00  0.00     0.213 C 
HETATM   18  C   UNL     1      43.810 -16.615   7.732  1.00  0.00     0.003 A 
HETATM   19  C   UNL     1      42.734 -17.477   7.506  1.00  0.00     0.003 A 
ENDBRANCH   9  10
BRANCH   1  20
HETATM   20  N   UNL     1      40.266 -13.040   1.487  1.00  0.00    -0.366 N 
HETATM   21  H   UNL     1      41.170 -13.384   1.806  1.00  0.00     0.162 HD
BRANCH  20  22
HETATM   22  C   UNL     1      39.573 -14.013   0.627  1.00  0.00     0.021 C 
HETATM   23  C   UNL     1      39.087 -13.387  -0.688  1.00  0.00     0.037 C 
HETATM   24  C   UNL     1      38.428 -14.699   1.382  1.00  0.00     0.037 C 
HETATM   25  C   UNL     1      40.624 -15.087   0.266  1.00  0.00     0.037 C 
ENDBRANCH  20  22
ENDBRANCH   1  20
TORSDOF 3
ENDMDL
