MODEL 1
REMARK VINA RESULT:      -8.4      0.000      0.000
REMARK  10 active torsions:
REMARK  status: ('A' for Active; 'I' for Inactive)
REMARK    1  A    between atoms: C_3  and  C_4 
REMARK    2  A    between atoms: C_4  and  C_5 
REMARK       I    between atoms: C_5  and  N_6 
REMARK    3  A    between atoms: N_6  and  C_7 
REMARK    4  A    between atoms: C_7  and  C_8 
REMARK    5  A    between atoms: C_8  and  O_9 
REMARK    6  A    between atoms: C_15  and  N_16 
REMARK       I    between atoms: N_16  and  C_17 
REMARK    7  A    between atoms: C_17  and  C_18 
REMARK    8  A    between atoms: C_28  and  C_29 
REMARK    9  A    between atoms: C_29  and  O_30 
REMARK   10  A    between atoms: C_32  and  O_33 
ROOT
HETATM    1  C   UNL     1      40.559 -16.844   6.431  1.00  0.00     0.016 C 
HETATM    2  C   UNL     1      41.727 -16.015   5.804  1.00  0.00    -0.030 C 
HETATM    3  C   UNL     1      42.033 -16.544   4.329  1.00  0.00     0.056 C 
HETATM    4  C   UNL     1      41.048 -15.956   3.339  1.00  0.00     0.056 C 
HETATM    5  C   UNL     1      40.136 -14.969   3.651  1.00  0.00     0.012 C 
HETATM    6  S   UNL     1      39.192 -14.582   2.293  1.00  0.00    -0.055 SA
HETATM    7  C   UNL     1      40.204 -15.576   1.337  1.00  0.00     0.173 C 
HETATM    8  N   UNL     1      41.117 -16.263   1.988  1.00  0.00    -0.227 NA
HETATM    9  C   UNL     1      40.000 -14.280   4.959  1.00  0.00     0.055 C 
HETATM   10  C   UNL     1      41.288 -14.487   5.803  1.00  0.00     0.012 C 
HETATM   11  C   UNL     1      42.454 -13.428   5.542  1.00  0.00     0.008 C 
HETATM   12  C   UNL     1      42.077 -12.149   6.348  1.00  0.00     0.020 C 
HETATM   13  C   UNL     1      43.814 -13.944   6.108  1.00  0.00     0.128 C 
HETATM   14  C   UNL     1      43.625 -14.954   7.232  1.00  0.00     0.033 C 
HETATM   15  C   UNL     1      42.969 -16.236   6.722  1.00  0.00     0.013 C 
ENDROOT
BRANCH   7  16
HETATM   16  N   UNL     1      40.186 -15.485  -0.031  1.00  0.00    -0.305 N 
HETATM   17  C   UNL     1      39.767 -14.373  -0.727  1.00  0.00     0.227 C 
HETATM   18  O   UNL     1      38.898 -13.594  -0.342  1.00  0.00    -0.273 OA
HETATM   19  H   UNL     1      40.541 -16.303  -0.513  1.00  0.00     0.171 HD
BRANCH  17  20
HETATM   20  C   UNL     1      40.516 -14.174  -2.049  1.00  0.00     0.078 C 
HETATM   21  C   UNL     1      41.049 -15.494  -2.628  1.00  0.00     0.014 C 
HETATM   22  C   UNL     1      39.962 -16.394  -3.224  1.00  0.00     0.001 C 
HETATM   23  C   UNL     1      39.067 -15.648  -4.207  1.00  0.00     0.000 C 
HETATM   24  C   UNL     1      38.504 -14.368  -3.602  1.00  0.00     0.001 C 
HETATM   25  C   UNL     1      39.616 -13.461  -3.074  1.00  0.00     0.014 C 
ENDBRANCH  17  20
ENDBRANCH   7  16
BRANCH   3  26
HETATM   26  C   UNL     1      42.066 -18.085   4.249  1.00  0.00     0.114 C 
BRANCH  26  27
HETATM   27  C   UNL     1      43.412 -18.673   3.872  1.00  0.00     0.218 C 
HETATM   28  N   UNL     1      43.374 -19.692   2.960  1.00  0.00    -0.359 N 
HETATM   29  H   UNL     1      42.538 -19.777   2.378  1.00  0.00     0.162 HD
HETATM   30  O   UNL     1      44.452 -18.298   4.411  1.00  0.00    -0.274 OA
BRANCH  28  31
HETATM   31  C   UNL     1      44.573 -20.399   2.563  1.00  0.00     0.148 C 
BRANCH  31  32
HETATM   32  C   UNL     1      44.264 -21.757   1.926  1.00  0.00     0.186 C 
BRANCH  32  33
HETATM   33  O   UNL     1      44.683 -22.874   2.725  1.00  0.00    -0.394 OA
HETATM   34  C   UNL     1      44.661 -22.585   4.121  1.00  0.00     0.201 C 
ENDBRANCH  32  33
ENDBRANCH  31  32
ENDBRANCH  28  31
ENDBRANCH  26  27
ENDBRANCH   3  26
BRANCH  11  35
HETATM   35  C   UNL     1      42.670 -12.991   4.067  1.00  0.00     0.176 C 
BRANCH  35  36
HETATM   36  O   UNL     1      42.028 -11.758   3.766  1.00  0.00    -0.400 OA
HETATM   37  H   UNL     1      41.764 -11.800   2.830  1.00  0.00     0.209 HD
ENDBRANCH  35  36
ENDBRANCH  11  35
BRANCH  13  38
HETATM   38  O   UNL     1      44.602 -14.552   5.084  1.00  0.00    -0.395 OA
HETATM   39  H   UNL     1      44.156 -15.376   4.815  1.00  0.00     0.210 HD
ENDBRANCH  13  38
TORSDOF 10
ENDMDL
MODEL 2
REMARK VINA RESULT:      -7.9      2.647      8.625
REMARK  10 active torsions:
REMARK  status: ('A' for Active; 'I' for Inactive)
REMARK    1  A    between atoms: C_3  and  C_4 
REMARK    2  A    between atoms: C_4  and  C_5 
REMARK       I    between atoms: C_5  and  N_6 
REMARK    3  A    between atoms: N_6  and  C_7 
REMARK    4  A    between atoms: C_7  and  C_8 
REMARK    5  A    between atoms: C_8  and  O_9 
REMARK    6  A    between atoms: C_15  and  N_16 
REMARK       I    between atoms: N_16  and  C_17 
REMARK    7  A    between atoms: C_17  and  C_18 
REMARK    8  A    between atoms: C_28  and  C_29 
REMARK    9  A    between atoms: C_29  and  O_30 
REMARK   10  A    between atoms: C_32  and  O_33 
ROOT
HETATM    1  C   UNL     1      42.365 -12.541  -2.240  1.00  0.00     0.016 C 
HETATM    2  C   UNL     1      40.930 -12.528  -1.620  1.00  0.00    -0.030 C 
HETATM    3  C   UNL     1      40.496 -14.015  -1.233  1.00  0.00     0.056 C 
HETATM    4  C   UNL     1      41.096 -14.414   0.099  1.00  0.00     0.056 C 
HETATM    5  C   UNL     1      41.771 -13.546   0.933  1.00  0.00     0.012 C 
HETATM    6  S   UNL     1      42.314 -14.358   2.322  1.00  0.00    -0.055 SA
HETATM    7  C   UNL     1      41.425 -15.735   1.835  1.00  0.00     0.173 C 
HETATM    8  N   UNL     1      40.854 -15.662   0.652  1.00  0.00    -0.227 NA
HETATM    9  C   UNL     1      41.971 -12.091   0.709  1.00  0.00     0.055 C 
HETATM   10  C   UNL     1      40.960 -11.574  -0.350  1.00  0.00     0.012 C 
HETATM   11  C   UNL     1      39.537 -11.131   0.223  1.00  0.00     0.008 C 
HETATM   12  C   UNL     1      39.723  -9.701   0.810  1.00  0.00     0.020 C 
HETATM   13  C   UNL     1      38.483 -11.023  -0.923  1.00  0.00     0.128 C 
HETATM   14  C   UNL     1      39.128 -10.771  -2.279  1.00  0.00     0.033 C 
HETATM   15  C   UNL     1      39.979 -11.961  -2.720  1.00  0.00     0.013 C 
ENDROOT
BRANCH   7  16
HETATM   16  N   UNL     1      41.161 -16.750   2.719  1.00  0.00    -0.305 N 
HETATM   17  C   UNL     1      42.130 -17.517   3.326  1.00  0.00     0.227 C 
HETATM   18  O   UNL     1      43.212 -17.805   2.820  1.00  0.00    -0.273 OA
HETATM   19  H   UNL     1      40.179 -16.883   2.927  1.00  0.00     0.171 HD
BRANCH  17  20
HETATM   20  C   UNL     1      41.738 -17.976   4.735  1.00  0.00     0.078 C 
HETATM   21  C   UNL     1      42.906 -18.637   5.484  1.00  0.00     0.014 C 
HETATM   22  C   UNL     1      43.977 -17.649   5.958  1.00  0.00     0.001 C 
HETATM   23  C   UNL     1      43.383 -16.475   6.728  1.00  0.00     0.000 C 
HETATM   24  C   UNL     1      42.262 -15.797   5.950  1.00  0.00     0.001 C 
HETATM   25  C   UNL     1      41.176 -16.795   5.547  1.00  0.00     0.014 C 
ENDBRANCH  17  20
ENDBRANCH   7  16
BRANCH   3  26
HETATM   26  C   UNL     1      40.838 -15.037  -2.338  1.00  0.00     0.114 C 
BRANCH  26  27
HETATM   27  C   UNL     1      39.682 -15.397  -3.252  1.00  0.00     0.218 C 
HETATM   28  N   UNL     1      38.444 -15.016  -2.812  1.00  0.00    -0.359 N 
HETATM   29  H   UNL     1      38.396 -14.277  -2.106  1.00  0.00     0.162 HD
HETATM   30  O   UNL     1      39.853 -16.050  -4.279  1.00  0.00    -0.274 OA
BRANCH  28  31
HETATM   31  C   UNL     1      37.241 -15.359  -3.541  1.00  0.00     0.148 C 
BRANCH  31  32
HETATM   32  C   UNL     1      36.664 -14.166  -4.307  1.00  0.00     0.186 C 
BRANCH  32  33
HETATM   33  O   UNL     1      35.869 -14.542  -5.441  1.00  0.00    -0.394 OA
HETATM   34  C   UNL     1      35.329 -13.414  -6.127  1.00  0.00     0.201 C 
ENDBRANCH  32  33
ENDBRANCH  31  32
ENDBRANCH  28  31
ENDBRANCH  26  27
ENDBRANCH   3  26
BRANCH  11  35
HETATM   35  C   UNL     1      38.944 -12.016   1.354  1.00  0.00     0.176 C 
BRANCH  35  36
HETATM   36  O   UNL     1      37.709 -11.513   1.846  1.00  0.00    -0.400 OA
HETATM   37  H   UNL     1      37.178 -11.263   1.069  1.00  0.00     0.209 HD
ENDBRANCH  35  36
ENDBRANCH  11  35
BRANCH  13  38
HETATM   38  O   UNL     1      37.696 -12.212  -1.014  1.00  0.00    -0.395 OA
HETATM   39  H   UNL     1      38.303 -12.974  -0.983  1.00  0.00     0.210 HD
ENDBRANCH  13  38
TORSDOF 10
ENDMDL
MODEL 3
REMARK VINA RESULT:      -7.9      1.607      2.263
REMARK  10 active torsions:
REMARK  status: ('A' for Active; 'I' for Inactive)
REMARK    1  A    between atoms: C_3  and  C_4 
REMARK    2  A    between atoms: C_4  and  C_5 
REMARK       I    between atoms: C_5  and  N_6 
REMARK    3  A    between atoms: N_6  and  C_7 
REMARK    4  A    between atoms: C_7  and  C_8 
REMARK    5  A    between atoms: C_8  and  O_9 
REMARK    6  A    between atoms: C_15  and  N_16 
REMARK       I    between atoms: N_16  and  C_17 
REMARK    7  A    between atoms: C_17  and  C_18 
REMARK    8  A    between atoms: C_28  and  C_29 
REMARK    9  A    between atoms: C_29  and  O_30 
REMARK   10  A    between atoms: C_32  and  O_33 
ROOT
HETATM    1  C   UNL     1      40.755 -17.157   4.984  1.00  0.00     0.016 C 
HETATM    2  C   UNL     1      41.752 -16.086   4.434  1.00  0.00    -0.030 C 
HETATM    3  C   UNL     1      41.869 -16.222   2.848  1.00  0.00     0.056 C 
HETATM    4  C   UNL     1      40.707 -15.527   2.168  1.00  0.00     0.056 C 
HETATM    5  C   UNL     1      39.784 -14.742   2.828  1.00  0.00     0.012 C 
HETATM    6  S   UNL     1      38.622 -14.151   1.740  1.00  0.00    -0.055 SA
HETATM    7  C   UNL     1      39.546 -14.783   0.447  1.00  0.00     0.173 C 
HETATM    8  N   UNL     1      40.594 -15.502   0.786  1.00  0.00    -0.227 NA
HETATM    9  C   UNL     1      39.799 -14.394   4.272  1.00  0.00     0.055 C 
HETATM   10  C   UNL     1      41.211 -14.655   4.865  1.00  0.00     0.012 C 
HETATM   11  C   UNL     1      42.245 -13.448   4.724  1.00  0.00     0.008 C 
HETATM   12  C   UNL     1      41.904 -12.439   5.861  1.00  0.00     0.020 C 
HETATM   13  C   UNL     1      43.708 -13.934   4.966  1.00  0.00     0.128 C 
HETATM   14  C   UNL     1      43.764 -15.193   5.821  1.00  0.00     0.033 C 
HETATM   15  C   UNL     1      43.131 -16.383   5.101  1.00  0.00     0.013 C 
ENDROOT
BRANCH   7  16
HETATM   16  N   UNL     1      39.316 -14.378  -0.843  1.00  0.00    -0.305 N 
HETATM   17  C   UNL     1      39.885 -13.262  -1.416  1.00  0.00     0.227 C 
HETATM   18  O   UNL     1      40.181 -12.238  -0.806  1.00  0.00    -0.273 OA
HETATM   19  H   UNL     1      38.707 -14.988  -1.375  1.00  0.00     0.171 HD
BRANCH  17  20
HETATM   20  C   UNL     1      40.142 -13.422  -2.918  1.00  0.00     0.078 C 
HETATM   21  C   UNL     1      39.945 -12.109  -3.692  1.00  0.00     0.014 C 
HETATM   22  C   UNL     1      41.065 -11.087  -3.473  1.00  0.00     0.001 C 
HETATM   23  C   UNL     1      42.449 -11.688  -3.690  1.00  0.00     0.000 C 
HETATM   24  C   UNL     1      42.648 -12.961  -2.877  1.00  0.00     0.001 C 
HETATM   25  C   UNL     1      41.552 -13.987  -3.164  1.00  0.00     0.014 C 
ENDBRANCH  17  20
ENDBRANCH   7  16
BRANCH   3  26
HETATM   26  C   UNL     1      42.000 -17.689   2.389  1.00  0.00     0.114 C 
BRANCH  26  27
HETATM   27  C   UNL     1      43.409 -18.250   2.444  1.00  0.00     0.218 C 
HETATM   28  N   UNL     1      43.549 -19.423   3.133  1.00  0.00    -0.359 N 
HETATM   29  H   UNL     1      42.711 -19.989   3.284  1.00  0.00     0.162 HD
HETATM   30  O   UNL     1      44.362 -17.642   1.959  1.00  0.00    -0.274 OA
BRANCH  28  31
HETATM   31  C   UNL     1      44.845 -20.035   3.334  1.00  0.00     0.148 C 
BRANCH  31  32
HETATM   32  C   UNL     1      44.957 -20.731   4.692  1.00  0.00     0.186 C 
BRANCH  32  33
HETATM   33  O   UNL     1      44.226 -20.073   5.738  1.00  0.00    -0.394 OA
HETATM   34  C   UNL     1      43.780 -20.978   6.745  1.00  0.00     0.201 C 
ENDBRANCH  32  33
ENDBRANCH  31  32
ENDBRANCH  28  31
ENDBRANCH  26  27
ENDBRANCH   3  26
BRANCH  11  35
HETATM   35  C   UNL     1      42.205 -12.659   3.386  1.00  0.00     0.176 C 
BRANCH  35  36
HETATM   36  O   UNL     1      41.633 -11.365   3.535  1.00  0.00    -0.400 OA
HETATM   37  H   UNL     1      41.224 -11.339   4.417  1.00  0.00     0.209 HD
ENDBRANCH  35  36
ENDBRANCH  11  35
BRANCH  13  38
HETATM   38  O   UNL     1      44.374 -14.201   3.730  1.00  0.00    -0.395 OA
HETATM   39  H   UNL     1      44.816 -15.065   3.811  1.00  0.00     0.210 HD
ENDBRANCH  13  38
TORSDOF 10
ENDMDL
MODEL 4
REMARK VINA RESULT:      -7.8      2.504      3.317
REMARK  10 active torsions:
REMARK  status: ('A' for Active; 'I' for Inactive)
REMARK    1  A    between atoms: C_3  and  C_4 
REMARK    2  A    between atoms: C_4  and  C_5 
REMARK       I    between atoms: C_5  and  N_6 
REMARK    3  A    between atoms: N_6  and  C_7 
REMARK    4  A    between atoms: C_7  and  C_8 
REMARK    5  A    between atoms: C_8  and  O_9 
REMARK    6  A    between atoms: C_15  and  N_16 
REMARK       I    between atoms: N_16  and  C_17 
REMARK    7  A    between atoms: C_17  and  C_18 
REMARK    8  A    between atoms: C_28  and  C_29 
REMARK    9  A    between atoms: C_29  and  O_30 
REMARK   10  A    between atoms: C_32  and  O_33 
ROOT
HETATM    1  C   UNL     1      39.514 -16.675   2.363  1.00  0.00     0.016 C 
HETATM    2  C   UNL     1      40.765 -15.957   2.967  1.00  0.00    -0.030 C 
HETATM    3  C   UNL     1      41.859 -15.730   1.827  1.00  0.00     0.056 C 
HETATM    4  C   UNL     1      41.521 -14.505   1.002  1.00  0.00     0.056 C 
HETATM    5  C   UNL     1      40.509 -13.620   1.314  1.00  0.00     0.012 C 
HETATM    6  S   UNL     1      40.420 -12.387   0.150  1.00  0.00    -0.055 SA
HETATM    7  C   UNL     1      41.863 -12.978  -0.552  1.00  0.00     0.173 C 
HETATM    8  N   UNL     1      42.332 -14.098  -0.046  1.00  0.00    -0.227 NA
HETATM    9  C   UNL     1      39.635 -13.672   2.513  1.00  0.00     0.055 C 
HETATM   10  C   UNL     1      40.276 -14.583   3.597  1.00  0.00     0.012 C 
HETATM   11  C   UNL     1      41.309 -13.857   4.574  1.00  0.00     0.008 C 
HETATM   12  C   UNL     1      40.457 -13.109   5.642  1.00  0.00     0.020 C 
HETATM   13  C   UNL     1      42.185 -14.902   5.335  1.00  0.00     0.128 C 
HETATM   14  C   UNL     1      41.501 -16.258   5.443  1.00  0.00     0.033 C 
HETATM   15  C   UNL     1      41.329 -16.905   4.070  1.00  0.00     0.013 C 
ENDROOT
BRANCH   7  16
HETATM   16  N   UNL     1      42.580 -12.212  -1.436  1.00  0.00    -0.305 N 
HETATM   17  C   UNL     1      42.350 -12.178  -2.793  1.00  0.00     0.227 C 
HETATM   18  O   UNL     1      41.931 -13.125  -3.455  1.00  0.00    -0.273 OA
HETATM   19  H   UNL     1      43.292 -11.631  -1.009  1.00  0.00     0.171 HD
BRANCH  17  20
HETATM   20  C   UNL     1      42.649 -10.812  -3.419  1.00  0.00     0.078 C 
HETATM   21  C   UNL     1      42.176 -10.717  -4.879  1.00  0.00     0.014 C 
HETATM   22  C   UNL     1      40.656 -10.605  -5.032  1.00  0.00     0.001 C 
HETATM   23  C   UNL     1      40.065  -9.505  -4.158  1.00  0.00     0.000 C 
HETATM   24  C   UNL     1      40.500  -9.642  -2.704  1.00  0.00     0.001 C 
HETATM   25  C   UNL     1      42.023  -9.686  -2.576  1.00  0.00     0.014 C 
ENDBRANCH  17  20
ENDBRANCH   7  16
BRANCH   3  26
HETATM   26  C   UNL     1      42.053 -16.977   0.938  1.00  0.00     0.114 C 
BRANCH  26  27
HETATM   27  C   UNL     1      43.222 -17.861   1.329  1.00  0.00     0.218 C 
HETATM   28  N   UNL     1      42.890 -19.111   1.774  1.00  0.00    -0.359 N 
HETATM   29  H   UNL     1      41.966 -19.474   1.529  1.00  0.00     0.162 HD
HETATM   30  O   UNL     1      44.379 -17.444   1.310  1.00  0.00    -0.274 OA
BRANCH  28  31
HETATM   31  C   UNL     1      43.895 -20.037   2.252  1.00  0.00     0.148 C 
BRANCH  31  32
HETATM   32  C   UNL     1      43.613 -21.478   1.820  1.00  0.00     0.186 C 
BRANCH  32  33
HETATM   33  O   UNL     1      44.634 -22.407   2.216  1.00  0.00    -0.394 OA
HETATM   34  C   UNL     1      44.635 -22.650   3.621  1.00  0.00     0.201 C 
ENDBRANCH  32  33
ENDBRANCH  31  32
ENDBRANCH  28  31
ENDBRANCH  26  27
ENDBRANCH   3  26
BRANCH  11  35
HETATM   35  C   UNL     1      42.251 -12.807   3.924  1.00  0.00     0.176 C 
BRANCH  35  36
HETATM   36  O   UNL     1      41.829 -11.472   4.171  1.00  0.00    -0.400 OA
HETATM   37  H   UNL     1      41.438 -11.143   3.343  1.00  0.00     0.209 HD
ENDBRANCH  35  36
ENDBRANCH  11  35
BRANCH  13  38
HETATM   38  O   UNL     1      43.447 -15.085   4.690  1.00  0.00    -0.395 OA
HETATM   39  H   UNL     1      43.963 -15.718   5.221  1.00  0.00     0.210 HD
ENDBRANCH  13  38
TORSDOF 10
ENDMDL
MODEL 5
REMARK VINA RESULT:      -7.5      3.434      9.204
REMARK  10 active torsions:
REMARK  status: ('A' for Active; 'I' for Inactive)
REMARK    1  A    between atoms: C_3  and  C_4 
REMARK    2  A    between atoms: C_4  and  C_5 
REMARK       I    between atoms: C_5  and  N_6 
REMARK    3  A    between atoms: N_6  and  C_7 
REMARK    4  A    between atoms: C_7  and  C_8 
REMARK    5  A    between atoms: C_8  and  O_9 
REMARK    6  A    between atoms: C_15  and  N_16 
REMARK       I    between atoms: N_16  and  C_17 
REMARK    7  A    between atoms: C_17  and  C_18 
REMARK    8  A    between atoms: C_28  and  C_29 
REMARK    9  A    between atoms: C_29  and  O_30 
REMARK   10  A    between atoms: C_32  and  O_33 
ROOT
HETATM    1  C   UNL     1      38.044 -14.280  -2.461  1.00  0.00     0.016 C 
HETATM    2  C   UNL     1      39.011 -13.204  -1.868  1.00  0.00    -0.030 C 
HETATM    3  C   UNL     1      38.992 -13.284  -0.273  1.00  0.00     0.056 C 
HETATM    4  C   UNL     1      39.893 -14.400   0.213  1.00  0.00     0.056 C 
HETATM    5  C   UNL     1      40.740 -15.121  -0.604  1.00  0.00     0.012 C 
HETATM    6  S   UNL     1      41.572 -16.298   0.293  1.00  0.00    -0.055 SA
HETATM    7  C   UNL     1      40.931 -15.623   1.727  1.00  0.00     0.173 C 
HETATM    8  N   UNL     1      40.049 -14.660   1.566  1.00  0.00    -0.227 NA
HETATM    9  C   UNL     1      40.961 -14.896  -2.056  1.00  0.00     0.055 C 
HETATM   10  C   UNL     1      40.461 -13.481  -2.456  1.00  0.00     0.012 C 
HETATM   11  C   UNL     1      41.523 -12.304  -2.271  1.00  0.00     0.008 C 
HETATM   12  C   UNL     1      42.471 -12.367  -3.506  1.00  0.00     0.020 C 
HETATM   13  C   UNL     1      40.823 -10.909  -2.301  1.00  0.00     0.128 C 
HETATM   14  C   UNL     1      39.502 -10.944  -3.058  1.00  0.00     0.033 C 
HETATM   15  C   UNL     1      38.473 -11.818  -2.342  1.00  0.00     0.013 C 
ENDROOT
BRANCH   7  16
HETATM   16  N   UNL     1      41.469 -15.932   2.950  1.00  0.00    -0.305 N 
HETATM   17  C   UNL     1      42.363 -15.132   3.626  1.00  0.00     0.227 C 
HETATM   18  O   UNL     1      43.188 -14.398   3.088  1.00  0.00    -0.273 OA
HETATM   19  H   UNL     1      41.133 -16.799   3.353  1.00  0.00     0.171 HD
BRANCH  17  20
HETATM   20  C   UNL     1      42.221 -15.224   5.149  1.00  0.00     0.078 C 
HETATM   21  C   UNL     1      42.722 -13.959   5.864  1.00  0.00     0.014 C 
HETATM   22  C   UNL     1      41.791 -12.752   5.715  1.00  0.00     0.001 C 
HETATM   23  C   UNL     1      40.346 -13.087   6.071  1.00  0.00     0.000 C 
HETATM   24  C   UNL     1      39.846 -14.311   5.315  1.00  0.00     0.001 C 
HETATM   25  C   UNL     1      40.760 -15.518   5.535  1.00  0.00     0.014 C 
ENDBRANCH  17  20
ENDBRANCH   7  16
BRANCH   3  26
HETATM   26  C   UNL     1      37.564 -13.419   0.295  1.00  0.00     0.114 C 
BRANCH  26  27
HETATM   27  C   UNL     1      37.035 -12.178   0.989  1.00  0.00     0.218 C 
HETATM   28  N   UNL     1      35.794 -11.765   0.590  1.00  0.00    -0.359 N 
HETATM   29  H   UNL     1      35.194 -12.447   0.120  1.00  0.00     0.162 HD
HETATM   30  O   UNL     1      37.718 -11.554   1.800  1.00  0.00    -0.274 OA
BRANCH  28  31
HETATM   31  C   UNL     1      35.194 -10.554   1.109  1.00  0.00     0.148 C 
BRANCH  31  32
HETATM   32  C   UNL     1      33.669 -10.651   1.198  1.00  0.00     0.186 C 
BRANCH  32  33
HETATM   33  O   UNL     1      33.146 -10.301   2.489  1.00  0.00    -0.394 OA
HETATM   34  C   UNL     1      31.917 -10.966   2.777  1.00  0.00     0.201 C 
ENDBRANCH  32  33
ENDBRANCH  31  32
ENDBRANCH  28  31
ENDBRANCH  26  27
ENDBRANCH   3  26
BRANCH  11  35
HETATM   35  C   UNL     1      42.419 -12.376  -1.004  1.00  0.00     0.176 C 
BRANCH  35  36
HETATM   36  O   UNL     1      43.325 -11.283  -0.915  1.00  0.00    -0.400 OA
HETATM   37  H   UNL     1      42.813 -10.520  -0.596  1.00  0.00     0.209 HD
ENDBRANCH  35  36
ENDBRANCH  11  35
BRANCH  13  38
HETATM   38  O   UNL     1      40.571 -10.430  -0.980  1.00  0.00    -0.395 OA
HETATM   39  H   UNL     1      39.716 -10.793  -0.688  1.00  0.00     0.210 HD
ENDBRANCH  13  38
TORSDOF 10
ENDMDL
MODEL 6
REMARK VINA RESULT:      -7.5      2.748      8.658
REMARK  10 active torsions:
REMARK  status: ('A' for Active; 'I' for Inactive)
REMARK    1  A    between atoms: C_3  and  C_4 
REMARK    2  A    between atoms: C_4  and  C_5 
REMARK       I    between atoms: C_5  and  N_6 
REMARK    3  A    between atoms: N_6  and  C_7 
REMARK    4  A    between atoms: C_7  and  C_8 
REMARK    5  A    between atoms: C_8  and  O_9 
REMARK    6  A    between atoms: C_15  and  N_16 
REMARK       I    between atoms: N_16  and  C_17 
REMARK    7  A    between atoms: C_17  and  C_18 
REMARK    8  A    between atoms: C_28  and  C_29 
REMARK    9  A    between atoms: C_29  and  O_30 
REMARK   10  A    between atoms: C_32  and  O_33 
ROOT
HETATM    1  C   UNL     1      38.016 -13.805  -2.365  1.00  0.00     0.016 C 
HETATM    2  C   UNL     1      39.054 -12.760  -1.843  1.00  0.00    -0.030 C 
HETATM    3  C   UNL     1      39.126 -12.821  -0.249  1.00  0.00     0.056 C 
HETATM    4  C   UNL     1      40.012 -13.964   0.199  1.00  0.00     0.056 C 
HETATM    5  C   UNL     1      40.783 -14.725  -0.656  1.00  0.00     0.012 C 
HETATM    6  S   UNL     1      41.622 -15.923   0.208  1.00  0.00    -0.055 SA
HETATM    7  C   UNL     1      41.090 -15.209   1.668  1.00  0.00     0.173 C 
HETATM    8  N   UNL     1      40.236 -14.216   1.545  1.00  0.00    -0.227 NA
HETATM    9  C   UNL     1      40.927 -14.526  -2.120  1.00  0.00     0.055 C 
HETATM   10  C   UNL     1      40.457 -13.097  -2.509  1.00  0.00     0.012 C 
HETATM   11  C   UNL     1      41.571 -11.959  -2.402  1.00  0.00     0.008 C 
HETATM   12  C   UNL     1      42.442 -12.071  -3.688  1.00  0.00     0.020 C 
HETATM   13  C   UNL     1      40.921 -10.539  -2.410  1.00  0.00     0.128 C 
HETATM   14  C   UNL     1      39.558 -10.533  -3.089  1.00  0.00     0.033 C 
HETATM   15  C   UNL     1      38.542 -11.360  -2.303  1.00  0.00     0.013 C 
ENDROOT
BRANCH   7  16
HETATM   16  N   UNL     1      41.686 -15.524   2.862  1.00  0.00    -0.305 N 
HETATM   17  C   UNL     1      42.220 -16.759   3.156  1.00  0.00     0.227 C 
HETATM   18  O   UNL     1      41.800 -17.826   2.715  1.00  0.00    -0.273 OA
HETATM   19  H   UNL     1      41.737 -14.759   3.523  1.00  0.00     0.171 HD
BRANCH  17  20
HETATM   20  C   UNL     1      43.432 -16.682   4.091  1.00  0.00     0.078 C 
HETATM   21  C   UNL     1      43.249 -15.640   5.207  1.00  0.00     0.014 C 
HETATM   22  C   UNL     1      42.265 -16.068   6.299  1.00  0.00     0.001 C 
HETATM   23  C   UNL     1      42.573 -17.457   6.846  1.00  0.00     0.000 C 
HETATM   24  C   UNL     1      42.700 -18.489   5.733  1.00  0.00     0.001 C 
HETATM   25  C   UNL     1      43.736 -18.066   4.691  1.00  0.00     0.014 C 
ENDBRANCH  17  20
ENDBRANCH   7  16
BRANCH   3  26
HETATM   26  C   UNL     1      37.729 -12.896   0.402  1.00  0.00     0.114 C 
BRANCH  26  27
HETATM   27  C   UNL     1      37.439 -11.804   1.414  1.00  0.00     0.218 C 
HETATM   28  N   UNL     1      38.319 -11.720   2.458  1.00  0.00    -0.359 N 
HETATM   29  H   UNL     1      39.240 -12.149   2.339  1.00  0.00     0.162 HD
HETATM   30  O   UNL     1      36.437 -11.096   1.327  1.00  0.00    -0.274 OA
BRANCH  28  31
HETATM   31  C   UNL     1      38.127 -10.777   3.539  1.00  0.00     0.148 C 
BRANCH  31  32
HETATM   32  C   UNL     1      39.080 -11.029   4.709  1.00  0.00     0.186 C 
BRANCH  32  33
HETATM   33  O   UNL     1      38.583 -11.984   5.659  1.00  0.00    -0.394 OA
HETATM   34  C   UNL     1      39.495 -13.058   5.881  1.00  0.00     0.201 C 
ENDBRANCH  32  33
ENDBRANCH  31  32
ENDBRANCH  28  31
ENDBRANCH  26  27
ENDBRANCH   3  26
BRANCH  11  35
HETATM   35  C   UNL     1      42.535 -12.050  -1.187  1.00  0.00     0.176 C 
BRANCH  35  36
HETATM   36  O   UNL     1      43.521 -11.026  -1.198  1.00  0.00    -0.400 OA
HETATM   37  H   UNL     1      43.574 -10.677  -0.291  1.00  0.00     0.209 HD
ENDBRANCH  35  36
ENDBRANCH  11  35
BRANCH  13  38
HETATM   38  O   UNL     1      40.765 -10.036  -1.083  1.00  0.00    -0.395 OA
HETATM   39  H   UNL     1      41.411 -10.491  -0.513  1.00  0.00     0.210 HD
ENDBRANCH  13  38
TORSDOF 10
ENDMDL
MODEL 7
REMARK VINA RESULT:      -7.4      3.261      8.853
REMARK  10 active torsions:
REMARK  status: ('A' for Active; 'I' for Inactive)
REMARK    1  A    between atoms: C_3  and  C_4 
REMARK    2  A    between atoms: C_4  and  C_5 
REMARK       I    between atoms: C_5  and  N_6 
REMARK    3  A    between atoms: N_6  and  C_7 
REMARK    4  A    between atoms: C_7  and  C_8 
REMARK    5  A    between atoms: C_8  and  O_9 
REMARK    6  A    between atoms: C_15  and  N_16 
REMARK       I    between atoms: N_16  and  C_17 
REMARK    7  A    between atoms: C_17  and  C_18 
REMARK    8  A    between atoms: C_28  and  C_29 
REMARK    9  A    between atoms: C_29  and  O_30 
REMARK   10  A    between atoms: C_32  and  O_33 
ROOT
HETATM    1  C   UNL     1      37.944 -13.204  -3.468  1.00  0.00     0.016 C 
HETATM    2  C   UNL     1      38.941 -12.183  -2.828  1.00  0.00    -0.030 C 
HETATM    3  C   UNL     1      38.896 -12.310  -1.237  1.00  0.00     0.056 C 
HETATM    4  C   UNL     1      39.747 -13.473  -0.773  1.00  0.00     0.056 C 
HETATM    5  C   UNL     1      40.579 -14.200  -1.599  1.00  0.00     0.012 C 
HETATM    6  S   UNL     1      41.353 -15.435  -0.727  1.00  0.00    -0.055 SA
HETATM    7  C   UNL     1      40.715 -14.780   0.718  1.00  0.00     0.173 C 
HETATM    8  N   UNL     1      39.872 -13.781   0.574  1.00  0.00    -0.227 NA
HETATM    9  C   UNL     1      40.830 -13.941  -3.040  1.00  0.00     0.055 C 
HETATM   10  C   UNL     1      40.389 -12.496  -3.403  1.00  0.00     0.012 C 
HETATM   11  C   UNL     1      41.492 -11.366  -3.167  1.00  0.00     0.008 C 
HETATM   12  C   UNL     1      42.455 -11.427  -4.390  1.00  0.00     0.020 C 
HETATM   13  C   UNL     1      40.844  -9.946  -3.165  1.00  0.00     0.128 C 
HETATM   14  C   UNL     1      39.534  -9.908  -3.941  1.00  0.00     0.033 C 
HETATM   15  C   UNL     1      38.463 -10.764  -3.267  1.00  0.00     0.013 C 
ENDROOT
BRANCH   7  16
HETATM   16  N   UNL     1      41.222 -15.146   1.939  1.00  0.00    -0.305 N 
HETATM   17  C   UNL     1      41.182 -16.429   2.438  1.00  0.00     0.227 C 
HETATM   18  O   UNL     1      40.295 -17.245   2.202  1.00  0.00    -0.273 OA
HETATM   19  H   UNL     1      41.668 -14.396   2.453  1.00  0.00     0.171 HD
BRANCH  17  20
HETATM   20  C   UNL     1      42.388 -16.766   3.324  1.00  0.00     0.078 C 
HETATM   21  C   UNL     1      42.448 -18.257   3.693  1.00  0.00     0.014 C 
HETATM   22  C   UNL     1      42.874 -19.165   2.535  1.00  0.00     0.001 C 
HETATM   23  C   UNL     1      44.152 -18.682   1.859  1.00  0.00     0.000 C 
HETATM   24  C   UNL     1      44.058 -17.217   1.451  1.00  0.00     0.001 C 
HETATM   25  C   UNL     1      43.695 -16.326   2.640  1.00  0.00     0.014 C 
ENDBRANCH  17  20
ENDBRANCH   7  16
BRANCH   3  26
HETATM   26  C   UNL     1      37.455 -12.408  -0.694  1.00  0.00     0.114 C 
BRANCH  26  27
HETATM   27  C   UNL     1      37.102 -11.380   0.364  1.00  0.00     0.218 C 
HETATM   28  N   UNL     1      38.133 -10.578   0.772  1.00  0.00    -0.359 N 
HETATM   29  H   UNL     1      38.945 -10.499   0.156  1.00  0.00     0.162 HD
HETATM   30  O   UNL     1      35.979 -11.329   0.863  1.00  0.00    -0.274 OA
BRANCH  28  31
HETATM   31  C   UNL     1      37.963  -9.603   1.828  1.00  0.00     0.148 C 
BRANCH  31  32
HETATM   32  C   UNL     1      38.707  -9.994   3.107  1.00  0.00     0.186 C 
BRANCH  32  33
HETATM   33  O   UNL     1      38.307 -11.267   3.638  1.00  0.00    -0.394 OA
HETATM   34  C   UNL     1      39.407 -12.160   3.800  1.00  0.00     0.201 C 
ENDBRANCH  32  33
ENDBRANCH  31  32
ENDBRANCH  28  31
ENDBRANCH  26  27
ENDBRANCH   3  26
BRANCH  11  35
HETATM   35  C   UNL     1      42.364 -11.510  -1.890  1.00  0.00     0.176 C 
BRANCH  35  36
HETATM   36  O   UNL     1      43.306 -10.453  -1.753  1.00  0.00    -0.400 OA
HETATM   37  H   UNL     1      43.757 -10.587  -0.901  1.00  0.00     0.209 HD
ENDBRANCH  35  36
ENDBRANCH  11  35
BRANCH  13  38
HETATM   38  O   UNL     1      40.590  -9.497  -1.832  1.00  0.00    -0.395 OA
HETATM   39  H   UNL     1      41.448  -9.288  -1.420  1.00  0.00     0.210 HD
ENDBRANCH  13  38
TORSDOF 10
ENDMDL
MODEL 8
REMARK VINA RESULT:      -7.4      3.048      6.234
REMARK  10 active torsions:
REMARK  status: ('A' for Active; 'I' for Inactive)
REMARK    1  A    between atoms: C_3  and  C_4 
REMARK    2  A    between atoms: C_4  and  C_5 
REMARK       I    between atoms: C_5  and  N_6 
REMARK    3  A    between atoms: N_6  and  C_7 
REMARK    4  A    between atoms: C_7  and  C_8 
REMARK    5  A    between atoms: C_8  and  O_9 
REMARK    6  A    between atoms: C_15  and  N_16 
REMARK       I    between atoms: N_16  and  C_17 
REMARK    7  A    between atoms: C_17  and  C_18 
REMARK    8  A    between atoms: C_28  and  C_29 
REMARK    9  A    between atoms: C_29  and  O_30 
REMARK   10  A    between atoms: C_32  and  O_33 
ROOT
HETATM    1  C   UNL     1      44.054 -13.987   5.156  1.00  0.00     0.016 C 
HETATM    2  C   UNL     1      42.776 -14.884   5.070  1.00  0.00    -0.030 C 
HETATM    3  C   UNL     1      41.501 -13.976   4.753  1.00  0.00     0.056 C 
HETATM    4  C   UNL     1      41.421 -13.673   3.271  1.00  0.00     0.056 C 
HETATM    5  C   UNL     1      42.236 -14.250   2.319  1.00  0.00     0.012 C 
HETATM    6  S   UNL     1      41.864 -13.649   0.775  1.00  0.00    -0.055 SA
HETATM    7  C   UNL     1      40.508 -12.847   1.440  1.00  0.00     0.173 C 
HETATM    8  N   UNL     1      40.391 -12.905   2.749  1.00  0.00    -0.227 NA
HETATM    9  C   UNL     1      43.268 -15.291   2.561  1.00  0.00     0.055 C 
HETATM   10  C   UNL     1      43.023 -15.970   3.937  1.00  0.00     0.012 C 
HETATM   11  C   UNL     1      42.008 -17.202   3.919  1.00  0.00     0.008 C 
HETATM   12  C   UNL     1      42.815 -18.431   3.405  1.00  0.00     0.020 C 
HETATM   13  C   UNL     1      41.521 -17.544   5.362  1.00  0.00     0.128 C 
HETATM   14  C   UNL     1      42.507 -17.086   6.428  1.00  0.00     0.033 C 
HETATM   15  C   UNL     1      42.617 -15.563   6.466  1.00  0.00     0.013 C 
ENDROOT
BRANCH   7  16
HETATM   16  N   UNL     1      39.510 -12.366   0.632  1.00  0.00    -0.305 N 
HETATM   17  C   UNL     1      39.726 -11.569  -0.471  1.00  0.00     0.227 C 
HETATM   18  O   UNL     1      40.647 -10.763  -0.581  1.00  0.00    -0.273 OA
HETATM   19  H   UNL     1      38.578 -12.667   0.887  1.00  0.00     0.171 HD
BRANCH  17  20
HETATM   20  C   UNL     1      38.701 -11.798  -1.587  1.00  0.00     0.078 C 
HETATM   21  C   UNL     1      39.242 -11.404  -2.971  1.00  0.00     0.014 C 
HETATM   22  C   UNL     1      40.275 -12.383  -3.535  1.00  0.00     0.001 C 
HETATM   23  C   UNL     1      39.790 -13.828  -3.491  1.00  0.00     0.000 C 
HETATM   24  C   UNL     1      39.307 -14.221  -2.101  1.00  0.00     0.001 C 
HETATM   25  C   UNL     1      38.229 -13.263  -1.590  1.00  0.00     0.014 C 
ENDBRANCH  17  20
ENDBRANCH   7  16
BRANCH   3  26
HETATM   26  C   UNL     1      41.469 -12.686   5.599  1.00  0.00     0.114 C 
BRANCH  26  27
HETATM   27  C   UNL     1      40.203 -12.488   6.409  1.00  0.00     0.218 C 
HETATM   28  N   UNL     1      40.350 -11.773   7.566  1.00  0.00    -0.359 N 
HETATM   29  H   UNL     1      41.175 -11.176   7.654  1.00  0.00     0.162 HD
HETATM   30  O   UNL     1      39.137 -13.001   6.073  1.00  0.00    -0.274 OA
BRANCH  28  31
HETATM   31  C   UNL     1      39.245 -11.570   8.478  1.00  0.00     0.148 C 
BRANCH  31  32
HETATM   32  C   UNL     1      39.616 -10.658   9.650  1.00  0.00     0.186 C 
BRANCH  32  33
HETATM   33  O   UNL     1      40.194 -11.359  10.762  1.00  0.00    -0.394 OA
HETATM   34  C   UNL     1      41.513 -10.911  11.064  1.00  0.00     0.201 C 
ENDBRANCH  32  33
ENDBRANCH  31  32
ENDBRANCH  28  31
ENDBRANCH  26  27
ENDBRANCH   3  26
BRANCH  11  35
HETATM   35  C   UNL     1      40.763 -17.056   3.001  1.00  0.00     0.176 C 
BRANCH  35  36
HETATM   36  O   UNL     1      40.988 -17.569   1.694  1.00  0.00    -0.400 OA
HETATM   37  H   UNL     1      40.423 -17.056   1.090  1.00  0.00     0.209 HD
ENDBRANCH  35  36
ENDBRANCH  11  35
BRANCH  13  38
HETATM   38  O   UNL     1      40.253 -16.943   5.634  1.00  0.00    -0.395 OA
HETATM   39  H   UNL     1      39.812 -17.477   6.319  1.00  0.00     0.210 HD
ENDBRANCH  13  38
TORSDOF 10
ENDMDL
MODEL 9
REMARK VINA RESULT:      -7.3      3.465      9.259
REMARK  10 active torsions:
REMARK  status: ('A' for Active; 'I' for Inactive)
REMARK    1  A    between atoms: C_3  and  C_4 
REMARK    2  A    between atoms: C_4  and  C_5 
REMARK       I    between atoms: C_5  and  N_6 
REMARK    3  A    between atoms: N_6  and  C_7 
REMARK    4  A    between atoms: C_7  and  C_8 
REMARK    5  A    between atoms: C_8  and  O_9 
REMARK    6  A    between atoms: C_15  and  N_16 
REMARK       I    between atoms: N_16  and  C_17 
REMARK    7  A    between atoms: C_17  and  C_18 
REMARK    8  A    between atoms: C_28  and  C_29 
REMARK    9  A    between atoms: C_29  and  O_30 
REMARK   10  A    between atoms: C_32  and  O_33 
ROOT
HETATM    1  C   UNL     1      39.036 -10.869  -0.151  1.00  0.00     0.016 C 
HETATM    2  C   UNL     1      39.925 -11.863  -0.967  1.00  0.00    -0.030 C 
HETATM    3  C   UNL     1      41.128 -12.383  -0.056  1.00  0.00     0.056 C 
HETATM    4  C   UNL     1      40.662 -13.503   0.851  1.00  0.00     0.056 C 
HETATM    5  C   UNL     1      39.420 -14.099   0.766  1.00  0.00     0.012 C 
HETATM    6  S   UNL     1      39.254 -15.298   1.957  1.00  0.00    -0.055 SA
HETATM    7  C   UNL     1      40.907 -15.103   2.349  1.00  0.00     0.173 C 
HETATM    8  N   UNL     1      41.533 -14.125   1.732  1.00  0.00    -0.227 NA
HETATM    9  C   UNL     1      38.370 -13.802  -0.242  1.00  0.00     0.055 C 
HETATM   10  C   UNL     1      38.995 -13.056  -1.453  1.00  0.00     0.012 C 
HETATM   11  C   UNL     1      39.603 -13.994  -2.593  1.00  0.00     0.008 C 
HETATM   12  C   UNL     1      38.399 -14.479  -3.454  1.00  0.00     0.020 C 
HETATM   13  C   UNL     1      40.546 -13.184  -3.537  1.00  0.00     0.128 C 
HETATM   14  C   UNL     1      40.216 -11.698  -3.547  1.00  0.00     0.033 C 
HETATM   15  C   UNL     1      40.482 -11.061  -2.184  1.00  0.00     0.013 C 
ENDROOT
BRANCH   7  16
HETATM   16  N   UNL     1      41.567 -16.045   3.096  1.00  0.00    -0.305 N 
HETATM   17  C   UNL     1      41.658 -16.017   4.470  1.00  0.00     0.227 C 
HETATM   18  O   UNL     1      41.683 -14.994   5.149  1.00  0.00    -0.273 OA
HETATM   19  H   UNL     1      41.971 -16.803   2.559  1.00  0.00     0.171 HD
BRANCH  17  20
HETATM   20  C   UNL     1      41.702 -17.415   5.098  1.00  0.00     0.078 C 
HETATM   21  C   UNL     1      42.523 -18.410   4.261  1.00  0.00     0.014 C 
HETATM   22  C   UNL     1      44.035 -18.182   4.334  1.00  0.00     0.001 C 
HETATM   23  C   UNL     1      44.537 -18.078   5.770  1.00  0.00     0.000 C 
HETATM   24  C   UNL     1      43.749 -17.051   6.573  1.00  0.00     0.001 C 
HETATM   25  C   UNL     1      42.248 -17.341   6.535  1.00  0.00     0.014 C 
ENDBRANCH  17  20
ENDBRANCH   7  16
BRANCH   3  26
HETATM   26  C   UNL     1      41.798 -11.246   0.744  1.00  0.00     0.114 C 
BRANCH  26  27
HETATM   27  C   UNL     1      42.828 -10.446  -0.028  1.00  0.00     0.218 C 
HETATM   28  N   UNL     1      42.795  -9.093   0.174  1.00  0.00    -0.359 N 
HETATM   29  H   UNL     1      42.331  -8.750   1.018  1.00  0.00     0.162 HD
HETATM   30  O   UNL     1      43.588 -10.982  -0.833  1.00  0.00    -0.274 OA
BRANCH  28  31
HETATM   31  C   UNL     1      43.668  -8.196  -0.553  1.00  0.00     0.148 C 
BRANCH  31  32
HETATM   32  C   UNL     1      42.898  -7.279  -1.507  1.00  0.00     0.186 C 
BRANCH  32  33
HETATM   33  O   UNL     1      43.204  -7.504  -2.892  1.00  0.00    -0.394 OA
HETATM   34  C   UNL     1      42.036  -7.728  -3.679  1.00  0.00     0.201 C 
ENDBRANCH  32  33
ENDBRANCH  31  32
ENDBRANCH  28  31
ENDBRANCH  26  27
ENDBRANCH   3  26
BRANCH  11  35
HETATM   35  C   UNL     1      40.360 -15.262  -2.111  1.00  0.00     0.176 C 
BRANCH  35  36
HETATM   36  O   UNL     1      39.993 -16.425  -2.843  1.00  0.00    -0.400 OA
HETATM   37  H   UNL     1      39.312 -16.151  -3.482  1.00  0.00     0.209 HD
ENDBRANCH  35  36
ENDBRANCH  11  35
BRANCH  13  38
HETATM   38  O   UNL     1      41.914 -13.339  -3.156  1.00  0.00    -0.395 OA
HETATM   39  H   UNL     1      42.268 -14.115  -3.626  1.00  0.00     0.210 HD
ENDBRANCH  13  38
TORSDOF 10
ENDMDL
MODEL 10
REMARK VINA RESULT:      -7.2      2.783      6.080
REMARK  10 active torsions:
REMARK  status: ('A' for Active; 'I' for Inactive)
REMARK    1  A    between atoms: C_3  and  C_4 
REMARK    2  A    between atoms: C_4  and  C_5 
REMARK       I    between atoms: C_5  and  N_6 
REMARK    3  A    between atoms: N_6  and  C_7 
REMARK    4  A    between atoms: C_7  and  C_8 
REMARK    5  A    between atoms: C_8  and  O_9 
REMARK    6  A    between atoms: C_15  and  N_16 
REMARK       I    between atoms: N_16  and  C_17 
REMARK    7  A    between atoms: C_17  and  C_18 
REMARK    8  A    between atoms: C_28  and  C_29 
REMARK    9  A    between atoms: C_29  and  O_30 
REMARK   10  A    between atoms: C_32  and  O_33 
ROOT
HETATM    1  C   UNL     1      43.906 -14.041   5.439  1.00  0.00     0.016 C 
HETATM    2  C   UNL     1      42.751 -15.070   5.212  1.00  0.00    -0.030 C 
HETATM    3  C   UNL     1      41.415 -14.299   4.799  1.00  0.00     0.056 C 
HETATM    4  C   UNL     1      41.435 -13.957   3.323  1.00  0.00     0.056 C 
HETATM    5  C   UNL     1      42.393 -14.409   2.439  1.00  0.00     0.012 C 
HETATM    6  S   UNL     1      42.096 -13.802   0.881  1.00  0.00    -0.055 SA
HETATM    7  C   UNL     1      40.603 -13.178   1.435  1.00  0.00     0.173 C 
HETATM    8  N   UNL     1      40.376 -13.291   2.725  1.00  0.00    -0.227 NA
HETATM    9  C   UNL     1      43.510 -15.336   2.752  1.00  0.00     0.055 C 
HETATM   10  C   UNL     1      43.221 -16.084   4.083  1.00  0.00     0.012 C 
HETATM   11  C   UNL     1      42.358 -17.419   3.942  1.00  0.00     0.008 C 
HETATM   12  C   UNL     1      43.342 -18.534   3.478  1.00  0.00     0.020 C 
HETATM   13  C   UNL     1      41.784 -17.861   5.325  1.00  0.00     0.128 C 
HETATM   14  C   UNL     1      42.612 -17.332   6.489  1.00  0.00     0.033 C 
HETATM   15  C   UNL     1      42.545 -15.808   6.572  1.00  0.00     0.013 C 
ENDROOT
BRANCH   7  16
HETATM   16  N   UNL     1      39.635 -12.783   0.548  1.00  0.00    -0.305 N 
HETATM   17  C   UNL     1      39.852 -11.914  -0.498  1.00  0.00     0.227 C 
HETATM   18  O   UNL     1      40.670 -10.997  -0.486  1.00  0.00    -0.273 OA
HETATM   19  H   UNL     1      38.727 -13.208   0.697  1.00  0.00     0.171 HD
BRANCH  17  20
HETATM   20  C   UNL     1      38.976 -12.212  -1.720  1.00  0.00     0.078 C 
HETATM   21  C   UNL     1      39.623 -11.749  -3.035  1.00  0.00     0.014 C 
HETATM   22  C   UNL     1      40.793 -12.625  -3.492  1.00  0.00     0.001 C 
HETATM   23  C   UNL     1      40.435 -14.107  -3.511  1.00  0.00     0.000 C 
HETATM   24  C   UNL     1      39.843 -14.564  -2.183  1.00  0.00     0.001 C 
HETATM   25  C   UNL     1      38.638 -13.712  -1.784  1.00  0.00     0.014 C 
ENDBRANCH  17  20
ENDBRANCH   7  16
BRANCH   3  26
HETATM   26  C   UNL     1      41.161 -13.049   5.668  1.00  0.00     0.114 C 
BRANCH  26  27
HETATM   27  C   UNL     1      39.829 -12.366   5.425  1.00  0.00     0.218 C 
HETATM   28  N   UNL     1      39.893 -11.171   4.762  1.00  0.00    -0.359 N 
HETATM   29  H   UNL     1      40.735 -10.975   4.217  1.00  0.00     0.162 HD
HETATM   30  O   UNL     1      38.778 -12.831   5.864  1.00  0.00    -0.274 OA
BRANCH  28  31
HETATM   31  C   UNL     1      38.710 -10.370   4.527  1.00  0.00     0.148 C 
BRANCH  31  32
HETATM   32  C   UNL     1      38.465 -10.116   3.038  1.00  0.00     0.186 C 
BRANCH  32  33
HETATM   33  O   UNL     1      37.742 -11.172   2.387  1.00  0.00    -0.394 OA
HETATM   34  C   UNL     1      36.842 -10.685   1.393  1.00  0.00     0.201 C 
ENDBRANCH  32  33
ENDBRANCH  31  32
ENDBRANCH  28  31
ENDBRANCH  26  27
ENDBRANCH   3  26
BRANCH  11  35
HETATM   35  C   UNL     1      41.192 -17.382   2.916  1.00  0.00     0.176 C 
BRANCH  35  36
HETATM   36  O   UNL     1      41.574 -17.886   1.642  1.00  0.00    -0.400 OA
HETATM   37  H   UNL     1      42.525 -17.706   1.542  1.00  0.00     0.209 HD
ENDBRANCH  35  36
ENDBRANCH  11  35
BRANCH  13  38
HETATM   38  O   UNL     1      40.438 -17.414   5.491  1.00  0.00    -0.395 OA
HETATM   39  H   UNL     1      40.454 -16.443   5.571  1.00  0.00     0.210 HD
ENDBRANCH  13  38
TORSDOF 10
ENDMDL
