MODEL 1
REMARK VINA RESULT:      -7.9      0.000      0.000
REMARK  6 active torsions:
REMARK  status: ('A' for Active; 'I' for Inactive)
REMARK    1  A    between atoms: O_2  and  C_3 
REMARK    2  A    between atoms: C_7  and  C_8 
REMARK    3  A    between atoms: C_8  and  C_9 
REMARK       I    between atoms: C_9  and  N_10 
REMARK    4  A    between atoms: N_10  and  C_11 
REMARK    5  A    between atoms: C_12  and  C_13 
REMARK       I    between atoms: C_13  and  N_14 
REMARK    6  A    between atoms: N_14  and  C_15 
ROOT
HETATM    1  C   UNL     1      44.592 -18.109   6.837  1.00  0.00     0.226 C 
HETATM    2  N   UNL     1      43.730 -19.057   6.318  1.00  0.00    -0.326 N 
HETATM    3  O   UNL     1      45.803 -18.066   6.635  1.00  0.00    -0.273 OA
HETATM    4  H   UNL     1      42.812 -19.128   6.750  1.00  0.00     0.169 HD
ENDROOT
BRANCH   2   5
HETATM    5  C   UNL     1      44.001 -19.977   5.270  1.00  0.00     0.050 A 
HETATM    6  C   UNL     1      43.970 -19.545   3.929  1.00  0.00     0.058 A 
HETATM    7  C   UNL     1      44.372 -20.395   2.888  1.00  0.00     0.019 A 
HETATM    8  C   UNL     1      44.774 -21.698   3.167  1.00  0.00     0.001 A 
HETATM    9  C   UNL     1      44.774 -22.149   4.483  1.00  0.00     0.002 A 
HETATM   10  C   UNL     1      44.395 -21.296   5.527  1.00  0.00     0.030 A 
BRANCH   6  11
HETATM   11  C   UNL     1      43.469 -18.207   3.533  1.00  0.00     0.254 C 
HETATM   12  N   UNL     1      42.248 -18.214   2.889  1.00  0.00    -0.352 N 
HETATM   13  H   UNL     1      41.840 -19.108   2.633  1.00  0.00     0.163 HD
HETATM   14  O   UNL     1      44.139 -17.207   3.757  1.00  0.00    -0.268 OA
BRANCH  12  15
HETATM   15  C   UNL     1      41.690 -17.036   2.306  1.00  0.00     0.084 A 
HETATM   16  C   UNL     1      41.244 -17.039   0.870  1.00  0.00     0.027 A 
HETATM   17  C   UNL     1      40.225 -16.970   1.970  1.00  0.00     0.027 A 
ENDBRANCH  12  15
ENDBRANCH   6  11
ENDBRANCH   2   5
BRANCH   1  18
HETATM   18  C   UNL     1      43.912 -17.013   7.642  1.00  0.00     0.144 C 
BRANCH  18  19
HETATM   19  C   UNL     1      43.702 -15.734   6.907  1.00  0.00    -0.014 A 
HETATM   20  C   UNL     1      42.534 -15.314   6.198  1.00  0.00     0.006 A 
HETATM   21  C   UNL     1      42.787 -14.012   5.783  1.00  0.00     0.088 A 
HETATM   22  C   UNL     1      41.287 -15.880   5.885  1.00  0.00     0.017 A 
HETATM   23  C   UNL     1      41.876 -13.205   5.104  1.00  0.00     0.074 A 
HETATM   24  O   UNL     1      44.043 -13.636   6.149  1.00  0.00    -0.321 OA
HETATM   25  C   UNL     1      40.626 -13.771   4.840  1.00  0.00     0.070 A 
HETATM   26  C   UNL     1      40.350 -15.096   5.196  1.00  0.00     0.038 A 
HETATM   27  C   UNL     1      44.585 -14.673   6.832  1.00  0.00     0.151 A 
BRANCH  25  28
HETATM   28  O   UNL     1      39.602 -13.116   4.206  1.00  0.00    -0.356 OA
HETATM   29  C   UNL     1      39.649 -13.159   2.781  1.00  0.00     0.210 C 
ENDBRANCH  25  28
ENDBRANCH  18  19
ENDBRANCH   1  18
TORSDOF 6
ENDMDL
MODEL 2
REMARK VINA RESULT:      -7.8      1.620      3.547
REMARK  6 active torsions:
REMARK  status: ('A' for Active; 'I' for Inactive)
REMARK    1  A    between atoms: O_2  and  C_3 
REMARK    2  A    between atoms: C_7  and  C_8 
REMARK    3  A    between atoms: C_8  and  C_9 
REMARK       I    between atoms: C_9  and  N_10 
REMARK    4  A    between atoms: N_10  and  C_11 
REMARK    5  A    between atoms: C_12  and  C_13 
REMARK       I    between atoms: C_13  and  N_14 
REMARK    6  A    between atoms: N_14  and  C_15 
ROOT
HETATM    1  C   UNL     1      43.542 -17.178   2.025  1.00  0.00     0.226 C 
HETATM    2  N   UNL     1      43.134 -18.224   2.834  1.00  0.00    -0.326 N 
HETATM    3  O   UNL     1      44.593 -17.142   1.390  1.00  0.00    -0.273 OA
HETATM    4  H   UNL     1      42.378 -18.031   3.486  1.00  0.00     0.169 HD
ENDROOT
BRANCH   2   5
HETATM    5  C   UNL     1      43.685 -19.531   2.883  1.00  0.00     0.050 A 
HETATM    6  C   UNL     1      44.230 -20.021   4.086  1.00  0.00     0.058 A 
HETATM    7  C   UNL     1      44.650 -21.355   4.199  1.00  0.00     0.019 A 
HETATM    8  C   UNL     1      44.566 -22.207   3.102  1.00  0.00     0.001 A 
HETATM    9  C   UNL     1      44.064 -21.727   1.896  1.00  0.00     0.002 A 
HETATM   10  C   UNL     1      43.623 -20.402   1.788  1.00  0.00     0.030 A 
BRANCH   6  11
HETATM   11  C   UNL     1      44.442 -19.160   5.275  1.00  0.00     0.254 C 
HETATM   12  N   UNL     1      43.285 -18.774   5.923  1.00  0.00    -0.352 N 
HETATM   13  H   UNL     1      42.392 -18.998   5.495  1.00  0.00     0.163 HD
HETATM   14  O   UNL     1      45.573 -18.822   5.598  1.00  0.00    -0.268 OA
BRANCH  12  15
HETATM   15  C   UNL     1      43.293 -17.826   6.991  1.00  0.00     0.084 A 
HETATM   16  C   UNL     1      43.598 -16.380   6.718  1.00  0.00     0.027 A 
HETATM   17  C   UNL     1      42.207 -16.792   7.103  1.00  0.00     0.027 A 
ENDBRANCH  12  15
ENDBRANCH   6  11
ENDBRANCH   2   5
BRANCH   1  18
HETATM   18  C   UNL     1      42.527 -16.055   1.889  1.00  0.00     0.144 C 
BRANCH  18  19
HETATM   19  C   UNL     1      42.638 -14.981   2.916  1.00  0.00    -0.014 A 
HETATM   20  C   UNL     1      41.626 -14.521   3.814  1.00  0.00     0.006 A 
HETATM   21  C   UNL     1      42.244 -13.593   4.644  1.00  0.00     0.088 A 
HETATM   22  C   UNL     1      40.267 -14.805   4.032  1.00  0.00     0.017 A 
HETATM   23  C   UNL     1      41.622 -12.942   5.707  1.00  0.00     0.074 A 
HETATM   24  O   UNL     1      43.544 -13.426   4.277  1.00  0.00    -0.321 OA
HETATM   25  C   UNL     1      40.283 -13.270   5.935  1.00  0.00     0.070 A 
HETATM   26  C   UNL     1      39.610 -14.161   5.091  1.00  0.00     0.038 A 
HETATM   27  C   UNL     1      43.777 -14.269   3.242  1.00  0.00     0.151 A 
BRANCH  25  28
HETATM   28  O   UNL     1      39.523 -12.747   6.950  1.00  0.00    -0.356 OA
HETATM   29  C   UNL     1      39.833 -11.401   7.303  1.00  0.00     0.210 C 
ENDBRANCH  25  28
ENDBRANCH  18  19
ENDBRANCH   1  18
TORSDOF 6
ENDMDL
MODEL 3
REMARK VINA RESULT:      -7.7      2.331      6.733
REMARK  6 active torsions:
REMARK  status: ('A' for Active; 'I' for Inactive)
REMARK    1  A    between atoms: O_2  and  C_3 
REMARK    2  A    between atoms: C_7  and  C_8 
REMARK    3  A    between atoms: C_8  and  C_9 
REMARK       I    between atoms: C_9  and  N_10 
REMARK    4  A    between atoms: N_10  and  C_11 
REMARK    5  A    between atoms: C_12  and  C_13 
REMARK       I    between atoms: C_13  and  N_14 
REMARK    6  A    between atoms: N_14  and  C_15 
ROOT
HETATM    1  C   UNL     1      42.485 -17.294   1.081  1.00  0.00     0.226 C 
HETATM    2  N   UNL     1      42.660 -15.984   0.673  1.00  0.00    -0.326 N 
HETATM    3  O   UNL     1      41.411 -17.801   1.395  1.00  0.00    -0.273 OA
HETATM    4  H   UNL     1      43.611 -15.624   0.680  1.00  0.00     0.169 HD
ENDROOT
BRANCH   2   5
HETATM    5  C   UNL     1      41.647 -15.069   0.282  1.00  0.00     0.050 A 
HETATM    6  C   UNL     1      41.317 -13.984   1.119  1.00  0.00     0.058 A 
HETATM    7  C   UNL     1      40.424 -12.989   0.693  1.00  0.00     0.019 A 
HETATM    8  C   UNL     1      39.822 -13.082  -0.558  1.00  0.00     0.001 A 
HETATM    9  C   UNL     1      40.111 -14.167  -1.380  1.00  0.00     0.002 A 
HETATM   10  C   UNL     1      41.018 -15.149  -0.967  1.00  0.00     0.030 A 
BRANCH   6  11
HETATM   11  C   UNL     1      41.840 -13.854   2.501  1.00  0.00     0.254 C 
HETATM   12  N   UNL     1      40.979 -14.291   3.488  1.00  0.00    -0.352 N 
HETATM   13  H   UNL     1      40.034 -14.554   3.226  1.00  0.00     0.163 HD
HETATM   14  O   UNL     1      42.945 -13.365   2.698  1.00  0.00    -0.268 OA
BRANCH  12  15
HETATM   15  C   UNL     1      41.257 -14.102   4.876  1.00  0.00     0.084 A 
HETATM   16  C   UNL     1      40.160 -13.691   5.819  1.00  0.00     0.027 A 
HETATM   17  C   UNL     1      40.737 -15.074   5.899  1.00  0.00     0.027 A 
ENDBRANCH  12  15
ENDBRANCH   6  11
ENDBRANCH   2   5
BRANCH   1  18
HETATM   18  C   UNL     1      43.747 -18.141   1.036  1.00  0.00     0.144 C 
BRANCH  18  19
HETATM   19  C   UNL     1      43.993 -18.963   2.254  1.00  0.00    -0.014 A 
HETATM   20  C   UNL     1      43.915 -18.550   3.620  1.00  0.00     0.006 A 
HETATM   21  C   UNL     1      44.120 -19.696   4.379  1.00  0.00     0.088 A 
HETATM   22  C   UNL     1      43.669 -17.342   4.294  1.00  0.00     0.017 A 
HETATM   23  C   UNL     1      44.065 -19.746   5.770  1.00  0.00     0.074 A 
HETATM   24  O   UNL     1      44.365 -20.760   3.567  1.00  0.00    -0.321 OA
HETATM   25  C   UNL     1      43.776 -18.543   6.421  1.00  0.00     0.070 A 
HETATM   26  C   UNL     1      43.614 -17.358   5.696  1.00  0.00     0.038 A 
HETATM   27  C   UNL     1      44.280 -20.315   2.290  1.00  0.00     0.151 A 
BRANCH  25  28
HETATM   28  O   UNL     1      43.658 -18.412   7.781  1.00  0.00    -0.356 OA
HETATM   29  C   UNL     1      43.333 -17.100   8.234  1.00  0.00     0.210 C 
ENDBRANCH  25  28
ENDBRANCH  18  19
ENDBRANCH   1  18
TORSDOF 6
ENDMDL
MODEL 4
REMARK VINA RESULT:      -7.7      1.574      4.003
REMARK  6 active torsions:
REMARK  status: ('A' for Active; 'I' for Inactive)
REMARK    1  A    between atoms: O_2  and  C_3 
REMARK    2  A    between atoms: C_7  and  C_8 
REMARK    3  A    between atoms: C_8  and  C_9 
REMARK       I    between atoms: C_9  and  N_10 
REMARK    4  A    between atoms: N_10  and  C_11 
REMARK    5  A    between atoms: C_12  and  C_13 
REMARK       I    between atoms: C_13  and  N_14 
REMARK    6  A    between atoms: N_14  and  C_15 
ROOT
HETATM    1  C   UNL     1      43.420 -17.558   1.505  1.00  0.00     0.226 C 
HETATM    2  N   UNL     1      42.906 -18.633   2.207  1.00  0.00    -0.326 N 
HETATM    3  O   UNL     1      44.613 -17.360   1.286  1.00  0.00    -0.273 OA
HETATM    4  H   UNL     1      41.943 -18.555   2.525  1.00  0.00     0.169 HD
ENDROOT
BRANCH   2   5
HETATM    5  C   UNL     1      43.590 -19.823   2.570  1.00  0.00     0.050 A 
HETATM    6  C   UNL     1      44.091 -19.976   3.878  1.00  0.00     0.058 A 
HETATM    7  C   UNL     1      44.643 -21.195   4.301  1.00  0.00     0.019 A 
HETATM    8  C   UNL     1      44.736 -22.264   3.415  1.00  0.00     0.001 A 
HETATM    9  C   UNL     1      44.279 -22.115   2.110  1.00  0.00     0.002 A 
HETATM   10  C   UNL     1      43.707 -20.907   1.691  1.00  0.00     0.030 A 
BRANCH   6  11
HETATM   11  C   UNL     1      44.117 -18.863   4.858  1.00  0.00     0.254 C 
HETATM   12  N   UNL     1      42.878 -18.341   5.173  1.00  0.00    -0.352 N 
HETATM   13  H   UNL     1      42.070 -18.660   4.647  1.00  0.00     0.163 HD
HETATM   14  O   UNL     1      45.183 -18.458   5.302  1.00  0.00    -0.268 OA
BRANCH  12  15
HETATM   15  C   UNL     1      42.729 -17.173   5.979  1.00  0.00     0.084 A 
HETATM   16  C   UNL     1      41.385 -16.808   6.544  1.00  0.00     0.027 A 
HETATM   17  C   UNL     1      42.474 -17.290   7.457  1.00  0.00     0.027 A 
ENDBRANCH  12  15
ENDBRANCH   6  11
ENDBRANCH   2   5
BRANCH   1  18
HETATM   18  C   UNL     1      42.369 -16.633   0.912  1.00  0.00     0.144 C 
BRANCH  18  19
HETATM   19  C   UNL     1      41.506 -15.944   1.912  1.00  0.00    -0.014 A 
HETATM   20  C   UNL     1      41.914 -15.073   2.969  1.00  0.00     0.006 A 
HETATM   21  C   UNL     1      40.743 -14.602   3.551  1.00  0.00     0.088 A 
HETATM   22  C   UNL     1      43.140 -14.615   3.480  1.00  0.00     0.017 A 
HETATM   23  C   UNL     1      40.691 -13.673   4.588  1.00  0.00     0.074 A 
HETATM   24  O   UNL     1      39.660 -15.165   2.950  1.00  0.00    -0.321 OA
HETATM   25  C   UNL     1      41.919 -13.196   5.053  1.00  0.00     0.070 A 
HETATM   26  C   UNL     1      43.122 -13.684   4.530  1.00  0.00     0.038 A 
HETATM   27  C   UNL     1      40.124 -15.965   1.960  1.00  0.00     0.151 A 
BRANCH  25  28
HETATM   28  O   UNL     1      42.057 -12.262   6.048  1.00  0.00    -0.356 OA
HETATM   29  C   UNL     1      40.917 -11.431   6.257  1.00  0.00     0.210 C 
ENDBRANCH  25  28
ENDBRANCH  18  19
ENDBRANCH   1  18
TORSDOF 6
ENDMDL
MODEL 5
REMARK VINA RESULT:      -7.6      3.248      5.795
REMARK  6 active torsions:
REMARK  status: ('A' for Active; 'I' for Inactive)
REMARK    1  A    between atoms: O_2  and  C_3 
REMARK    2  A    between atoms: C_7  and  C_8 
REMARK    3  A    between atoms: C_8  and  C_9 
REMARK       I    between atoms: C_9  and  N_10 
REMARK    4  A    between atoms: N_10  and  C_11 
REMARK    5  A    between atoms: C_12  and  C_13 
REMARK       I    between atoms: C_13  and  N_14 
REMARK    6  A    between atoms: N_14  and  C_15 
ROOT
HETATM    1  C   UNL     1      42.580 -17.712   1.349  1.00  0.00     0.226 C 
HETATM    2  N   UNL     1      42.502 -18.616   2.392  1.00  0.00    -0.326 N 
HETATM    3  O   UNL     1      43.536 -17.589   0.587  1.00  0.00    -0.273 OA
HETATM    4  H   UNL     1      41.778 -18.453   3.087  1.00  0.00     0.169 HD
ENDROOT
BRANCH   2   5
HETATM    5  C   UNL     1      43.352 -19.729   2.624  1.00  0.00     0.050 A 
HETATM    6  C   UNL     1      44.122 -19.794   3.802  1.00  0.00     0.058 A 
HETATM    7  C   UNL     1      44.858 -20.945   4.121  1.00  0.00     0.019 A 
HETATM    8  C   UNL     1      44.866 -22.031   3.251  1.00  0.00     0.001 A 
HETATM    9  C   UNL     1      44.141 -21.966   2.066  1.00  0.00     0.002 A 
HETATM   10  C   UNL     1      43.387 -20.828   1.756  1.00  0.00     0.030 A 
BRANCH   6  11
HETATM   11  C   UNL     1      44.245 -18.651   4.740  1.00  0.00     0.254 C 
HETATM   12  N   UNL     1      44.454 -19.004   6.058  1.00  0.00    -0.352 N 
HETATM   13  H   UNL     1      44.396 -19.985   6.312  1.00  0.00     0.163 HD
HETATM   14  O   UNL     1      44.133 -17.503   4.329  1.00  0.00    -0.268 OA
BRANCH  12  15
HETATM   15  C   UNL     1      44.445 -18.042   7.112  1.00  0.00     0.084 A 
HETATM   16  C   UNL     1      43.145 -17.609   7.733  1.00  0.00     0.027 A 
HETATM   17  C   UNL     1      44.106 -18.452   8.519  1.00  0.00     0.027 A 
ENDBRANCH  12  15
ENDBRANCH   6  11
ENDBRANCH   2   5
BRANCH   1  18
HETATM   18  C   UNL     1      41.317 -16.893   1.129  1.00  0.00     0.144 C 
BRANCH  18  19
HETATM   19  C   UNL     1      41.548 -15.509   0.629  1.00  0.00    -0.014 A 
HETATM   20  C   UNL     1      41.378 -15.020  -0.703  1.00  0.00     0.006 A 
HETATM   21  C   UNL     1      41.608 -13.651  -0.641  1.00  0.00     0.088 A 
HETATM   22  C   UNL     1      41.032 -15.579  -1.945  1.00  0.00     0.017 A 
HETATM   23  C   UNL     1      41.487 -12.776  -1.718  1.00  0.00     0.074 A 
HETATM   24  O   UNL     1      41.953 -13.289   0.625  1.00  0.00    -0.321 OA
HETATM   25  C   UNL     1      41.099 -13.344  -2.935  1.00  0.00     0.070 A 
HETATM   26  C   UNL     1      40.908 -14.725  -3.052  1.00  0.00     0.038 A 
HETATM   27  C   UNL     1      41.907 -14.409   1.386  1.00  0.00     0.151 A 
BRANCH  25  28
HETATM   28  O   UNL     1      40.906 -12.632  -4.091  1.00  0.00    -0.356 OA
HETATM   29  C   UNL     1      41.604 -11.390  -4.159  1.00  0.00     0.210 C 
ENDBRANCH  25  28
ENDBRANCH  18  19
ENDBRANCH   1  18
TORSDOF 6
ENDMDL
MODEL 6
REMARK VINA RESULT:      -7.5      3.635      7.286
REMARK  6 active torsions:
REMARK  status: ('A' for Active; 'I' for Inactive)
REMARK    1  A    between atoms: O_2  and  C_3 
REMARK    2  A    between atoms: C_7  and  C_8 
REMARK    3  A    between atoms: C_8  and  C_9 
REMARK       I    between atoms: C_9  and  N_10 
REMARK    4  A    between atoms: N_10  and  C_11 
REMARK    5  A    between atoms: C_12  and  C_13 
REMARK       I    between atoms: C_13  and  N_14 
REMARK    6  A    between atoms: N_14  and  C_15 
ROOT
HETATM    1  C   UNL     1      41.638 -16.910   1.110  1.00  0.00     0.226 C 
HETATM    2  N   UNL     1      41.430 -15.547   1.009  1.00  0.00    -0.326 N 
HETATM    3  O   UNL     1      40.753 -17.758   1.203  1.00  0.00    -0.273 OA
HETATM    4  H   UNL     1      42.231 -14.946   1.184  1.00  0.00     0.169 HD
ENDROOT
BRANCH   2   5
HETATM    5  C   UNL     1      40.204 -14.888   0.727  1.00  0.00     0.050 A 
HETATM    6  C   UNL     1      40.013 -14.260  -0.520  1.00  0.00     0.058 A 
HETATM    7  C   UNL     1      38.764 -13.728  -0.876  1.00  0.00     0.019 A 
HETATM    8  C   UNL     1      37.702 -13.781   0.021  1.00  0.00     0.001 A 
HETATM    9  C   UNL     1      37.887 -14.365   1.270  1.00  0.00     0.002 A 
HETATM   10  C   UNL     1      39.125 -14.918   1.619  1.00  0.00     0.030 A 
BRANCH   6  11
HETATM   11  C   UNL     1      41.112 -14.077  -1.498  1.00  0.00     0.254 C 
HETATM   12  N   UNL     1      41.613 -12.792  -1.571  1.00  0.00    -0.352 N 
HETATM   13  H   UNL     1      41.138 -12.057  -1.057  1.00  0.00     0.163 HD
HETATM   14  O   UNL     1      41.491 -15.018  -2.184  1.00  0.00    -0.268 OA
BRANCH  12  15
HETATM   15  C   UNL     1      42.565 -12.403  -2.561  1.00  0.00     0.084 A 
HETATM   16  C   UNL     1      42.104 -11.882  -3.893  1.00  0.00     0.027 A 
HETATM   17  C   UNL     1      42.756 -10.953  -2.911  1.00  0.00     0.027 A 
ENDBRANCH  12  15
ENDBRANCH   6  11
ENDBRANCH   2   5
BRANCH   1  18
HETATM   18  C   UNL     1      43.095 -17.334   1.006  1.00  0.00     0.144 C 
BRANCH  18  19
HETATM   19  C   UNL     1      43.551 -18.272   2.071  1.00  0.00    -0.014 A 
HETATM   20  C   UNL     1      43.639 -18.025   3.476  1.00  0.00     0.006 A 
HETATM   21  C   UNL     1      44.010 -19.233   4.054  1.00  0.00     0.088 A 
HETATM   22  C   UNL     1      43.422 -16.923   4.321  1.00  0.00     0.017 A 
HETATM   23  C   UNL     1      44.150 -19.447   5.423  1.00  0.00     0.074 A 
HETATM   24  O   UNL     1      44.200 -20.176   3.092  1.00  0.00    -0.321 OA
HETATM   25  C   UNL     1      43.887 -18.351   6.250  1.00  0.00     0.070 A 
HETATM   26  C   UNL     1      43.561 -17.104   5.705  1.00  0.00     0.038 A 
HETATM   27  C   UNL     1      43.915 -19.594   1.902  1.00  0.00     0.151 A 
BRANCH  25  28
HETATM   28  O   UNL     1      43.951 -18.386   7.620  1.00  0.00    -0.356 OA
HETATM   29  C   UNL     1      43.377 -17.258   8.279  1.00  0.00     0.210 C 
ENDBRANCH  25  28
ENDBRANCH  18  19
ENDBRANCH   1  18
TORSDOF 6
ENDMDL
MODEL 7
REMARK VINA RESULT:      -7.4      2.930      5.750
REMARK  6 active torsions:
REMARK  status: ('A' for Active; 'I' for Inactive)
REMARK    1  A    between atoms: O_2  and  C_3 
REMARK    2  A    between atoms: C_7  and  C_8 
REMARK    3  A    between atoms: C_8  and  C_9 
REMARK       I    between atoms: C_9  and  N_10 
REMARK    4  A    between atoms: N_10  and  C_11 
REMARK    5  A    between atoms: C_12  and  C_13 
REMARK       I    between atoms: C_13  and  N_14 
REMARK    6  A    between atoms: N_14  and  C_15 
ROOT
HETATM    1  C   UNL     1      41.141 -16.322   3.487  1.00  0.00     0.226 C 
HETATM    2  N   UNL     1      41.330 -17.414   4.313  1.00  0.00    -0.326 N 
HETATM    3  O   UNL     1      41.588 -15.195   3.688  1.00  0.00    -0.273 OA
HETATM    4  H   UNL     1      40.716 -18.212   4.167  1.00  0.00     0.169 HD
ENDROOT
BRANCH   2   5
HETATM    5  C   UNL     1      42.266 -17.531   5.374  1.00  0.00     0.050 A 
HETATM    6  C   UNL     1      43.560 -18.026   5.121  1.00  0.00     0.058 A 
HETATM    7  C   UNL     1      44.545 -18.019   6.120  1.00  0.00     0.019 A 
HETATM    8  C   UNL     1      44.241 -17.551   7.395  1.00  0.00     0.001 A 
HETATM    9  C   UNL     1      42.956 -17.094   7.670  1.00  0.00     0.002 A 
HETATM   10  C   UNL     1      41.978 -17.080   6.668  1.00  0.00     0.030 A 
BRANCH   6  11
HETATM   11  C   UNL     1      43.945 -18.627   3.820  1.00  0.00     0.254 C 
HETATM   12  N   UNL     1      44.120 -19.997   3.845  1.00  0.00    -0.352 N 
HETATM   13  H   UNL     1      44.092 -20.473   4.742  1.00  0.00     0.163 HD
HETATM   14  O   UNL     1      44.108 -17.916   2.837  1.00  0.00    -0.268 OA
BRANCH  12  15
HETATM   15  C   UNL     1      44.635 -20.717   2.725  1.00  0.00     0.084 A 
HETATM   16  C   UNL     1      44.523 -22.215   2.671  1.00  0.00     0.027 A 
HETATM   17  C   UNL     1      43.703 -21.370   1.742  1.00  0.00     0.027 A 
ENDBRANCH  12  15
ENDBRANCH   6  11
ENDBRANCH   2   5
BRANCH   1  18
HETATM   18  C   UNL     1      40.383 -16.625   2.204  1.00  0.00     0.144 C 
BRANCH  18  19
HETATM   19  C   UNL     1      39.840 -15.430   1.499  1.00  0.00    -0.014 A 
HETATM   20  C   UNL     1      40.217 -14.925   0.216  1.00  0.00     0.006 A 
HETATM   21  C   UNL     1      39.355 -13.867  -0.047  1.00  0.00     0.088 A 
HETATM   22  C   UNL     1      41.171 -15.262  -0.759  1.00  0.00     0.017 A 
HETATM   23  C   UNL     1      39.342 -13.130  -1.229  1.00  0.00     0.074 A 
HETATM   24  O   UNL     1      38.519 -13.668   1.008  1.00  0.00    -0.321 OA
HETATM   25  C   UNL     1      40.269 -13.508  -2.204  1.00  0.00     0.070 A 
HETATM   26  C   UNL     1      41.188 -14.534  -1.958  1.00  0.00     0.038 A 
HETATM   27  C   UNL     1      38.811 -14.616   1.932  1.00  0.00     0.151 A 
BRANCH  25  28
HETATM   28  O   UNL     1      40.381 -12.913  -3.434  1.00  0.00    -0.356 OA
HETATM   29  C   UNL     1      41.653 -12.329  -3.708  1.00  0.00     0.210 C 
ENDBRANCH  25  28
ENDBRANCH  18  19
ENDBRANCH   1  18
TORSDOF 6
ENDMDL
MODEL 8
REMARK VINA RESULT:      -7.4      1.829      4.491
REMARK  6 active torsions:
REMARK  status: ('A' for Active; 'I' for Inactive)
REMARK    1  A    between atoms: O_2  and  C_3 
REMARK    2  A    between atoms: C_7  and  C_8 
REMARK    3  A    between atoms: C_8  and  C_9 
REMARK       I    between atoms: C_9  and  N_10 
REMARK    4  A    between atoms: N_10  and  C_11 
REMARK    5  A    between atoms: C_12  and  C_13 
REMARK       I    between atoms: C_13  and  N_14 
REMARK    6  A    between atoms: N_14  and  C_15 
ROOT
HETATM    1  C   UNL     1      42.606 -17.378   1.381  1.00  0.00     0.226 C 
HETATM    2  N   UNL     1      42.348 -18.245   2.427  1.00  0.00    -0.326 N 
HETATM    3  O   UNL     1      43.721 -16.989   1.043  1.00  0.00    -0.273 OA
HETATM    4  H   UNL     1      41.386 -18.294   2.755  1.00  0.00     0.169 HD
ENDROOT
BRANCH   2   5
HETATM    5  C   UNL     1      43.288 -19.048   3.125  1.00  0.00     0.050 A 
HETATM    6  C   UNL     1      43.476 -18.870   4.510  1.00  0.00     0.058 A 
HETATM    7  C   UNL     1      44.292 -19.742   5.246  1.00  0.00     0.019 A 
HETATM    8  C   UNL     1      44.960 -20.781   4.604  1.00  0.00     0.001 A 
HETATM    9  C   UNL     1      44.813 -20.946   3.230  1.00  0.00     0.002 A 
HETATM   10  C   UNL     1      43.981 -20.090   2.497  1.00  0.00     0.030 A 
BRANCH   6  11
HETATM   11  C   UNL     1      42.878 -17.737   5.257  1.00  0.00     0.254 C 
HETATM   12  N   UNL     1      43.776 -16.763   5.647  1.00  0.00    -0.352 N 
HETATM   13  H   UNL     1      44.767 -16.933   5.507  1.00  0.00     0.163 HD
HETATM   14  O   UNL     1      41.680 -17.728   5.508  1.00  0.00    -0.268 OA
BRANCH  12  15
HETATM   15  C   UNL     1      43.400 -15.683   6.502  1.00  0.00     0.084 A 
HETATM   16  C   UNL     1      44.432 -14.696   6.974  1.00  0.00     0.027 A 
HETATM   17  C   UNL     1      43.385 -14.270   5.987  1.00  0.00     0.027 A 
ENDBRANCH  12  15
ENDBRANCH   6  11
ENDBRANCH   2   5
BRANCH   1  18
HETATM   18  C   UNL     1      41.380 -16.980   0.576  1.00  0.00     0.144 C 
BRANCH  18  19
HETATM   19  C   UNL     1      40.948 -15.564   0.750  1.00  0.00    -0.014 A 
HETATM   20  C   UNL     1      40.560 -14.911   1.960  1.00  0.00     0.006 A 
HETATM   21  C   UNL     1      40.355 -13.578   1.626  1.00  0.00     0.088 A 
HETATM   22  C   UNL     1      40.386 -15.293   3.301  1.00  0.00     0.017 A 
HETATM   23  C   UNL     1      40.020 -12.575   2.533  1.00  0.00     0.074 A 
HETATM   24  O   UNL     1      40.544 -13.393   0.291  1.00  0.00    -0.321 OA
HETATM   25  C   UNL     1      39.894 -12.967   3.869  1.00  0.00     0.070 A 
HETATM   26  C   UNL     1      40.042 -14.308   4.239  1.00  0.00     0.038 A 
HETATM   27  C   UNL     1      40.908 -14.590  -0.229  1.00  0.00     0.151 A 
BRANCH  25  28
HETATM   28  O   UNL     1      39.596 -12.111   4.899  1.00  0.00    -0.356 OA
HETATM   29  C   UNL     1      39.236 -12.745   6.124  1.00  0.00     0.210 C 
ENDBRANCH  25  28
ENDBRANCH  18  19
ENDBRANCH   1  18
TORSDOF 6
ENDMDL
MODEL 9
REMARK VINA RESULT:      -7.3      1.953      4.367
REMARK  6 active torsions:
REMARK  status: ('A' for Active; 'I' for Inactive)
REMARK    1  A    between atoms: O_2  and  C_3 
REMARK    2  A    between atoms: C_7  and  C_8 
REMARK    3  A    between atoms: C_8  and  C_9 
REMARK       I    between atoms: C_9  and  N_10 
REMARK    4  A    between atoms: N_10  and  C_11 
REMARK    5  A    between atoms: C_12  and  C_13 
REMARK       I    between atoms: C_13  and  N_14 
REMARK    6  A    between atoms: N_14  and  C_15 
ROOT
HETATM    1  C   UNL     1      43.457 -18.943   2.073  1.00  0.00     0.226 C 
HETATM    2  N   UNL     1      44.174 -18.719   3.235  1.00  0.00    -0.326 N 
HETATM    3  O   UNL     1      42.968 -20.019   1.738  1.00  0.00    -0.273 OA
HETATM    4  H   UNL     1      44.725 -17.866   3.276  1.00  0.00     0.169 HD
ENDROOT
BRANCH   2   5
HETATM    5  C   UNL     1      44.258 -19.574   4.365  1.00  0.00     0.050 A 
HETATM    6  C   UNL     1      43.690 -19.178   5.592  1.00  0.00     0.058 A 
HETATM    7  C   UNL     1      43.635 -20.060   6.681  1.00  0.00     0.019 A 
HETATM    8  C   UNL     1      44.178 -21.337   6.572  1.00  0.00     0.001 A 
HETATM    9  C   UNL     1      44.776 -21.729   5.379  1.00  0.00     0.002 A 
HETATM   10  C   UNL     1      44.812 -20.858   4.283  1.00  0.00     0.030 A 
BRANCH   6  11
HETATM   11  C   UNL     1      43.171 -17.808   5.825  1.00  0.00     0.254 C 
HETATM   12  N   UNL     1      44.055 -16.954   6.454  1.00  0.00    -0.352 N 
HETATM   13  H   UNL     1      44.927 -17.334   6.809  1.00  0.00     0.163 HD
HETATM   14  O   UNL     1      42.029 -17.516   5.492  1.00  0.00    -0.268 OA
BRANCH  12  15
HETATM   15  C   UNL     1      43.671 -15.650   6.891  1.00  0.00     0.084 A 
HETATM   16  C   UNL     1      44.716 -14.607   7.175  1.00  0.00     0.027 A 
HETATM   17  C   UNL     1      43.821 -14.463   5.979  1.00  0.00     0.027 A 
ENDBRANCH  12  15
ENDBRANCH   6  11
ENDBRANCH   2   5
BRANCH   1  18
HETATM   18  C   UNL     1      43.219 -17.700   1.231  1.00  0.00     0.144 C 
BRANCH  18  19
HETATM   19  C   UNL     1      42.025 -16.898   1.621  1.00  0.00    -0.014 A 
HETATM   20  C   UNL     1      41.993 -15.547   2.086  1.00  0.00     0.006 A 
HETATM   21  C   UNL     1      40.649 -15.217   2.210  1.00  0.00     0.088 A 
HETATM   22  C   UNL     1      42.948 -14.563   2.391  1.00  0.00     0.017 A 
HETATM   23  C   UNL     1      40.171 -13.963   2.583  1.00  0.00     0.074 A 
HETATM   24  O   UNL     1      39.870 -16.290   1.899  1.00  0.00    -0.321 OA
HETATM   25  C   UNL     1      41.136 -12.985   2.840  1.00  0.00     0.070 A 
HETATM   26  C   UNL     1      42.500 -13.291   2.777  1.00  0.00     0.038 A 
HETATM   27  C   UNL     1      40.704 -17.295   1.538  1.00  0.00     0.151 A 
BRANCH  25  28
HETATM   28  O   UNL     1      40.847 -11.692   3.193  1.00  0.00    -0.356 OA
HETATM   29  C   UNL     1      40.827 -10.761   2.113  1.00  0.00     0.210 C 
ENDBRANCH  25  28
ENDBRANCH  18  19
ENDBRANCH   1  18
TORSDOF 6
ENDMDL
MODEL 10
REMARK VINA RESULT:      -7.1      3.574      5.970
REMARK  6 active torsions:
REMARK  status: ('A' for Active; 'I' for Inactive)
REMARK    1  A    between atoms: O_2  and  C_3 
REMARK    2  A    between atoms: C_7  and  C_8 
REMARK    3  A    between atoms: C_8  and  C_9 
REMARK       I    between atoms: C_9  and  N_10 
REMARK    4  A    between atoms: N_10  and  C_11 
REMARK    5  A    between atoms: C_12  and  C_13 
REMARK       I    between atoms: C_13  and  N_14 
REMARK    6  A    between atoms: N_14  and  C_15 
ROOT
HETATM    1  C   UNL     1      41.839 -16.095   2.001  1.00  0.00     0.226 C 
HETATM    2  N   UNL     1      41.664 -17.417   2.367  1.00  0.00    -0.326 N 
HETATM    3  O   UNL     1      42.856 -15.433   2.201  1.00  0.00    -0.273 OA
HETATM    4  H   UNL     1      40.711 -17.770   2.367  1.00  0.00     0.169 HD
ENDROOT
BRANCH   2   5
HETATM    5  C   UNL     1      42.670 -18.330   2.782  1.00  0.00     0.050 A 
HETATM    6  C   UNL     1      43.089 -18.351   4.127  1.00  0.00     0.058 A 
HETATM    7  C   UNL     1      43.974 -19.335   4.592  1.00  0.00     0.019 A 
HETATM    8  C   UNL     1      44.481 -20.288   3.714  1.00  0.00     0.001 A 
HETATM    9  C   UNL     1      44.105 -20.256   2.375  1.00  0.00     0.002 A 
HETATM   10  C   UNL     1      43.204 -19.289   1.913  1.00  0.00     0.030 A 
BRANCH   6  11
HETATM   11  C   UNL     1      42.671 -17.321   5.110  1.00  0.00     0.254 C 
HETATM   12  N   UNL     1      43.610 -16.338   5.351  1.00  0.00    -0.352 N 
HETATM   13  H   UNL     1      44.535 -16.441   4.946  1.00  0.00     0.163 HD
HETATM   14  O   UNL     1      41.579 -17.399   5.658  1.00  0.00    -0.268 OA
BRANCH  12  15
HETATM   15  C   UNL     1      43.437 -15.357   6.374  1.00  0.00     0.084 A 
HETATM   16  C   UNL     1      44.607 -14.539   6.845  1.00  0.00     0.027 A 
HETATM   17  C   UNL     1      43.512 -13.891   6.049  1.00  0.00     0.027 A 
ENDBRANCH  12  15
ENDBRANCH   6  11
ENDBRANCH   2   5
BRANCH   1  18
HETATM   18  C   UNL     1      40.680 -15.498   1.220  1.00  0.00     0.144 C 
BRANCH  18  19
HETATM   19  C   UNL     1      41.049 -14.910  -0.098  1.00  0.00    -0.014 A 
HETATM   20  C   UNL     1      41.582 -13.609  -0.357  1.00  0.00     0.006 A 
HETATM   21  C   UNL     1      41.862 -13.575  -1.718  1.00  0.00     0.088 A 
HETATM   22  C   UNL     1      41.881 -12.471   0.411  1.00  0.00     0.017 A 
HETATM   23  C   UNL     1      42.454 -12.501  -2.379  1.00  0.00     0.074 A 
HETATM   24  O   UNL     1      41.489 -14.745  -2.305  1.00  0.00    -0.321 OA
HETATM   25  C   UNL     1      42.783 -11.395  -1.590  1.00  0.00     0.070 A 
HETATM   26  C   UNL     1      42.472 -11.370  -0.226  1.00  0.00     0.038 A 
HETATM   27  C   UNL     1      41.008 -15.546  -1.324  1.00  0.00     0.151 A 
BRANCH  25  28
HETATM   28  O   UNL     1      43.393 -10.263  -2.066  1.00  0.00    -0.356 OA
HETATM   29  C   UNL     1      42.509  -9.192  -2.389  1.00  0.00     0.210 C 
ENDBRANCH  25  28
ENDBRANCH  18  19
ENDBRANCH   1  18
TORSDOF 6
ENDMDL
