MODEL 1
REMARK VINA RESULT:      -8.2      0.000      0.000
REMARK  5 active torsions:
REMARK  status: ('A' for Active; 'I' for Inactive)
REMARK    1  A    between atoms: C_6  and  C_7 
REMARK    2  A    between atoms: C_12  and  C_13 
REMARK    3  A    between atoms: C_13  and  N_14 
REMARK    4  A    between atoms: C_17  and  O_18 
REMARK    5  A    between atoms: C_17  and  C_19 
ROOT
HETATM    1  C   UNL     1      44.297 -18.751   5.331  1.00  0.00     0.096 A 
HETATM    2  N   UNL     1      45.235 -18.288   6.165  1.00  0.00    -0.174 NA
HETATM    3  N   UNL     1      44.827 -17.061   6.505  1.00  0.00    -0.288 N 
HETATM    4  H   UNL     1      45.379 -16.539   7.183  1.00  0.00     0.188 HD
HETATM    5  C   UNL     1      43.700 -16.673   5.843  1.00  0.00     0.120 A 
HETATM    6  C   UNL     1      43.319 -17.743   5.055  1.00  0.00     0.016 A 
ENDROOT
BRANCH   6   7
HETATM    7  C   UNL     1      42.165 -17.807   4.122  1.00  0.00     0.277 C 
BRANCH   7   8
HETATM    8  N   UNL     1      42.383 -16.986   2.873  1.00  0.00    -0.064 N 
HETATM    9  H   UNL     1      43.360 -16.662   2.898  1.00  0.00     0.280 HD
HETATM   10  C   UNL     1      41.477 -15.753   2.774  1.00  0.00     0.282 C 
HETATM   11  C   UNL     1      40.514 -16.087   1.637  1.00  0.00     0.180 C 
HETATM   12  C   UNL     1      41.407 -16.856   0.676  1.00  0.00     0.076 C 
HETATM   13  C   UNL     1      42.177 -17.786   1.602  1.00  0.00     0.238 C 
BRANCH  11  14
HETATM   14  O   UNL     1      39.507 -17.001   2.128  1.00  0.00    -0.379 OA
HETATM   15  H   UNL     1      39.902 -17.540   2.847  1.00  0.00     0.211 HD
ENDBRANCH  11  14
BRANCH  11  16
HETATM   16  C   UNL     1      39.935 -14.802   1.056  1.00  0.00     0.419 C 
HETATM   17  F   UNL     1      40.499 -13.717   1.622  1.00  0.00    -0.168 F 
HETATM   18  F   UNL     1      40.153 -14.753  -0.274  1.00  0.00    -0.168 F 
HETATM   19  F   UNL     1      38.606 -14.742   1.268  1.00  0.00    -0.168 F 
ENDBRANCH  11  16
ENDBRANCH   7   8
ENDBRANCH   6   7
BRANCH   1  20
HETATM   20  C   UNL     1      44.401 -20.099   4.777  1.00  0.00    -0.003 A 
HETATM   21  C   UNL     1      44.276 -20.323   3.402  1.00  0.00     0.037 A 
HETATM   22  C   UNL     1      44.418 -21.613   2.890  1.00  0.00     0.035 A 
HETATM   23  C   UNL     1      44.666 -22.690   3.736  1.00  0.00     0.024 A 
HETATM   24 CL   UNL     1      44.305 -21.864   1.192  1.00  0.00    -0.084 Cl
HETATM   25  C   UNL     1      44.765 -22.479   5.111  1.00  0.00     0.003 A 
HETATM   26  C   UNL     1      44.632 -21.189   5.629  1.00  0.00     0.014 A 
ENDBRANCH   1  20
TORSDOF 5
ENDMDL
MODEL 2
REMARK VINA RESULT:      -8.1      2.677      3.640
REMARK  5 active torsions:
REMARK  status: ('A' for Active; 'I' for Inactive)
REMARK    1  A    between atoms: C_6  and  C_7 
REMARK    2  A    between atoms: C_12  and  C_13 
REMARK    3  A    between atoms: C_13  and  N_14 
REMARK    4  A    between atoms: C_17  and  O_18 
REMARK    5  A    between atoms: C_17  and  C_19 
ROOT
HETATM    1  C   UNL     1      43.826 -19.007   6.231  1.00  0.00     0.096 A 
HETATM    2  N   UNL     1      43.694 -20.050   7.058  1.00  0.00    -0.174 NA
HETATM    3  N   UNL     1      43.758 -19.532   8.290  1.00  0.00    -0.288 N 
HETATM    4  H   UNL     1      43.628 -20.155   9.084  1.00  0.00     0.188 HD
HETATM    5  C   UNL     1      44.023 -18.194   8.290  1.00  0.00     0.120 A 
HETATM    6  C   UNL     1      44.086 -17.805   6.965  1.00  0.00     0.016 A 
ENDROOT
BRANCH   6   7
HETATM    7  C   UNL     1      44.379 -16.447   6.439  1.00  0.00     0.277 C 
BRANCH   7   8
HETATM    8  N   UNL     1      43.275 -15.461   6.737  1.00  0.00    -0.064 N 
HETATM    9  H   UNL     1      43.101 -15.507   7.751  1.00  0.00     0.280 HD
HETATM   10  C   UNL     1      41.957 -15.766   6.014  1.00  0.00     0.282 C 
HETATM   11  C   UNL     1      41.829 -14.649   4.982  1.00  0.00     0.180 C 
HETATM   12  C   UNL     1      42.406 -13.454   5.727  1.00  0.00     0.076 C 
HETATM   13  C   UNL     1      43.650 -14.035   6.382  1.00  0.00     0.238 C 
BRANCH  11  14
HETATM   14  O   UNL     1      42.706 -14.936   3.868  1.00  0.00    -0.379 OA
HETATM   15  H   UNL     1      43.307 -15.667   4.128  1.00  0.00     0.211 HD
ENDBRANCH  11  14
BRANCH  11  16
HETATM   16  C   UNL     1      40.369 -14.483   4.577  1.00  0.00     0.419 C 
HETATM   17  F   UNL     1      40.109 -13.214   4.208  1.00  0.00    -0.168 F 
HETATM   18  F   UNL     1      40.078 -15.297   3.542  1.00  0.00    -0.168 F 
HETATM   19  F   UNL     1      39.553 -14.797   5.602  1.00  0.00    -0.168 F 
ENDBRANCH  11  16
ENDBRANCH   7   8
ENDBRANCH   6   7
BRANCH   1  20
HETATM   20  C   UNL     1      43.770 -19.199   4.784  1.00  0.00    -0.003 A 
HETATM   21  C   UNL     1      42.851 -18.495   4.000  1.00  0.00     0.037 A 
HETATM   22  C   UNL     1      42.842 -18.664   2.615  1.00  0.00     0.035 A 
HETATM   23  C   UNL     1      43.730 -19.543   2.000  1.00  0.00     0.024 A 
HETATM   24 CL   UNL     1      41.734 -17.759   1.661  1.00  0.00    -0.084 Cl
HETATM   25  C   UNL     1      44.631 -20.269   2.779  1.00  0.00     0.003 A 
HETATM   26  C   UNL     1      44.651 -20.098   4.165  1.00  0.00     0.014 A 
ENDBRANCH   1  20
TORSDOF 5
ENDMDL
MODEL 3
REMARK VINA RESULT:      -7.9      4.396      6.372
REMARK  5 active torsions:
REMARK  status: ('A' for Active; 'I' for Inactive)
REMARK    1  A    between atoms: C_6  and  C_7 
REMARK    2  A    between atoms: C_12  and  C_13 
REMARK    3  A    between atoms: C_13  and  N_14 
REMARK    4  A    between atoms: C_17  and  O_18 
REMARK    5  A    between atoms: C_17  and  C_19 
ROOT
HETATM    1  C   UNL     1      43.744 -17.016   7.478  1.00  0.00     0.096 A 
HETATM    2  N   UNL     1      43.402 -17.083   8.770  1.00  0.00    -0.174 NA
HETATM    3  N   UNL     1      43.938 -18.225   9.216  1.00  0.00    -0.288 N 
HETATM    4  H   UNL     1      43.839 -18.451  10.203  1.00  0.00     0.188 HD
HETATM    5  C   UNL     1      44.539 -18.950   8.230  1.00  0.00     0.120 A 
HETATM    6  C   UNL     1      44.429 -18.205   7.071  1.00  0.00     0.016 A 
ENDROOT
BRANCH   6   7
HETATM    7  C   UNL     1      44.904 -18.578   5.714  1.00  0.00     0.277 C 
BRANCH   7   8
HETATM    8  N   UNL     1      43.815 -19.197   4.869  1.00  0.00    -0.064 N 
HETATM    9  H   UNL     1      42.963 -19.210   5.447  1.00  0.00     0.280 HD
HETATM   10  C   UNL     1      44.112 -20.635   4.429  1.00  0.00     0.282 C 
HETATM   11  C   UNL     1      44.355 -20.525   2.926  1.00  0.00     0.180 C 
HETATM   12  C   UNL     1      43.359 -19.450   2.518  1.00  0.00     0.076 C 
HETATM   13  C   UNL     1      43.527 -18.404   3.610  1.00  0.00     0.238 C 
BRANCH  11  14
HETATM   14  O   UNL     1      45.684 -19.999   2.703  1.00  0.00    -0.379 OA
HETATM   15  H   UNL     1      46.318 -20.748   2.701  1.00  0.00     0.211 HD
ENDBRANCH  11  14
BRANCH  11  16
HETATM   16  C   UNL     1      44.119 -21.877   2.263  1.00  0.00     0.419 C 
HETATM   17  F   UNL     1      42.893 -21.936   1.707  1.00  0.00    -0.168 F 
HETATM   18  F   UNL     1      45.037 -22.088   1.298  1.00  0.00    -0.168 F 
HETATM   19  F   UNL     1      44.218 -22.872   3.165  1.00  0.00    -0.168 F 
ENDBRANCH  11  16
ENDBRANCH   7   8
ENDBRANCH   6   7
BRANCH   1  20
HETATM   20  C   UNL     1      43.349 -15.866   6.668  1.00  0.00    -0.003 A 
HETATM   21  C   UNL     1      42.103 -15.828   6.033  1.00  0.00     0.037 A 
HETATM   22  C   UNL     1      41.730 -14.703   5.297  1.00  0.00     0.035 A 
HETATM   23  C   UNL     1      42.593 -13.618   5.169  1.00  0.00     0.024 A 
HETATM   24 CL   UNL     1      40.177 -14.655   4.558  1.00  0.00    -0.084 Cl
HETATM   25  C   UNL     1      43.848 -13.661   5.777  1.00  0.00     0.003 A 
HETATM   26  C   UNL     1      44.224 -14.780   6.523  1.00  0.00     0.014 A 
ENDBRANCH   1  20
TORSDOF 5
ENDMDL
MODEL 4
REMARK VINA RESULT:      -7.8      1.932      2.576
REMARK  5 active torsions:
REMARK  status: ('A' for Active; 'I' for Inactive)
REMARK    1  A    between atoms: C_6  and  C_7 
REMARK    2  A    between atoms: C_12  and  C_13 
REMARK    3  A    between atoms: C_13  and  N_14 
REMARK    4  A    between atoms: C_17  and  O_18 
REMARK    5  A    between atoms: C_17  and  C_19 
ROOT
HETATM    1  C   UNL     1      43.757 -18.400   6.368  1.00  0.00     0.096 A 
HETATM    2  N   UNL     1      43.962 -19.058   7.514  1.00  0.00    -0.174 NA
HETATM    3  N   UNL     1      43.605 -18.203   8.479  1.00  0.00    -0.288 N 
HETATM    4  H   UNL     1      43.637 -18.523   9.445  1.00  0.00     0.188 HD
HETATM    5  C   UNL     1      43.263 -16.974   7.999  1.00  0.00     0.120 A 
HETATM    6  C   UNL     1      43.355 -17.049   6.622  1.00  0.00     0.016 A 
ENDROOT
BRANCH   6   7
HETATM    7  C   UNL     1      43.109 -15.960   5.643  1.00  0.00     0.277 C 
BRANCH   7   8
HETATM    8  N   UNL     1      41.642 -15.785   5.328  1.00  0.00    -0.064 N 
HETATM    9  H   UNL     1      41.119 -16.166   6.129  1.00  0.00     0.280 HD
HETATM   10  C   UNL     1      41.185 -16.525   4.065  1.00  0.00     0.282 C 
HETATM   11  C   UNL     1      40.895 -15.411   3.062  1.00  0.00     0.180 C 
HETATM   12  C   UNL     1      40.314 -14.322   3.950  1.00  0.00     0.076 C 
HETATM   13  C   UNL     1      41.250 -14.331   5.150  1.00  0.00     0.238 C 
BRANCH  11  14
HETATM   14  O   UNL     1      42.147 -14.922   2.530  1.00  0.00    -0.379 OA
HETATM   15  H   UNL     1      42.396 -14.108   3.020  1.00  0.00     0.211 HD
ENDBRANCH  11  14
BRANCH  11  16
HETATM   16  C   UNL     1      39.937 -15.917   1.990  1.00  0.00     0.419 C 
HETATM   17  F   UNL     1      40.379 -15.601   0.757  1.00  0.00    -0.168 F 
HETATM   18  F   UNL     1      39.815 -17.258   2.069  1.00  0.00    -0.168 F 
HETATM   19  F   UNL     1      38.715 -15.373   2.150  1.00  0.00    -0.168 F 
ENDBRANCH  11  16
ENDBRANCH   7   8
ENDBRANCH   6   7
BRANCH   1  20
HETATM   20  C   UNL     1      44.014 -19.051   5.085  1.00  0.00    -0.003 A 
HETATM   21  C   UNL     1      43.745 -18.395   3.880  1.00  0.00     0.037 A 
HETATM   22  C   UNL     1      44.035 -19.020   2.667  1.00  0.00     0.035 A 
HETATM   23  C   UNL     1      44.577 -20.302   2.639  1.00  0.00     0.024 A 
HETATM   24 CL   UNL     1      43.738 -18.182   1.194  1.00  0.00    -0.084 Cl
HETATM   25  C   UNL     1      44.822 -20.973   3.837  1.00  0.00     0.003 A 
HETATM   26  C   UNL     1      44.542 -20.350   5.055  1.00  0.00     0.014 A 
ENDBRANCH   1  20
TORSDOF 5
ENDMDL
MODEL 5
REMARK VINA RESULT:      -7.8      2.452      3.595
REMARK  5 active torsions:
REMARK  status: ('A' for Active; 'I' for Inactive)
REMARK    1  A    between atoms: C_6  and  C_7 
REMARK    2  A    between atoms: C_12  and  C_13 
REMARK    3  A    between atoms: C_13  and  N_14 
REMARK    4  A    between atoms: C_17  and  O_18 
REMARK    5  A    between atoms: C_17  and  C_19 
ROOT
HETATM    1  C   UNL     1      43.826 -18.817   6.057  1.00  0.00     0.096 A 
HETATM    2  N   UNL     1      43.734 -19.872   6.875  1.00  0.00    -0.174 NA
HETATM    3  N   UNL     1      43.740 -19.360   8.111  1.00  0.00    -0.288 N 
HETATM    4  H   UNL     1      43.627 -19.995   8.898  1.00  0.00     0.188 HD
HETATM    5  C   UNL     1      43.930 -18.009   8.125  1.00  0.00     0.120 A 
HETATM    6  C   UNL     1      44.002 -17.608   6.804  1.00  0.00     0.016 A 
ENDROOT
BRANCH   6   7
HETATM    7  C   UNL     1      44.230 -16.232   6.293  1.00  0.00     0.277 C 
BRANCH   7   8
HETATM    8  N   UNL     1      43.096 -15.294   6.630  1.00  0.00    -0.064 N 
HETATM    9  H   UNL     1      42.910 -15.403   7.637  1.00  0.00     0.280 HD
HETATM   10  C   UNL     1      41.797 -15.591   5.871  1.00  0.00     0.282 C 
HETATM   11  C   UNL     1      41.653 -14.419   4.903  1.00  0.00     0.180 C 
HETATM   12  C   UNL     1      42.187 -13.256   5.724  1.00  0.00     0.076 C 
HETATM   13  C   UNL     1      43.438 -13.841   6.364  1.00  0.00     0.238 C 
BRANCH  11  14
HETATM   14  O   UNL     1      42.553 -14.619   3.788  1.00  0.00    -0.379 OA
HETATM   15  H   UNL     1      43.163 -13.851   3.741  1.00  0.00     0.211 HD
ENDBRANCH  11  14
BRANCH  11  16
HETATM   16  C   UNL     1      40.195 -14.269   4.485  1.00  0.00     0.419 C 
HETATM   17  F   UNL     1      39.366 -14.549   5.511  1.00  0.00    -0.168 F 
HETATM   18  F   UNL     1      39.956 -13.007   4.074  1.00  0.00    -0.168 F 
HETATM   19  F   UNL     1      39.903 -15.106   3.471  1.00  0.00    -0.168 F 
ENDBRANCH  11  16
ENDBRANCH   7   8
ENDBRANCH   6   7
BRANCH   1  20
HETATM   20  C   UNL     1      43.816 -19.002   4.608  1.00  0.00    -0.003 A 
HETATM   21  C   UNL     1      44.237 -20.206   4.034  1.00  0.00     0.037 A 
HETATM   22  C   UNL     1      44.181 -20.375   2.650  1.00  0.00     0.035 A 
HETATM   23  C   UNL     1      43.725 -19.350   1.826  1.00  0.00     0.024 A 
HETATM   24 CL   UNL     1      44.663 -21.877   1.963  1.00  0.00    -0.084 Cl
HETATM   25  C   UNL     1      43.329 -18.137   2.390  1.00  0.00     0.003 A 
HETATM   26  C   UNL     1      43.374 -17.964   3.774  1.00  0.00     0.014 A 
ENDBRANCH   1  20
TORSDOF 5
ENDMDL
MODEL 6
REMARK VINA RESULT:      -7.7      1.532      2.235
REMARK  5 active torsions:
REMARK  status: ('A' for Active; 'I' for Inactive)
REMARK    1  A    between atoms: C_6  and  C_7 
REMARK    2  A    between atoms: C_12  and  C_13 
REMARK    3  A    between atoms: C_13  and  N_14 
REMARK    4  A    between atoms: C_17  and  O_18 
REMARK    5  A    between atoms: C_17  and  C_19 
ROOT
HETATM    1  C   UNL     1      43.684 -17.456   5.431  1.00  0.00     0.096 A 
HETATM    2  N   UNL     1      44.519 -17.022   6.381  1.00  0.00    -0.174 NA
HETATM    3  N   UNL     1      43.907 -15.970   6.934  1.00  0.00    -0.288 N 
HETATM    4  H   UNL     1      44.354 -15.511   7.725  1.00  0.00     0.188 HD
HETATM    5  C   UNL     1      42.738 -15.647   6.309  1.00  0.00     0.120 A 
HETATM    6  C   UNL     1      42.554 -16.586   5.311  1.00  0.00     0.016 A 
ENDROOT
BRANCH   6   7
HETATM    7  C   UNL     1      41.439 -16.649   4.332  1.00  0.00     0.277 C 
BRANCH   7   8
HETATM    8  N   UNL     1      41.486 -15.523   3.326  1.00  0.00    -0.064 N 
HETATM    9  H   UNL     1      42.253 -14.900   3.615  1.00  0.00     0.280 HD
HETATM   10  C   UNL     1      40.198 -14.695   3.259  1.00  0.00     0.282 C 
HETATM   11  C   UNL     1      39.594 -15.050   1.903  1.00  0.00     0.180 C 
HETATM   12  C   UNL     1      40.831 -15.204   1.030  1.00  0.00     0.076 C 
HETATM   13  C   UNL     1      41.770 -16.007   1.917  1.00  0.00     0.238 C 
BRANCH  11  14
HETATM   14  O   UNL     1      38.960 -16.346   1.996  1.00  0.00    -0.379 OA
HETATM   15  H   UNL     1      38.250 -16.295   2.673  1.00  0.00     0.211 HD
ENDBRANCH  11  14
BRANCH  11  16
HETATM   16  C   UNL     1      38.648 -13.942   1.452  1.00  0.00     0.419 C 
HETATM   17  F   UNL     1      37.421 -14.432   1.187  1.00  0.00    -0.168 F 
HETATM   18  F   UNL     1      38.536 -13.005   2.415  1.00  0.00    -0.168 F 
HETATM   19  F   UNL     1      39.112 -13.347   0.336  1.00  0.00    -0.168 F 
ENDBRANCH  11  16
ENDBRANCH   7   8
ENDBRANCH   6   7
BRANCH   1  20
HETATM   20  C   UNL     1      44.020 -18.631   4.630  1.00  0.00    -0.003 A 
HETATM   21  C   UNL     1      44.461 -19.812   5.237  1.00  0.00     0.037 A 
HETATM   22  C   UNL     1      44.739 -20.934   4.456  1.00  0.00     0.035 A 
HETATM   23  C   UNL     1      44.599 -20.891   3.072  1.00  0.00     0.024 A 
HETATM   24 CL   UNL     1      45.239 -22.392   5.222  1.00  0.00    -0.084 Cl
HETATM   25  C   UNL     1      44.186 -19.708   2.458  1.00  0.00     0.003 A 
HETATM   26  C   UNL     1      43.898 -18.584   3.234  1.00  0.00     0.014 A 
ENDBRANCH   1  20
TORSDOF 5
ENDMDL
MODEL 7
REMARK VINA RESULT:      -7.6      2.997      4.163
REMARK  5 active torsions:
REMARK  status: ('A' for Active; 'I' for Inactive)
REMARK    1  A    between atoms: C_6  and  C_7 
REMARK    2  A    between atoms: C_12  and  C_13 
REMARK    3  A    between atoms: C_13  and  N_14 
REMARK    4  A    between atoms: C_17  and  O_18 
REMARK    5  A    between atoms: C_17  and  C_19 
ROOT
HETATM    1  C   UNL     1      41.550 -16.712   3.785  1.00  0.00     0.096 A 
HETATM    2  N   UNL     1      41.019 -16.686   5.012  1.00  0.00    -0.174 NA
HETATM    3  N   UNL     1      40.250 -15.592   5.039  1.00  0.00    -0.288 N 
HETATM    4  H   UNL     1      39.705 -15.405   5.879  1.00  0.00     0.188 HD
HETATM    5  C   UNL     1      40.339 -14.852   3.898  1.00  0.00     0.120 A 
HETATM    6  C   UNL     1      41.187 -15.539   3.049  1.00  0.00     0.016 A 
ENDROOT
BRANCH   6   7
HETATM    7  C   UNL     1      41.626 -15.129   1.690  1.00  0.00     0.277 C 
BRANCH   7   8
HETATM    8  N   UNL     1      40.558 -15.350   0.645  1.00  0.00    -0.064 N 
HETATM    9  H   UNL     1      39.882 -16.014   1.048  1.00  0.00     0.280 HD
HETATM   10  C   UNL     1      41.086 -15.944  -0.666  1.00  0.00     0.282 C 
HETATM   11  C   UNL     1      40.958 -14.803  -1.672  1.00  0.00     0.180 C 
HETATM   12  C   UNL     1      39.670 -14.126  -1.230  1.00  0.00     0.076 C 
HETATM   13  C   UNL     1      39.819 -14.076   0.284  1.00  0.00     0.238 C 
BRANCH  11  14
HETATM   14  O   UNL     1      42.040 -13.867  -1.461  1.00  0.00    -0.379 OA
HETATM   15  H   UNL     1      42.391 -13.999  -0.553  1.00  0.00     0.211 HD
ENDBRANCH  11  14
BRANCH  11  16
HETATM   16  C   UNL     1      40.911 -15.365  -3.089  1.00  0.00     0.419 C 
HETATM   17  F   UNL     1      42.152 -15.530  -3.586  1.00  0.00    -0.168 F 
HETATM   18  F   UNL     1      40.286 -16.560  -3.094  1.00  0.00    -0.168 F 
HETATM   19  F   UNL     1      40.238 -14.533  -3.907  1.00  0.00    -0.168 F 
ENDBRANCH  11  16
ENDBRANCH   7   8
ENDBRANCH   6   7
BRANCH   1  20
HETATM   20  C   UNL     1      42.433 -17.805   3.384  1.00  0.00    -0.003 A 
HETATM   21  C   UNL     1      43.292 -18.411   4.307  1.00  0.00     0.037 A 
HETATM   22  C   UNL     1      44.097 -19.479   3.912  1.00  0.00     0.035 A 
HETATM   23  C   UNL     1      44.071 -19.943   2.600  1.00  0.00     0.024 A 
HETATM   24 CL   UNL     1      45.117 -20.241   5.070  1.00  0.00    -0.084 Cl
HETATM   25  C   UNL     1      43.236 -19.326   1.668  1.00  0.00     0.003 A 
HETATM   26  C   UNL     1      42.421 -18.262   2.058  1.00  0.00     0.014 A 
ENDBRANCH   1  20
TORSDOF 5
ENDMDL
MODEL 8
REMARK VINA RESULT:      -7.6      3.641      5.299
REMARK  5 active torsions:
REMARK  status: ('A' for Active; 'I' for Inactive)
REMARK    1  A    between atoms: C_6  and  C_7 
REMARK    2  A    between atoms: C_12  and  C_13 
REMARK    3  A    between atoms: C_13  and  N_14 
REMARK    4  A    between atoms: C_17  and  O_18 
REMARK    5  A    between atoms: C_17  and  C_19 
ROOT
HETATM    1  C   UNL     1      41.829 -17.268   1.785  1.00  0.00     0.096 A 
HETATM    2  N   UNL     1      41.542 -17.325   0.480  1.00  0.00    -0.174 NA
HETATM    3  N   UNL     1      40.764 -16.262   0.244  1.00  0.00    -0.288 N 
HETATM    4  H   UNL     1      40.467 -16.084  -0.713  1.00  0.00     0.188 HD
HETATM    5  C   UNL     1      40.458 -15.567   1.376  1.00  0.00     0.120 A 
HETATM    6  C   UNL     1      41.124 -16.192   2.414  1.00  0.00     0.016 A 
ENDROOT
BRANCH   6   7
HETATM    7  C   UNL     1      41.088 -15.829   3.854  1.00  0.00     0.277 C 
BRANCH   7   8
HETATM    8  N   UNL     1      41.983 -14.655   4.177  1.00  0.00    -0.064 N 
HETATM    9  H   UNL     1      42.164 -14.167   3.289  1.00  0.00     0.280 HD
HETATM   10  C   UNL     1      43.333 -15.052   4.786  1.00  0.00     0.282 C 
HETATM   11  C   UNL     1      43.242 -14.585   6.236  1.00  0.00     0.180 C 
HETATM   12  C   UNL     1      42.448 -13.294   6.108  1.00  0.00     0.076 C 
HETATM   13  C   UNL     1      41.340 -13.674   5.138  1.00  0.00     0.238 C 
BRANCH  11  14
HETATM   14  O   UNL     1      42.434 -15.524   6.982  1.00  0.00    -0.379 OA
HETATM   15  H   UNL     1      42.344 -16.345   6.452  1.00  0.00     0.211 HD
ENDBRANCH  11  14
BRANCH  11  16
HETATM   16  C   UNL     1      44.643 -14.400   6.809  1.00  0.00     0.419 C 
HETATM   17  F   UNL     1      44.596 -13.820   8.024  1.00  0.00    -0.168 F 
HETATM   18  F   UNL     1      45.258 -15.594   6.928  1.00  0.00    -0.168 F 
HETATM   19  F   UNL     1      45.387 -13.620   6.001  1.00  0.00    -0.168 F 
ENDBRANCH  11  16
ENDBRANCH   7   8
ENDBRANCH   6   7
BRANCH   1  20
HETATM   20  C   UNL     1      42.699 -18.270   2.395  1.00  0.00    -0.003 A 
HETATM   21  C   UNL     1      42.938 -19.495   1.764  1.00  0.00     0.037 A 
HETATM   22  C   UNL     1      43.803 -20.422   2.345  1.00  0.00     0.035 A 
HETATM   23  C   UNL     1      44.423 -20.150   3.562  1.00  0.00     0.024 A 
HETATM   24 CL   UNL     1      44.119 -21.906   1.535  1.00  0.00    -0.084 Cl
HETATM   25  C   UNL     1      44.169 -18.942   4.211  1.00  0.00     0.003 A 
HETATM   26  C   UNL     1      43.310 -18.006   3.630  1.00  0.00     0.014 A 
ENDBRANCH   1  20
TORSDOF 5
ENDMDL
MODEL 9
REMARK VINA RESULT:      -7.5      1.815      2.542
REMARK  5 active torsions:
REMARK  status: ('A' for Active; 'I' for Inactive)
REMARK    1  A    between atoms: C_6  and  C_7 
REMARK    2  A    between atoms: C_12  and  C_13 
REMARK    3  A    between atoms: C_13  and  N_14 
REMARK    4  A    between atoms: C_17  and  O_18 
REMARK    5  A    between atoms: C_17  and  C_19 
ROOT
HETATM    1  C   UNL     1      43.441 -16.186   6.148  1.00  0.00     0.096 A 
HETATM    2  N   UNL     1      44.211 -15.381   6.888  1.00  0.00    -0.174 NA
HETATM    3  N   UNL     1      43.719 -14.151   6.697  1.00  0.00    -0.288 N 
HETATM    4  H   UNL     1      44.134 -13.379   7.214  1.00  0.00     0.188 HD
HETATM    5  C   UNL     1      42.711 -14.120   5.779  1.00  0.00     0.120 A 
HETATM    6  C   UNL     1      42.498 -15.427   5.384  1.00  0.00     0.016 A 
ENDROOT
BRANCH   6   7
HETATM    7  C   UNL     1      41.521 -15.914   4.377  1.00  0.00     0.277 C 
BRANCH   7   8
HETATM    8  N   UNL     1      42.160 -16.189   3.036  1.00  0.00    -0.064 N 
HETATM    9  H   UNL     1      43.177 -16.200   3.189  1.00  0.00     0.280 HD
HETATM   10  C   UNL     1      41.850 -15.131   1.971  1.00  0.00     0.282 C 
HETATM   11  C   UNL     1      40.933 -15.849   0.984  1.00  0.00     0.180 C 
HETATM   12  C   UNL     1      41.509 -17.257   0.978  1.00  0.00     0.076 C 
HETATM   13  C   UNL     1      41.750 -17.529   2.455  1.00  0.00     0.238 C 
BRANCH  11  14
HETATM   14  O   UNL     1      39.603 -15.922   1.546  1.00  0.00    -0.379 OA
HETATM   15  H   UNL     1      39.358 -15.031   1.878  1.00  0.00     0.211 HD
ENDBRANCH  11  14
BRANCH  11  16
HETATM   16  C   UNL     1      40.983 -15.151  -0.370  1.00  0.00     0.419 C 
HETATM   17  F   UNL     1      39.820 -14.524  -0.634  1.00  0.00    -0.168 F 
HETATM   18  F   UNL     1      41.974 -14.237  -0.387  1.00  0.00    -0.168 F 
HETATM   19  F   UNL     1      41.212 -16.041  -1.356  1.00  0.00    -0.168 F 
ENDBRANCH  11  16
ENDBRANCH   7   8
ENDBRANCH   6   7
BRANCH   1  20
HETATM   20  C   UNL     1      43.672 -17.629   6.141  1.00  0.00    -0.003 A 
HETATM   21  C   UNL     1      44.169 -18.271   5.002  1.00  0.00     0.037 A 
HETATM   22  C   UNL     1      44.421 -19.643   5.030  1.00  0.00     0.035 A 
HETATM   23  C   UNL     1      44.165 -20.390   6.177  1.00  0.00     0.024 A 
HETATM   24 CL   UNL     1      45.072 -20.410   3.635  1.00  0.00    -0.084 Cl
HETATM   25  C   UNL     1      43.644 -19.761   7.308  1.00  0.00     0.003 A 
HETATM   26  C   UNL     1      43.398 -18.386   7.289  1.00  0.00     0.014 A 
ENDBRANCH   1  20
TORSDOF 5
ENDMDL
MODEL 10
REMARK VINA RESULT:      -7.4      2.912      3.943
REMARK  5 active torsions:
REMARK  status: ('A' for Active; 'I' for Inactive)
REMARK    1  A    between atoms: C_6  and  C_7 
REMARK    2  A    between atoms: C_12  and  C_13 
REMARK    3  A    between atoms: C_13  and  N_14 
REMARK    4  A    between atoms: C_17  and  O_18 
REMARK    5  A    between atoms: C_17  and  C_19 
ROOT
HETATM    1  C   UNL     1      41.487 -16.892   4.665  1.00  0.00     0.096 A 
HETATM    2  N   UNL     1      40.821 -17.355   5.728  1.00  0.00    -0.174 NA
HETATM    3  N   UNL     1      40.128 -16.309   6.192  1.00  0.00    -0.288 N 
HETATM    4  H   UNL     1      39.503 -16.455   6.982  1.00  0.00     0.188 HD
HETATM    5  C   UNL     1      40.396 -15.154   5.518  1.00  0.00     0.120 A 
HETATM    6  C   UNL     1      41.289 -15.482   4.515  1.00  0.00     0.016 A 
ENDROOT
BRANCH   6   7
HETATM    7  C   UNL     1      41.907 -14.563   3.526  1.00  0.00     0.277 C 
BRANCH   7   8
HETATM    8  N   UNL     1      41.056 -14.383   2.291  1.00  0.00    -0.064 N 
HETATM    9  H   UNL     1      40.458 -15.218   2.219  1.00  0.00     0.280 HD
HETATM   10  C   UNL     1      41.863 -14.263   0.993  1.00  0.00     0.282 C 
HETATM   11  C   UNL     1      41.681 -12.807   0.572  1.00  0.00     0.180 C 
HETATM   12  C   UNL     1      40.243 -12.531   0.984  1.00  0.00     0.076 C 
HETATM   13  C   UNL     1      40.162 -13.161   2.367  1.00  0.00     0.238 C 
BRANCH  11  14
HETATM   14  O   UNL     1      42.538 -11.973   1.384  1.00  0.00    -0.379 OA
HETATM   15  H   UNL     1      42.139 -11.896   2.278  1.00  0.00     0.211 HD
ENDBRANCH  11  14
BRANCH  11  16
HETATM   16  C   UNL     1      41.937 -12.665  -0.924  1.00  0.00     0.419 C 
HETATM   17  F   UNL     1      43.108 -12.041  -1.158  1.00  0.00    -0.168 F 
HETATM   18  F   UNL     1      41.977 -13.880  -1.507  1.00  0.00    -0.168 F 
HETATM   19  F   UNL     1      40.957 -11.949  -1.508  1.00  0.00    -0.168 F 
ENDBRANCH  11  16
ENDBRANCH   7   8
ENDBRANCH   6   7
BRANCH   1  20
HETATM   20  C   UNL     1      42.337 -17.783   3.879  1.00  0.00    -0.003 A 
HETATM   21  C   UNL     1      43.311 -18.576   4.495  1.00  0.00     0.037 A 
HETATM   22  C   UNL     1      44.085 -19.449   3.730  1.00  0.00     0.035 A 
HETATM   23  C   UNL     1      43.911 -19.531   2.351  1.00  0.00     0.024 A 
HETATM   24 CL   UNL     1      45.250 -20.448   4.508  1.00  0.00    -0.084 Cl
HETATM   25  C   UNL     1      42.960 -18.724   1.726  1.00  0.00     0.003 A 
HETATM   26  C   UNL     1      42.177 -17.854   2.487  1.00  0.00     0.014 A 
ENDBRANCH   1  20
TORSDOF 5
ENDMDL
