MODEL 1
REMARK VINA RESULT:      -8.5      0.000      0.000
REMARK  5 active torsions:
REMARK  status: ('A' for Active; 'I' for Inactive)
REMARK    1  A    between atoms: C_2  and  O_3 
REMARK    2  A    between atoms: O_3  and  C_4 
REMARK    3  A    between atoms: C_8  and  C_9 
REMARK    4  A    between atoms: C_9  and  N_10 
REMARK       I    between atoms: N_10  and  C_11 
REMARK       I    between atoms: C_11  and  N_12 
REMARK    5  A    between atoms: N_12  and  C_13 
ROOT
HETATM    1  N   UNL     1      43.596 -13.947   7.008  1.00  0.00    -0.339 N 
HETATM    2  C   UNL     1      44.693 -13.353   7.581  1.00  0.00     0.316 C 
HETATM    3  N   UNL     1      44.398 -12.838   8.818  1.00  0.00    -0.337 N 
HETATM    4  O   UNL     1      45.792 -13.284   7.047  1.00  0.00    -0.247 OA
HETATM    5  H   UNL     1      42.882 -14.280   7.639  1.00  0.00     0.164 HD
HETATM    6  H   UNL     1      43.423 -12.740   9.064  1.00  0.00     0.164 HD
ENDROOT
BRANCH   1   7
HETATM    7  C   UNL     1      43.680 -14.588   5.716  1.00  0.00     0.163 C 
BRANCH   7   8
HETATM    8  C   UNL     1      43.439 -16.069   5.820  1.00  0.00    -0.035 A 
HETATM    9  C   UNL     1      43.489 -16.718   7.056  1.00  0.00     0.028 A 
HETATM   10  C   UNL     1      43.262 -18.084   7.098  1.00  0.00     0.120 A 
HETATM   11  N   UNL     1      43.001 -18.838   6.008  1.00  0.00    -0.237 NA
HETATM   12  C   UNL     1      42.960 -18.200   4.826  1.00  0.00     0.165 A 
HETATM   13  C   UNL     1      43.150 -16.832   4.685  1.00  0.00     0.066 A 
BRANCH  12  14
HETATM   14  O   UNL     1      42.669 -18.887   3.670  1.00  0.00    -0.324 OA
BRANCH  14  15
HETATM   15  C   UNL     1      43.741 -19.289   2.797  1.00  0.00     0.058 C 
HETATM   16  C   UNL     1      44.927 -19.905   3.555  1.00  0.00     0.045 C 
HETATM   17  C   UNL     1      44.181 -18.166   1.845  1.00  0.00     0.045 C 
HETATM   18  C   UNL     1      43.112 -20.405   1.940  1.00  0.00     0.045 C 
ENDBRANCH  14  15
ENDBRANCH  12  14
ENDBRANCH   7   8
ENDBRANCH   1   7
BRANCH   3  19
HETATM   19  C   UNL     1      45.353 -12.123   9.611  1.00  0.00     0.100 A 
HETATM   20  C   UNL     1      44.973 -10.857  10.344  1.00  0.00     0.049 A 
HETATM   21  C   UNL     1      45.289 -12.129  11.118  1.00  0.00     0.024 A 
HETATM   22  C   UNL     1      43.549 -10.551  10.690  1.00  0.00    -0.045 A 
HETATM   23  C   UNL     1      44.061 -12.573  11.898  1.00  0.00     0.046 A 
HETATM   24  C   UNL     1      43.027 -11.520  11.569  1.00  0.00    -0.051 A 
HETATM   25  C   UNL     1      41.719 -11.463  12.023  1.00  0.00     0.007 A 
HETATM   26  C   UNL     1      40.915 -10.410  11.585  1.00  0.00     0.001 A 
HETATM   27  C   UNL     1      41.422  -9.440  10.707  1.00  0.00     0.001 A 
HETATM   28  C   UNL     1      42.743  -9.509  10.256  1.00  0.00     0.008 A 
ENDBRANCH   3  19
TORSDOF 5
ENDMDL
MODEL 2
REMARK VINA RESULT:      -8.4      1.410      1.807
REMARK  5 active torsions:
REMARK  status: ('A' for Active; 'I' for Inactive)
REMARK    1  A    between atoms: C_2  and  O_3 
REMARK    2  A    between atoms: O_3  and  C_4 
REMARK    3  A    between atoms: C_8  and  C_9 
REMARK    4  A    between atoms: C_9  and  N_10 
REMARK       I    between atoms: N_10  and  C_11 
REMARK       I    between atoms: C_11  and  N_12 
REMARK    5  A    between atoms: N_12  and  C_13 
ROOT
HETATM    1  N   UNL     1      44.069 -14.199   7.803  1.00  0.00    -0.339 N 
HETATM    2  C   UNL     1      44.856 -13.191   8.301  1.00  0.00     0.316 C 
HETATM    3  N   UNL     1      44.264 -12.574   9.376  1.00  0.00    -0.337 N 
HETATM    4  O   UNL     1      45.943 -12.875   7.836  1.00  0.00    -0.247 OA
HETATM    5  H   UNL     1      43.412 -14.617   8.444  1.00  0.00     0.164 HD
HETATM    6  H   UNL     1      43.281 -12.747   9.532  1.00  0.00     0.164 HD
ENDROOT
BRANCH   1   7
HETATM    7  C   UNL     1      44.505 -15.009   6.689  1.00  0.00     0.163 C 
BRANCH   7   8
HETATM    8  C   UNL     1      43.347 -15.429   5.827  1.00  0.00    -0.035 A 
HETATM    9  C   UNL     1      42.208 -14.628   5.719  1.00  0.00     0.028 A 
HETATM   10  C   UNL     1      41.167 -15.060   4.914  1.00  0.00     0.120 A 
HETATM   11  N   UNL     1      41.180 -16.222   4.225  1.00  0.00    -0.237 NA
HETATM   12  C   UNL     1      42.281 -16.983   4.342  1.00  0.00     0.165 A 
HETATM   13  C   UNL     1      43.384 -16.625   5.105  1.00  0.00     0.066 A 
BRANCH  12  14
HETATM   14  O   UNL     1      42.391 -18.167   3.650  1.00  0.00    -0.324 OA
BRANCH  14  15
HETATM   15  C   UNL     1      42.718 -18.139   2.248  1.00  0.00     0.058 C 
HETATM   16  C   UNL     1      43.945 -17.268   1.941  1.00  0.00     0.045 C 
HETATM   17  C   UNL     1      41.513 -17.777   1.367  1.00  0.00     0.045 C 
HETATM   18  C   UNL     1      43.100 -19.600   1.936  1.00  0.00     0.045 C 
ENDBRANCH  14  15
ENDBRANCH  12  14
ENDBRANCH   7   8
ENDBRANCH   1   7
BRANCH   3  19
HETATM   19  C   UNL     1      44.853 -11.457  10.052  1.00  0.00     0.100 A 
HETATM   20  C   UNL     1      44.077 -10.180  10.281  1.00  0.00     0.049 A 
HETATM   21  C   UNL     1      44.443 -11.079  11.454  1.00  0.00     0.024 A 
HETATM   22  C   UNL     1      42.580 -10.164  10.274  1.00  0.00    -0.045 A 
HETATM   23  C   UNL     1      43.176 -11.596  12.119  1.00  0.00     0.046 A 
HETATM   24  C   UNL     1      42.064 -10.965  11.312  1.00  0.00    -0.051 A 
HETATM   25  C   UNL     1      40.701 -11.121  11.503  1.00  0.00     0.007 A 
HETATM   26  C   UNL     1      39.833 -10.461  10.631  1.00  0.00     0.001 A 
HETATM   27  C   UNL     1      40.334  -9.663   9.592  1.00  0.00     0.001 A 
HETATM   28  C   UNL     1      41.712  -9.513   9.410  1.00  0.00     0.008 A 
ENDBRANCH   3  19
TORSDOF 5
ENDMDL
MODEL 3
REMARK VINA RESULT:      -8.1      2.683      3.780
REMARK  5 active torsions:
REMARK  status: ('A' for Active; 'I' for Inactive)
REMARK    1  A    between atoms: C_2  and  O_3 
REMARK    2  A    between atoms: O_3  and  C_4 
REMARK    3  A    between atoms: C_8  and  C_9 
REMARK    4  A    between atoms: C_9  and  N_10 
REMARK       I    between atoms: N_10  and  C_11 
REMARK       I    between atoms: C_11  and  N_12 
REMARK    5  A    between atoms: N_12  and  C_13 
ROOT
HETATM    1  N   UNL     1      39.877 -13.690   6.799  1.00  0.00    -0.339 N 
HETATM    2  C   UNL     1      39.461 -12.392   6.959  1.00  0.00     0.316 C 
HETATM    3  N   UNL     1      39.520 -12.003   8.274  1.00  0.00    -0.337 N 
HETATM    4  O   UNL     1      39.075 -11.677   6.044  1.00  0.00    -0.247 OA
HETATM    5  H   UNL     1      40.503 -14.053   7.501  1.00  0.00     0.164 HD
HETATM    6  H   UNL     1      39.624 -12.726   8.972  1.00  0.00     0.164 HD
ENDROOT
BRANCH   1   7
HETATM    7  C   UNL     1      39.932 -14.303   5.492  1.00  0.00     0.163 C 
BRANCH   7   8
HETATM    8  C   UNL     1      41.184 -15.117   5.317  1.00  0.00    -0.035 A 
HETATM    9  C   UNL     1      42.379 -14.733   5.930  1.00  0.00     0.028 A 
HETATM   10  C   UNL     1      43.505 -15.515   5.736  1.00  0.00     0.120 A 
HETATM   11  N   UNL     1      43.525 -16.634   4.979  1.00  0.00    -0.237 NA
HETATM   12  C   UNL     1      42.369 -16.988   4.393  1.00  0.00     0.165 A 
HETATM   13  C   UNL     1      41.183 -16.283   4.546  1.00  0.00     0.066 A 
BRANCH  12  14
HETATM   14  O   UNL     1      42.292 -18.130   3.630  1.00  0.00    -0.324 OA
BRANCH  14  15
HETATM   15  C   UNL     1      42.624 -18.069   2.230  1.00  0.00     0.058 C 
HETATM   16  C   UNL     1      43.812 -17.140   1.940  1.00  0.00     0.045 C 
HETATM   17  C   UNL     1      41.408 -17.750   1.347  1.00  0.00     0.045 C 
HETATM   18  C   UNL     1      43.073 -19.507   1.901  1.00  0.00     0.045 C 
ENDBRANCH  14  15
ENDBRANCH  12  14
ENDBRANCH   7   8
ENDBRANCH   1   7
BRANCH   3  19
HETATM   19  C   UNL     1      39.095 -10.710   8.723  1.00  0.00     0.100 A 
HETATM   20  C   UNL     1      39.667 -10.088   9.976  1.00  0.00     0.049 A 
HETATM   21  C   UNL     1      39.992  -9.503   8.609  1.00  0.00     0.024 A 
HETATM   22  C   UNL     1      40.992 -10.515  10.526  1.00  0.00    -0.045 A 
HETATM   23  C   UNL     1      41.488  -9.597   8.353  1.00  0.00     0.046 A 
HETATM   24  C   UNL     1      42.027 -10.240   9.611  1.00  0.00    -0.051 A 
HETATM   25  C   UNL     1      43.347 -10.558   9.887  1.00  0.00     0.007 A 
HETATM   26  C   UNL     1      43.637 -11.168  11.109  1.00  0.00     0.001 A 
HETATM   27  C   UNL     1      42.615 -11.449  12.028  1.00  0.00     0.001 A 
HETATM   28  C   UNL     1      41.287 -11.123  11.737  1.00  0.00     0.008 A 
ENDBRANCH   3  19
TORSDOF 5
ENDMDL
MODEL 4
REMARK VINA RESULT:      -8.0      4.493      7.163
REMARK  5 active torsions:
REMARK  status: ('A' for Active; 'I' for Inactive)
REMARK    1  A    between atoms: C_2  and  O_3 
REMARK    2  A    between atoms: O_3  and  C_4 
REMARK    3  A    between atoms: C_8  and  C_9 
REMARK    4  A    between atoms: C_9  and  N_10 
REMARK       I    between atoms: N_10  and  C_11 
REMARK       I    between atoms: C_11  and  N_12 
REMARK    5  A    between atoms: N_12  and  C_13 
ROOT
HETATM    1  N   UNL     1      43.188 -16.675   0.984  1.00  0.00    -0.339 N 
HETATM    2  C   UNL     1      41.823 -16.544   0.935  1.00  0.00     0.316 C 
HETATM    3  N   UNL     1      41.445 -15.225   0.899  1.00  0.00    -0.337 N 
HETATM    4  O   UNL     1      41.042 -17.487   0.935  1.00  0.00    -0.247 OA
HETATM    5  H   UNL     1      43.729 -15.910   0.613  1.00  0.00     0.164 HD
HETATM    6  H   UNL     1      42.140 -14.532   1.138  1.00  0.00     0.164 HD
ENDROOT
BRANCH   1   7
HETATM    7  C   UNL     1      43.815 -17.977   0.995  1.00  0.00     0.163 C 
BRANCH   7   8
HETATM    8  C   UNL     1      43.880 -18.546   2.386  1.00  0.00    -0.035 A 
HETATM    9  C   UNL     1      44.361 -19.838   2.609  1.00  0.00     0.028 A 
HETATM   10  C   UNL     1      44.398 -20.317   3.908  1.00  0.00     0.120 A 
HETATM   11  N   UNL     1      43.986 -19.610   4.984  1.00  0.00    -0.237 NA
HETATM   12  C   UNL     1      43.522 -18.371   4.752  1.00  0.00     0.165 A 
HETATM   13  C   UNL     1      43.468 -17.794   3.490  1.00  0.00     0.066 A 
BRANCH  12  14
HETATM   14  O   UNL     1      43.111 -17.571   5.793  1.00  0.00    -0.324 OA
BRANCH  14  15
HETATM   15  C   UNL     1      44.079 -17.107   6.753  1.00  0.00     0.058 C 
HETATM   16  C   UNL     1      44.283 -15.586   6.705  1.00  0.00     0.045 C 
HETATM   17  C   UNL     1      45.408 -17.874   6.670  1.00  0.00     0.045 C 
HETATM   18  C   UNL     1      43.433 -17.443   8.112  1.00  0.00     0.045 C 
ENDBRANCH  14  15
ENDBRANCH  12  14
ENDBRANCH   7   8
ENDBRANCH   1   7
BRANCH   3  19
HETATM   19  C   UNL     1      40.074 -14.809   0.893  1.00  0.00     0.100 A 
HETATM   20  C   UNL     1      39.333 -14.530   2.181  1.00  0.00     0.049 A 
HETATM   21  C   UNL     1      39.679 -13.393   1.230  1.00  0.00     0.024 A 
HETATM   22  C   UNL     1      40.062 -14.198   3.445  1.00  0.00    -0.045 A 
HETATM   23  C   UNL     1      40.610 -12.410   1.924  1.00  0.00     0.046 A 
HETATM   24  C   UNL     1      40.787 -12.998   3.305  1.00  0.00    -0.051 A 
HETATM   25  C   UNL     1      41.557 -12.488   4.339  1.00  0.00     0.007 A 
HETATM   26  C   UNL     1      41.601 -13.197   5.540  1.00  0.00     0.001 A 
HETATM   27  C   UNL     1      40.885 -14.394   5.691  1.00  0.00     0.001 A 
HETATM   28  C   UNL     1      40.112 -14.898   4.641  1.00  0.00     0.008 A 
ENDBRANCH   3  19
TORSDOF 5
ENDMDL
MODEL 5
REMARK VINA RESULT:      -8.0      4.062      6.356
REMARK  5 active torsions:
REMARK  status: ('A' for Active; 'I' for Inactive)
REMARK    1  A    between atoms: C_2  and  O_3 
REMARK    2  A    between atoms: O_3  and  C_4 
REMARK    3  A    between atoms: C_8  and  C_9 
REMARK    4  A    between atoms: C_9  and  N_10 
REMARK       I    between atoms: N_10  and  C_11 
REMARK       I    between atoms: C_11  and  N_12 
REMARK    5  A    between atoms: N_12  and  C_13 
ROOT
HETATM    1  N   UNL     1      42.963 -14.463   6.219  1.00  0.00    -0.339 N 
HETATM    2  C   UNL     1      43.111 -13.667   5.111  1.00  0.00     0.316 C 
HETATM    3  N   UNL     1      41.963 -12.968   4.837  1.00  0.00    -0.337 N 
HETATM    4  O   UNL     1      44.137 -13.601   4.446  1.00  0.00    -0.247 OA
HETATM    5  H   UNL     1      42.263 -14.181   6.887  1.00  0.00     0.164 HD
HETATM    6  H   UNL     1      41.113 -13.265   5.295  1.00  0.00     0.164 HD
ENDROOT
BRANCH   1   7
HETATM    7  C   UNL     1      44.057 -15.267   6.716  1.00  0.00     0.163 C 
BRANCH   7   8
HETATM    8  C   UNL     1      43.813 -16.732   6.482  1.00  0.00    -0.035 A 
HETATM    9  C   UNL     1      43.962 -17.657   7.519  1.00  0.00     0.028 A 
HETATM   10  C   UNL     1      43.729 -18.996   7.252  1.00  0.00     0.120 A 
HETATM   11  N   UNL     1      43.370 -19.471   6.040  1.00  0.00    -0.237 NA
HETATM   12  C   UNL     1      43.235 -18.570   5.052  1.00  0.00     0.165 A 
HETATM   13  C   UNL     1      43.424 -17.206   5.226  1.00  0.00     0.066 A 
BRANCH  12  14
HETATM   14  O   UNL     1      42.842 -18.965   3.794  1.00  0.00    -0.324 OA
BRANCH  14  15
HETATM   15  C   UNL     1      43.837 -19.381   2.840  1.00  0.00     0.058 C 
HETATM   16  C   UNL     1      44.976 -20.188   3.482  1.00  0.00     0.045 C 
HETATM   17  C   UNL     1      44.361 -18.217   1.986  1.00  0.00     0.045 C 
HETATM   18  C   UNL     1      43.067 -20.334   1.905  1.00  0.00     0.045 C 
ENDBRANCH  14  15
ENDBRANCH  12  14
ENDBRANCH   7   8
ENDBRANCH   1   7
BRANCH   3  19
HETATM   19  C   UNL     1      41.833 -12.100   3.704  1.00  0.00     0.100 A 
HETATM   20  C   UNL     1      41.764 -12.650   2.298  1.00  0.00     0.049 A 
HETATM   21  C   UNL     1      40.541 -12.002   2.931  1.00  0.00     0.024 A 
HETATM   22  C   UNL     1      41.345 -14.062   2.031  1.00  0.00    -0.045 A 
HETATM   23  C   UNL     1      39.421 -13.024   3.047  1.00  0.00     0.046 A 
HETATM   24  C   UNL     1      40.019 -14.280   2.454  1.00  0.00    -0.051 A 
HETATM   25  C   UNL     1      39.407 -15.517   2.325  1.00  0.00     0.007 A 
HETATM   26  C   UNL     1      40.143 -16.561   1.761  1.00  0.00     0.001 A 
HETATM   27  C   UNL     1      41.465 -16.357   1.339  1.00  0.00     0.001 A 
HETATM   28  C   UNL     1      42.071 -15.105   1.474  1.00  0.00     0.008 A 
ENDBRANCH   3  19
TORSDOF 5
ENDMDL
MODEL 6
REMARK VINA RESULT:      -7.9      2.808      4.662
REMARK  5 active torsions:
REMARK  status: ('A' for Active; 'I' for Inactive)
REMARK    1  A    between atoms: C_2  and  O_3 
REMARK    2  A    between atoms: O_3  and  C_4 
REMARK    3  A    between atoms: C_8  and  C_9 
REMARK    4  A    between atoms: C_9  and  N_10 
REMARK       I    between atoms: N_10  and  C_11 
REMARK       I    between atoms: C_11  and  N_12 
REMARK    5  A    between atoms: N_12  and  C_13 
ROOT
HETATM    1  N   UNL     1      39.501 -12.828   7.509  1.00  0.00    -0.339 N 
HETATM    2  C   UNL     1      39.324 -11.554   7.990  1.00  0.00     0.316 C 
HETATM    3  N   UNL     1      39.507 -11.499   9.349  1.00  0.00    -0.337 N 
HETATM    4  O   UNL     1      39.028 -10.593   7.292  1.00  0.00    -0.247 OA
HETATM    5  H   UNL     1      40.084 -13.440   8.058  1.00  0.00     0.164 HD
HETATM    6  H   UNL     1      39.514 -12.372   9.856  1.00  0.00     0.164 HD
ENDROOT
BRANCH   1   7
HETATM    7  C   UNL     1      39.390 -13.118   6.098  1.00  0.00     0.163 C 
BRANCH   7   8
HETATM    8  C   UNL     1      40.707 -13.562   5.523  1.00  0.00    -0.035 A 
HETATM    9  C   UNL     1      41.436 -12.724   4.676  1.00  0.00     0.028 A 
HETATM   10  C   UNL     1      42.643 -13.180   4.170  1.00  0.00     0.120 A 
HETATM   11  N   UNL     1      43.160 -14.398   4.438  1.00  0.00    -0.237 NA
HETATM   12  C   UNL     1      42.444 -15.194   5.251  1.00  0.00     0.165 A 
HETATM   13  C   UNL     1      41.238 -14.818   5.826  1.00  0.00     0.066 A 
BRANCH  12  14
HETATM   14  O   UNL     1      42.913 -16.439   5.602  1.00  0.00    -0.324 OA
BRANCH  14  15
HETATM   15  C   UNL     1      43.751 -16.578   6.764  1.00  0.00     0.058 C 
HETATM   16  C   UNL     1      43.038 -17.274   7.932  1.00  0.00     0.045 C 
HETATM   17  C   UNL     1      44.400 -15.251   7.186  1.00  0.00     0.045 C 
HETATM   18  C   UNL     1      44.878 -17.516   6.288  1.00  0.00     0.045 C 
ENDBRANCH  14  15
ENDBRANCH  12  14
ENDBRANCH   7   8
ENDBRANCH   1   7
BRANCH   3  19
HETATM   19  C   UNL     1      39.333 -10.297  10.109  1.00  0.00     0.100 A 
HETATM   20  C   UNL     1      40.248  -9.960  11.264  1.00  0.00     0.049 A 
HETATM   21  C   UNL     1      40.292  -9.139   9.982  1.00  0.00     0.024 A 
HETATM   22  C   UNL     1      41.618 -10.555  11.375  1.00  0.00    -0.045 A 
HETATM   23  C   UNL     1      41.666  -9.261   9.341  1.00  0.00     0.046 A 
HETATM   24  C   UNL     1      42.424 -10.163  10.289  1.00  0.00    -0.051 A 
HETATM   25  C   UNL     1      43.734 -10.598  10.160  1.00  0.00     0.007 A 
HETATM   26  C   UNL     1      44.246 -11.448  11.143  1.00  0.00     0.001 A 
HETATM   27  C   UNL     1      43.452 -11.847  12.228  1.00  0.00     0.001 A 
HETATM   28  C   UNL     1      42.132 -11.401  12.346  1.00  0.00     0.008 A 
ENDBRANCH   3  19
TORSDOF 5
ENDMDL
MODEL 7
REMARK VINA RESULT:      -7.9      6.289      9.714
REMARK  5 active torsions:
REMARK  status: ('A' for Active; 'I' for Inactive)
REMARK    1  A    between atoms: C_2  and  O_3 
REMARK    2  A    between atoms: O_3  and  C_4 
REMARK    3  A    between atoms: C_8  and  C_9 
REMARK    4  A    between atoms: C_9  and  N_10 
REMARK       I    between atoms: N_10  and  C_11 
REMARK       I    between atoms: C_11  and  N_12 
REMARK    5  A    between atoms: N_12  and  C_13 
ROOT
HETATM    1  N   UNL     1      38.723 -14.980   1.445  1.00  0.00    -0.339 N 
HETATM    2  C   UNL     1      39.429 -14.535   2.534  1.00  0.00     0.316 C 
HETATM    3  N   UNL     1      40.104 -15.559   3.149  1.00  0.00    -0.337 N 
HETATM    4  O   UNL     1      39.445 -13.371   2.913  1.00  0.00    -0.247 OA
HETATM    5  H   UNL     1      39.056 -15.824   1.006  1.00  0.00     0.164 HD
HETATM    6  H   UNL     1      39.843 -16.504   2.907  1.00  0.00     0.164 HD
ENDROOT
BRANCH   1   7
HETATM    7  C   UNL     1      37.962 -14.069   0.622  1.00  0.00     0.163 C 
BRANCH   7   8
HETATM    8  C   UNL     1      38.633 -13.831  -0.703  1.00  0.00    -0.035 A 
HETATM    9  C   UNL     1      37.977 -14.124  -1.900  1.00  0.00     0.028 A 
HETATM   10  C   UNL     1      38.639 -13.890  -3.094  1.00  0.00     0.120 A 
HETATM   11  N   UNL     1      39.895 -13.400  -3.176  1.00  0.00    -0.237 NA
HETATM   12  C   UNL     1      40.515 -13.128  -2.014  1.00  0.00     0.165 A 
HETATM   13  C   UNL     1      39.926 -13.305  -0.770  1.00  0.00     0.066 A 
BRANCH  12  14
HETATM   14  O   UNL     1      41.784 -12.596  -2.006  1.00  0.00    -0.324 OA
BRANCH  14  15
HETATM   15  C   UNL     1      41.981 -11.230  -2.416  1.00  0.00     0.058 C 
HETATM   16  C   UNL     1      40.791 -10.325  -2.065  1.00  0.00     0.045 C 
HETATM   17  C   UNL     1      42.386 -11.109  -3.893  1.00  0.00     0.045 C 
HETATM   18  C   UNL     1      43.180 -10.765  -1.566  1.00  0.00     0.045 C 
ENDBRANCH  14  15
ENDBRANCH  12  14
ENDBRANCH   7   8
ENDBRANCH   1   7
BRANCH   3  19
HETATM   19  C   UNL     1      40.881 -15.374   4.340  1.00  0.00     0.100 A 
HETATM   20  C   UNL     1      41.988 -16.334   4.711  1.00  0.00     0.049 A 
HETATM   21  C   UNL     1      42.315 -14.911   4.281  1.00  0.00     0.024 A 
HETATM   22  C   UNL     1      42.650 -17.199   3.683  1.00  0.00    -0.045 A 
HETATM   23  C   UNL     1      43.148 -14.939   3.008  1.00  0.00     0.046 A 
HETATM   24  C   UNL     1      43.308 -16.413   2.716  1.00  0.00    -0.051 A 
HETATM   25  C   UNL     1      43.985 -16.986   1.651  1.00  0.00     0.007 A 
HETATM   26  C   UNL     1      44.000 -18.378   1.552  1.00  0.00     0.001 A 
HETATM   27  C   UNL     1      43.347 -19.171   2.507  1.00  0.00     0.001 A 
HETATM   28  C   UNL     1      42.668 -18.581   3.577  1.00  0.00     0.008 A 
ENDBRANCH   3  19
TORSDOF 5
ENDMDL
MODEL 8
REMARK VINA RESULT:      -7.6      4.851      9.059
REMARK  5 active torsions:
REMARK  status: ('A' for Active; 'I' for Inactive)
REMARK    1  A    between atoms: C_2  and  O_3 
REMARK    2  A    between atoms: O_3  and  C_4 
REMARK    3  A    between atoms: C_8  and  C_9 
REMARK    4  A    between atoms: C_9  and  N_10 
REMARK       I    between atoms: N_10  and  C_11 
REMARK       I    between atoms: C_11  and  N_12 
REMARK    5  A    between atoms: N_12  and  C_13 
ROOT
HETATM    1  N   UNL     1      43.207 -16.929   0.996  1.00  0.00    -0.339 N 
HETATM    2  C   UNL     1      41.900 -16.515   1.051  1.00  0.00     0.316 C 
HETATM    3  N   UNL     1      41.801 -15.149   0.970  1.00  0.00    -0.337 N 
HETATM    4  O   UNL     1      40.945 -17.272   1.169  1.00  0.00    -0.247 OA
HETATM    5  H   UNL     1      43.858 -16.309   0.538  1.00  0.00     0.164 HD
HETATM    6  H   UNL     1      42.642 -14.609   1.111  1.00  0.00     0.164 HD
ENDROOT
BRANCH   1   7
HETATM    7  C   UNL     1      43.551 -18.332   1.031  1.00  0.00     0.163 C 
BRANCH   7   8
HETATM    8  C   UNL     1      43.915 -18.775   2.421  1.00  0.00    -0.035 A 
HETATM    9  C   UNL     1      44.244 -20.107   2.684  1.00  0.00     0.028 A 
HETATM   10  C   UNL     1      44.569 -20.466   3.982  1.00  0.00     0.120 A 
HETATM   11  N   UNL     1      44.581 -19.604   5.022  1.00  0.00    -0.237 NA
HETATM   12  C   UNL     1      44.257 -18.327   4.753  1.00  0.00     0.165 A 
HETATM   13  C   UNL     1      43.941 -17.867   3.482  1.00  0.00     0.066 A 
BRANCH  12  14
HETATM   14  O   UNL     1      44.275 -17.377   5.748  1.00  0.00    -0.324 OA
BRANCH  14  15
HETATM   15  C   UNL     1      43.044 -17.015   6.402  1.00  0.00     0.058 C 
HETATM   16  C   UNL     1      43.057 -17.325   7.906  1.00  0.00     0.045 C 
HETATM   17  C   UNL     1      41.808 -17.597   5.700  1.00  0.00     0.045 C 
HETATM   18  C   UNL     1      42.988 -15.482   6.248  1.00  0.00     0.045 C 
ENDBRANCH  14  15
ENDBRANCH  12  14
ENDBRANCH   7   8
ENDBRANCH   1   7
BRANCH   3  19
HETATM   19  C   UNL     1      40.550 -14.454   1.051  1.00  0.00     0.100 A 
HETATM   20  C   UNL     1      40.371 -13.085   0.434  1.00  0.00     0.049 A 
HETATM   21  C   UNL     1      39.657 -14.294  -0.154  1.00  0.00     0.024 A 
HETATM   22  C   UNL     1      41.262 -12.603  -0.668  1.00  0.00    -0.045 A 
HETATM   23  C   UNL     1      40.132 -14.527  -1.580  1.00  0.00     0.046 A 
HETATM   24  C   UNL     1      41.131 -13.416  -1.811  1.00  0.00    -0.051 A 
HETATM   25  C   UNL     1      41.866 -13.179  -2.962  1.00  0.00     0.007 A 
HETATM   26  C   UNL     1      42.754 -12.103  -2.967  1.00  0.00     0.001 A 
HETATM   27  C   UNL     1      42.896 -11.287  -1.834  1.00  0.00     0.001 A 
HETATM   28  C   UNL     1      42.149 -11.537  -0.679  1.00  0.00     0.008 A 
ENDBRANCH   3  19
TORSDOF 5
ENDMDL
MODEL 9
REMARK VINA RESULT:      -7.5      6.416      9.748
REMARK  5 active torsions:
REMARK  status: ('A' for Active; 'I' for Inactive)
REMARK    1  A    between atoms: C_2  and  O_3 
REMARK    2  A    between atoms: O_3  and  C_4 
REMARK    3  A    between atoms: C_8  and  C_9 
REMARK    4  A    between atoms: C_9  and  N_10 
REMARK       I    between atoms: N_10  and  C_11 
REMARK       I    between atoms: C_11  and  N_12 
REMARK    5  A    between atoms: N_12  and  C_13 
ROOT
HETATM    1  N   UNL     1      39.912 -15.382   0.623  1.00  0.00    -0.339 N 
HETATM    2  C   UNL     1      41.283 -15.440   0.639  1.00  0.00     0.316 C 
HETATM    3  N   UNL     1      41.731 -16.736   0.705  1.00  0.00    -0.337 N 
HETATM    4  O   UNL     1      42.013 -14.458   0.610  1.00  0.00    -0.247 OA
HETATM    5  H   UNL     1      39.430 -16.198   0.279  1.00  0.00     0.164 HD
HETATM    6  H   UNL     1      41.063 -17.450   0.959  1.00  0.00     0.164 HD
ENDROOT
BRANCH   1   7
HETATM    7  C   UNL     1      39.218 -14.118   0.523  1.00  0.00     0.163 C 
BRANCH   7   8
HETATM    8  C   UNL     1      39.249 -13.583  -0.882  1.00  0.00    -0.035 A 
HETATM    9  C   UNL     1      38.495 -14.182  -1.893  1.00  0.00     0.028 A 
HETATM   10  C   UNL     1      38.560 -13.652  -3.172  1.00  0.00     0.120 A 
HETATM   11  N   UNL     1      39.321 -12.588  -3.509  1.00  0.00    -0.237 NA
HETATM   12  C   UNL     1      40.044 -12.026  -2.526  1.00  0.00     0.165 A 
HETATM   13  C   UNL     1      40.027 -12.468  -1.210  1.00  0.00     0.066 A 
BRANCH  12  14
HETATM   14  O   UNL     1      40.822 -10.919  -2.775  1.00  0.00    -0.324 OA
BRANCH  14  15
HETATM   15  C   UNL     1      42.221 -11.089  -3.070  1.00  0.00     0.058 C 
HETATM   16  C   UNL     1      42.686 -12.546  -2.928  1.00  0.00     0.045 C 
HETATM   17  C   UNL     1      43.113 -10.115  -2.285  1.00  0.00     0.045 C 
HETATM   18  C   UNL     1      42.325 -10.715  -4.562  1.00  0.00     0.045 C 
ENDBRANCH  14  15
ENDBRANCH  12  14
ENDBRANCH   7   8
ENDBRANCH   1   7
BRANCH   3  19
HETATM   19  C   UNL     1      43.120 -17.076   0.783  1.00  0.00     0.100 A 
HETATM   20  C   UNL     1      43.909 -16.868   2.056  1.00  0.00     0.049 A 
HETATM   21  C   UNL     1      43.595 -18.275   1.566  1.00  0.00     0.024 A 
HETATM   22  C   UNL     1      43.231 -16.775   3.388  1.00  0.00    -0.045 A 
HETATM   23  C   UNL     1      42.734 -18.995   2.592  1.00  0.00     0.046 A 
HETATM   24  C   UNL     1      42.564 -17.977   3.696  1.00  0.00    -0.051 A 
HETATM   25  C   UNL     1      41.849 -18.132   4.873  1.00  0.00     0.007 A 
HETATM   26  C   UNL     1      41.800 -17.056   5.762  1.00  0.00     0.001 A 
HETATM   27  C   UNL     1      42.459 -15.854   5.465  1.00  0.00     0.001 A 
HETATM   28  C   UNL     1      43.177 -15.710   4.275  1.00  0.00     0.008 A 
ENDBRANCH   3  19
TORSDOF 5
ENDMDL
MODEL 10
REMARK VINA RESULT:      -7.5      4.951      8.993
REMARK  5 active torsions:
REMARK  status: ('A' for Active; 'I' for Inactive)
REMARK    1  A    between atoms: C_2  and  O_3 
REMARK    2  A    between atoms: O_3  and  C_4 
REMARK    3  A    between atoms: C_8  and  C_9 
REMARK    4  A    between atoms: C_9  and  N_10 
REMARK       I    between atoms: N_10  and  C_11 
REMARK       I    between atoms: C_11  and  N_12 
REMARK    5  A    between atoms: N_12  and  C_13 
ROOT
HETATM    1  N   UNL     1      39.841 -15.229   0.542  1.00  0.00    -0.339 N 
HETATM    2  C   UNL     1      41.183 -15.391   0.302  1.00  0.00     0.316 C 
HETATM    3  N   UNL     1      41.650 -16.568   0.831  1.00  0.00    -0.337 N 
HETATM    4  O   UNL     1      41.876 -14.580  -0.298  1.00  0.00    -0.247 OA
HETATM    5  H   UNL     1      39.305 -16.069   0.693  1.00  0.00     0.164 HD
HETATM    6  H   UNL     1      41.064 -17.046   1.501  1.00  0.00     0.164 HD
ENDROOT
BRANCH   1   7
HETATM    7  C   UNL     1      39.126 -14.075   0.047  1.00  0.00     0.163 C 
BRANCH   7   8
HETATM    8  C   UNL     1      39.260 -12.902   0.980  1.00  0.00    -0.035 A 
HETATM    9  C   UNL     1      39.619 -11.642   0.497  1.00  0.00     0.028 A 
HETATM   10  C   UNL     1      39.731 -10.595   1.397  1.00  0.00     0.120 A 
HETATM   11  N   UNL     1      39.521 -10.717   2.726  1.00  0.00    -0.237 NA
HETATM   12  C   UNL     1      39.181 -11.938   3.175  1.00  0.00     0.165 A 
HETATM   13  C   UNL     1      39.020 -13.042   2.349  1.00  0.00     0.066 A 
BRANCH  12  14
HETATM   14  O   UNL     1      38.919 -12.144   4.510  1.00  0.00    -0.324 OA
BRANCH  14  15
HETATM   15  C   UNL     1      39.917 -12.769   5.338  1.00  0.00     0.058 C 
HETATM   16  C   UNL     1      41.347 -12.347   4.968  1.00  0.00     0.045 C 
HETATM   17  C   UNL     1      39.760 -14.296   5.403  1.00  0.00     0.045 C 
HETATM   18  C   UNL     1      39.622 -12.211   6.745  1.00  0.00     0.045 C 
ENDBRANCH  14  15
ENDBRANCH  12  14
ENDBRANCH   7   8
ENDBRANCH   1   7
BRANCH   3  19
HETATM   19  C   UNL     1      43.027 -16.958   0.765  1.00  0.00     0.100 A 
HETATM   20  C   UNL     1      43.930 -16.859   1.973  1.00  0.00     0.049 A 
HETATM   21  C   UNL     1      43.521 -18.220   1.427  1.00  0.00     0.024 A 
HETATM   22  C   UNL     1      43.375 -16.830   3.363  1.00  0.00    -0.045 A 
HETATM   23  C   UNL     1      42.725 -18.976   2.479  1.00  0.00     0.046 A 
HETATM   24  C   UNL     1      42.691 -18.026   3.655  1.00  0.00    -0.051 A 
HETATM   25  C   UNL     1      42.076 -18.233   4.879  1.00  0.00     0.007 A 
HETATM   26  C   UNL     1      42.146 -17.216   5.833  1.00  0.00     0.001 A 
HETATM   27  C   UNL     1      42.823 -16.019   5.553  1.00  0.00     0.001 A 
HETATM   28  C   UNL     1      43.439 -15.823   4.314  1.00  0.00     0.008 A 
ENDBRANCH   3  19
TORSDOF 5
ENDMDL
