MODEL 1
REMARK VINA RESULT:     -10.2      0.000      0.000
REMARK  6 active torsions:
REMARK  status: ('A' for Active; 'I' for Inactive)
REMARK    1  A    between atoms: C_4  and  C_5 
REMARK    2  A    between atoms: C_6  and  N_7 
REMARK    3  A    between atoms: C_9  and  C_10 
REMARK       I    between atoms: C_10  and  N_11 
REMARK    4  A    between atoms: N_11  and  C_12 
REMARK    5  A    between atoms: C_12  and  C_13 
REMARK    6  A    between atoms: C_13  and  N_14 
ROOT
HETATM    1  C   UNL     1      43.327 -18.029   3.778  1.00  0.00     0.019 A 
HETATM    2  C   UNL     1      42.872 -17.206   2.793  1.00  0.00     0.111 A 
HETATM    3  C   UNL     1      42.797 -17.748   1.363  1.00  0.00     0.273 A 
HETATM    4  O   UNL     1      42.351 -17.086   0.425  1.00  0.00    -0.266 OA
HETATM    5  N   UNL     1      43.248 -19.013   1.133  1.00  0.00    -0.321 N 
HETATM    6  C   UNL     1      43.740 -19.855   2.122  1.00  0.00     0.046 A 
HETATM    7  C   UNL     1      43.782 -19.409   3.447  1.00  0.00     0.006 A 
HETATM    8  C   UNL     1      44.176 -21.135   1.769  1.00  0.00     0.032 A 
HETATM    9  C   UNL     1      44.665 -21.995   2.751  1.00  0.00     0.026 A 
HETATM   10  C   UNL     1      44.705 -21.570   4.076  1.00  0.00     0.035 A 
HETATM   11 CL   UNL     1      45.305 -22.630   5.292  1.00  0.00    -0.084 Cl
HETATM   12  C   UNL     1      44.266 -20.292   4.426  1.00  0.00     0.038 A 
HETATM   13  H   UNL     1      43.200 -19.325   0.172  1.00  0.00     0.169 HD
ENDROOT
BRANCH   2  14
HETATM   14  N   UNL     1      42.480 -15.854   3.004  1.00  0.00    -0.375 N 
HETATM   15  C   UNL     1      41.198 -15.363   2.467  1.00  0.00     0.137 C 
HETATM   16  C   UNL     1      40.725 -14.145   3.267  1.00  0.00     0.096 C 
HETATM   17  C   UNL     1      41.799 -13.050   3.266  1.00  0.00     0.017 C 
HETATM   18  C   UNL     1      43.140 -13.606   3.737  1.00  0.00     0.021 C 
HETATM   19  C   UNL     1      43.543 -14.828   2.916  1.00  0.00     0.123 C 
BRANCH  16  20
HETATM   20  C   UNL     1      39.431 -13.649   2.642  1.00  0.00     0.223 C 
HETATM   21  N   UNL     1      38.875 -14.496   1.711  1.00  0.00    -0.359 N 
HETATM   22  H   UNL     1      39.416 -15.324   1.468  1.00  0.00     0.162 HD
HETATM   23  O   UNL     1      38.919 -12.562   2.908  1.00  0.00    -0.273 OA
BRANCH  21  24
HETATM   24  C   UNL     1      37.806 -14.127   0.786  1.00  0.00     0.150 C 
BRANCH  24  25
HETATM   25  C   UNL     1      38.234 -13.495  -0.558  1.00  0.00     0.254 C 
BRANCH  25  26
HETATM   26  N   UNL     1      38.749 -14.506  -1.553  1.00  0.00    -0.066 N 
HETATM   27  H   UNL     1      38.497 -15.439  -1.162  1.00  0.00     0.280 HD
HETATM   28  C   UNL     1      38.106 -14.439  -2.928  1.00  0.00     0.261 C 
HETATM   29  C   UNL     1      38.667 -15.557  -3.814  1.00  0.00     0.195 C 
HETATM   30  O   UNL     1      40.093 -15.464  -3.912  1.00  0.00    -0.388 OA
HETATM   31  C   UNL     1      40.712 -15.611  -2.628  1.00  0.00     0.195 C 
HETATM   32  C   UNL     1      40.263 -14.500  -1.673  1.00  0.00     0.261 C 
ENDBRANCH  25  26
ENDBRANCH  24  25
ENDBRANCH  21  24
ENDBRANCH  16  20
ENDBRANCH   2  14
BRANCH   1  33
HETATM   33  C   UNL     1      43.327 -17.509   5.173  1.00  0.00    -0.023 A 
HETATM   34  C   UNL     1      42.165 -17.586   5.953  1.00  0.00     0.012 A 
HETATM   35  C   UNL     1      42.171 -17.132   7.273  1.00  0.00     0.001 A 
HETATM   36  C   UNL     1      43.336 -16.599   7.822  1.00  0.00     0.000 A 
HETATM   37  C   UNL     1      44.497 -16.520   7.055  1.00  0.00     0.001 A 
HETATM   38  C   UNL     1      44.496 -16.977   5.735  1.00  0.00     0.012 A 
ENDBRANCH   1  33
TORSDOF 6
ENDMDL
MODEL 2
REMARK VINA RESULT:      -9.4      4.504      8.070
REMARK  6 active torsions:
REMARK  status: ('A' for Active; 'I' for Inactive)
REMARK    1  A    between atoms: C_4  and  C_5 
REMARK    2  A    between atoms: C_6  and  N_7 
REMARK    3  A    between atoms: C_9  and  C_10 
REMARK       I    between atoms: C_10  and  N_11 
REMARK    4  A    between atoms: N_11  and  C_12 
REMARK    5  A    between atoms: C_12  and  C_13 
REMARK    6  A    between atoms: C_13  and  N_14 
ROOT
HETATM    1  C   UNL     1      43.531 -18.251   4.109  1.00  0.00     0.019 A 
HETATM    2  C   UNL     1      43.674 -17.704   5.348  1.00  0.00     0.111 A 
HETATM    3  C   UNL     1      44.302 -18.554   6.455  1.00  0.00     0.273 A 
HETATM    4  O   UNL     1      44.512 -18.119   7.587  1.00  0.00    -0.266 OA
HETATM    5  N   UNL     1      44.636 -19.843   6.162  1.00  0.00    -0.321 N 
HETATM    6  C   UNL     1      44.471 -20.423   4.910  1.00  0.00     0.046 A 
HETATM    7  C   UNL     1      43.940 -19.662   3.863  1.00  0.00     0.006 A 
HETATM    8  C   UNL     1      44.848 -21.756   4.725  1.00  0.00     0.032 A 
HETATM    9  C   UNL     1      44.698 -22.350   3.474  1.00  0.00     0.026 A 
HETATM   10  C   UNL     1      44.180 -21.604   2.419  1.00  0.00     0.035 A 
HETATM   11 CL   UNL     1      43.995 -22.333   0.871  1.00  0.00    -0.084 Cl
HETATM   12  C   UNL     1      43.807 -20.272   2.605  1.00  0.00     0.038 A 
HETATM   13  H   UNL     1      45.029 -20.376   6.926  1.00  0.00     0.169 HD
ENDROOT
BRANCH   2  14
HETATM   14  N   UNL     1      43.250 -16.389   5.690  1.00  0.00    -0.375 N 
HETATM   15  C   UNL     1      44.056 -15.569   6.613  1.00  0.00     0.137 C 
HETATM   16  C   UNL     1      43.765 -14.082   6.387  1.00  0.00     0.096 C 
HETATM   17  C   UNL     1      42.265 -13.798   6.536  1.00  0.00     0.017 C 
HETATM   18  C   UNL     1      41.446 -14.724   5.640  1.00  0.00     0.021 C 
HETATM   19  C   UNL     1      41.799 -16.186   5.899  1.00  0.00     0.123 C 
BRANCH  16  20
HETATM   20  C   UNL     1      44.580 -13.287   7.394  1.00  0.00     0.223 C 
HETATM   21  N   UNL     1      43.841 -12.651   8.364  1.00  0.00    -0.359 N 
HETATM   22  H   UNL     1      42.828 -12.700   8.271  1.00  0.00     0.162 HD
HETATM   23  O   UNL     1      45.804 -13.179   7.346  1.00  0.00    -0.273 OA
BRANCH  21  24
HETATM   24  C   UNL     1      44.358 -11.620   9.260  1.00  0.00     0.150 C 
BRANCH  24  25
HETATM   25  C   UNL     1      44.067 -11.795  10.769  1.00  0.00     0.254 C 
BRANCH  25  26
HETATM   26  N   UNL     1      42.599 -11.694  11.105  1.00  0.00    -0.066 N 
HETATM   27  H   UNL     1      42.193 -12.627  10.877  1.00  0.00     0.280 HD
HETATM   28  C   UNL     1      42.291 -11.451  12.573  1.00  0.00     0.261 C 
HETATM   29  C   UNL     1      40.774 -11.438  12.787  1.00  0.00     0.195 C 
HETATM   30  O   UNL     1      40.150 -10.445  11.963  1.00  0.00    -0.388 OA
HETATM   31  C   UNL     1      40.365 -10.716  10.572  1.00  0.00     0.195 C 
HETATM   32  C   UNL     1      41.860 -10.693  10.234  1.00  0.00     0.261 C 
ENDBRANCH  25  26
ENDBRANCH  24  25
ENDBRANCH  21  24
ENDBRANCH  16  20
ENDBRANCH   2  14
BRANCH   1  33
HETATM   33  C   UNL     1      42.983 -17.386   3.027  1.00  0.00    -0.023 A 
HETATM   34  C   UNL     1      43.822 -16.492   2.347  1.00  0.00     0.012 A 
HETATM   35  C   UNL     1      43.319 -15.706   1.308  1.00  0.00     0.001 A 
HETATM   36  C   UNL     1      41.978 -15.807   0.943  1.00  0.00     0.000 A 
HETATM   37  C   UNL     1      41.137 -16.695   1.612  1.00  0.00     0.001 A 
HETATM   38  C   UNL     1      41.637 -17.486   2.648  1.00  0.00     0.012 A 
ENDBRANCH   1  33
TORSDOF 6
ENDMDL
MODEL 3
REMARK VINA RESULT:      -8.6      4.646      8.739
REMARK  6 active torsions:
REMARK  status: ('A' for Active; 'I' for Inactive)
REMARK    1  A    between atoms: C_4  and  C_5 
REMARK    2  A    between atoms: C_6  and  N_7 
REMARK    3  A    between atoms: C_9  and  C_10 
REMARK       I    between atoms: C_10  and  N_11 
REMARK    4  A    between atoms: N_11  and  C_12 
REMARK    5  A    between atoms: C_12  and  C_13 
REMARK    6  A    between atoms: C_13  and  N_14 
ROOT
HETATM    1  C   UNL     1      41.511 -14.917   2.649  1.00  0.00     0.019 A 
HETATM    2  C   UNL     1      42.480 -15.793   3.033  1.00  0.00     0.111 A 
HETATM    3  C   UNL     1      43.145 -16.663   1.963  1.00  0.00     0.273 A 
HETATM    4  O   UNL     1      44.063 -17.444   2.219  1.00  0.00    -0.266 OA
HETATM    5  N   UNL     1      42.693 -16.561   0.682  1.00  0.00    -0.321 N 
HETATM    6  C   UNL     1      41.687 -15.691   0.280  1.00  0.00     0.046 A 
HETATM    7  C   UNL     1      41.086 -14.850   1.223  1.00  0.00     0.006 A 
HETATM    8  C   UNL     1      41.302 -15.672  -1.064  1.00  0.00     0.032 A 
HETATM    9  C   UNL     1      40.301 -14.800  -1.485  1.00  0.00     0.026 A 
HETATM   10  C   UNL     1      39.699 -13.950  -0.561  1.00  0.00     0.035 A 
HETATM   11 CL   UNL     1      38.464 -12.868  -1.077  1.00  0.00    -0.084 Cl
HETATM   12  C   UNL     1      40.087 -13.968   0.781  1.00  0.00     0.038 A 
HETATM   13  H   UNL     1      43.145 -17.167   0.010  1.00  0.00     0.169 HD
ENDROOT
BRANCH   2  14
HETATM   14  N   UNL     1      42.902 -15.973   4.381  1.00  0.00    -0.375 N 
HETATM   15  C   UNL     1      43.793 -14.985   5.015  1.00  0.00     0.137 C 
HETATM   16  C   UNL     1      43.644 -15.043   6.539  1.00  0.00     0.096 C 
HETATM   17  C   UNL     1      43.914 -16.464   7.052  1.00  0.00     0.017 C 
HETATM   18  C   UNL     1      43.046 -17.480   6.314  1.00  0.00     0.021 C 
HETATM   19  C   UNL     1      43.223 -17.354   4.803  1.00  0.00     0.123 C 
BRANCH  16  20
HETATM   20  C   UNL     1      44.618 -14.045   7.143  1.00  0.00     0.223 C 
HETATM   21  N   UNL     1      44.221 -13.500   8.342  1.00  0.00    -0.359 N 
HETATM   22  H   UNL     1      43.289 -13.747   8.668  1.00  0.00     0.162 HD
HETATM   23  O   UNL     1      45.671 -13.708   6.602  1.00  0.00    -0.273 OA
BRANCH  21  24
HETATM   24  C   UNL     1      44.837 -12.334   8.969  1.00  0.00     0.150 C 
BRANCH  24  25
HETATM   25  C   UNL     1      44.624 -12.165  10.492  1.00  0.00     0.254 C 
BRANCH  25  26
HETATM   26  N   UNL     1      43.191 -11.867  10.861  1.00  0.00    -0.066 N 
HETATM   27  H   UNL     1      42.656 -12.734  10.640  1.00  0.00     0.280 HD
HETATM   28  C   UNL     1      42.952 -11.591  12.336  1.00  0.00     0.261 C 
HETATM   29  C   UNL     1      41.455 -11.371  12.583  1.00  0.00     0.195 C 
HETATM   30  O   UNL     1      40.955 -10.300  11.775  1.00  0.00    -0.388 OA
HETATM   31  C   UNL     1      41.100 -10.591  10.379  1.00  0.00     0.195 C 
HETATM   32  C   UNL     1      42.577 -10.770  10.008  1.00  0.00     0.261 C 
ENDBRANCH  25  26
ENDBRANCH  24  25
ENDBRANCH  21  24
ENDBRANCH  16  20
ENDBRANCH   2  14
BRANCH   1  33
HETATM   33  C   UNL     1      40.925 -14.030   3.692  1.00  0.00    -0.023 A 
HETATM   34  C   UNL     1      39.998 -14.540   4.612  1.00  0.00     0.012 A 
HETATM   35  C   UNL     1      39.475 -13.720   5.613  1.00  0.00     0.001 A 
HETATM   36  C   UNL     1      39.873 -12.388   5.703  1.00  0.00     0.000 A 
HETATM   37  C   UNL     1      40.796 -11.871   4.794  1.00  0.00     0.001 A 
HETATM   38  C   UNL     1      41.325 -12.690   3.794  1.00  0.00     0.012 A 
ENDBRANCH   1  33
TORSDOF 6
ENDMDL
MODEL 4
REMARK VINA RESULT:      -8.5      4.137      7.070
REMARK  6 active torsions:
REMARK  status: ('A' for Active; 'I' for Inactive)
REMARK    1  A    between atoms: C_4  and  C_5 
REMARK    2  A    between atoms: C_6  and  N_7 
REMARK    3  A    between atoms: C_9  and  C_10 
REMARK       I    between atoms: C_10  and  N_11 
REMARK    4  A    between atoms: N_11  and  C_12 
REMARK    5  A    between atoms: C_12  and  C_13 
REMARK    6  A    between atoms: C_13  and  N_14 
ROOT
HETATM    1  C   UNL     1      42.664 -16.330   3.829  1.00  0.00     0.019 A 
HETATM    2  C   UNL     1      41.733 -15.610   3.143  1.00  0.00     0.111 A 
HETATM    3  C   UNL     1      41.054 -16.256   1.933  1.00  0.00     0.273 A 
HETATM    4  O   UNL     1      40.168 -15.693   1.290  1.00  0.00    -0.266 OA
HETATM    5  N   UNL     1      41.458 -17.504   1.562  1.00  0.00    -0.321 N 
HETATM    6  C   UNL     1      42.425 -18.240   2.236  1.00  0.00     0.046 A 
HETATM    7  C   UNL     1      43.035 -17.698   3.372  1.00  0.00     0.006 A 
HETATM    8  C   UNL     1      42.761 -19.512   1.763  1.00  0.00     0.032 A 
HETATM    9  C   UNL     1      43.723 -20.266   2.432  1.00  0.00     0.026 A 
HETATM   10  C   UNL     1      44.333 -19.746   3.570  1.00  0.00     0.035 A 
HETATM   11 CL   UNL     1      45.519 -20.676   4.401  1.00  0.00    -0.084 Cl
HETATM   12  C   UNL     1      43.994 -18.476   4.042  1.00  0.00     0.038 A 
HETATM   13  H   UNL     1      40.999 -17.886   0.746  1.00  0.00     0.169 HD
ENDROOT
BRANCH   2  14
HETATM   14  N   UNL     1      41.365 -14.273   3.467  1.00  0.00    -0.375 N 
HETATM   15  C   UNL     1      40.391 -14.015   4.543  1.00  0.00     0.137 C 
HETATM   16  C   UNL     1      40.581 -12.598   5.096  1.00  0.00     0.096 C 
HETATM   17  C   UNL     1      40.473 -11.563   3.970  1.00  0.00     0.017 C 
HETATM   18  C   UNL     1      41.423 -11.905   2.825  1.00  0.00     0.021 C 
HETATM   19  C   UNL     1      41.198 -13.333   2.337  1.00  0.00     0.123 C 
BRANCH  16  20
HETATM   20  C   UNL     1      39.524 -12.367   6.162  1.00  0.00     0.223 C 
HETATM   21  N   UNL     1      40.002 -11.886   7.359  1.00  0.00    -0.359 N 
HETATM   22  H   UNL     1      41.014 -11.811   7.448  1.00  0.00     0.162 HD
HETATM   23  O   UNL     1      38.329 -12.614   6.002  1.00  0.00    -0.273 OA
BRANCH  21  24
HETATM   24  C   UNL     1      39.240 -11.848   8.604  1.00  0.00     0.150 C 
BRANCH  24  25
HETATM   25  C   UNL     1      39.649 -10.776   9.642  1.00  0.00     0.254 C 
BRANCH  25  26
HETATM   26  N   UNL     1      40.731 -11.244  10.583  1.00  0.00    -0.066 N 
HETATM   27  H   UNL     1      40.710 -12.286  10.542  1.00  0.00     0.280 HD
HETATM   28  C   UNL     1      42.142 -10.838  10.192  1.00  0.00     0.261 C 
HETATM   29  C   UNL     1      43.144 -11.431  11.189  1.00  0.00     0.195 C 
HETATM   30  O   UNL     1      42.844 -11.013  12.526  1.00  0.00    -0.388 OA
HETATM   31  C   UNL     1      41.546 -11.467  12.932  1.00  0.00     0.195 C 
HETATM   32  C   UNL     1      40.454 -10.879  12.031  1.00  0.00     0.261 C 
ENDBRANCH  25  26
ENDBRANCH  24  25
ENDBRANCH  21  24
ENDBRANCH  16  20
ENDBRANCH   2  14
BRANCH   1  33
HETATM   33  C   UNL     1      43.262 -15.712   5.045  1.00  0.00    -0.023 A 
HETATM   34  C   UNL     1      43.128 -16.338   6.292  1.00  0.00     0.012 A 
HETATM   35  C   UNL     1      43.718 -15.780   7.427  1.00  0.00     0.001 A 
HETATM   36  C   UNL     1      44.444 -14.595   7.325  1.00  0.00     0.000 A 
HETATM   37  C   UNL     1      44.585 -13.966   6.089  1.00  0.00     0.001 A 
HETATM   38  C   UNL     1      44.000 -14.524   4.950  1.00  0.00     0.012 A 
ENDBRANCH   1  33
TORSDOF 6
ENDMDL
MODEL 5
REMARK VINA RESULT:      -8.1      2.636      4.351
REMARK  6 active torsions:
REMARK  status: ('A' for Active; 'I' for Inactive)
REMARK    1  A    between atoms: C_4  and  C_5 
REMARK    2  A    between atoms: C_6  and  N_7 
REMARK    3  A    between atoms: C_9  and  C_10 
REMARK       I    between atoms: C_10  and  N_11 
REMARK    4  A    between atoms: N_11  and  C_12 
REMARK    5  A    between atoms: C_12  and  C_13 
REMARK    6  A    between atoms: C_13  and  N_14 
ROOT
HETATM    1  C   UNL     1      42.506 -15.823   4.235  1.00  0.00     0.019 A 
HETATM    2  C   UNL     1      42.216 -14.527   4.538  1.00  0.00     0.111 A 
HETATM    3  C   UNL     1      42.764 -13.941   5.841  1.00  0.00     0.273 A 
HETATM    4  O   UNL     1      42.591 -12.765   6.165  1.00  0.00    -0.266 OA
HETATM    5  N   UNL     1      43.469 -14.764   6.668  1.00  0.00    -0.321 N 
HETATM    6  C   UNL     1      43.749 -16.095   6.385  1.00  0.00     0.046 A 
HETATM    7  C   UNL     1      43.301 -16.652   5.183  1.00  0.00     0.006 A 
HETATM    8  C   UNL     1      44.481 -16.846   7.309  1.00  0.00     0.032 A 
HETATM    9  C   UNL     1      44.777 -18.180   7.037  1.00  0.00     0.026 A 
HETATM   10  C   UNL     1      44.347 -18.747   5.841  1.00  0.00     0.035 A 
HETATM   11 CL   UNL     1      44.714 -20.393   5.499  1.00  0.00    -0.084 Cl
HETATM   12  C   UNL     1      43.619 -17.994   4.917  1.00  0.00     0.038 A 
HETATM   13  H   UNL     1      43.796 -14.343   7.528  1.00  0.00     0.169 HD
ENDROOT
BRANCH   2  14
HETATM   14  N   UNL     1      41.408 -13.681   3.726  1.00  0.00    -0.375 N 
HETATM   15  C   UNL     1      42.018 -12.906   2.631  1.00  0.00     0.137 C 
HETATM   16  C   UNL     1      40.960 -12.561   1.578  1.00  0.00     0.096 C 
HETATM   17  C   UNL     1      39.786 -11.811   2.221  1.00  0.00     0.017 C 
HETATM   18  C   UNL     1      39.232 -12.590   3.411  1.00  0.00     0.021 C 
HETATM   19  C   UNL     1      40.338 -12.921   4.409  1.00  0.00     0.123 C 
BRANCH  16  20
HETATM   20  C   UNL     1      41.628 -11.721   0.502  1.00  0.00     0.223 C 
HETATM   21  N   UNL     1      40.769 -11.170  -0.421  1.00  0.00    -0.359 N 
HETATM   22  H   UNL     1      39.790 -11.440  -0.349  1.00  0.00     0.162 HD
HETATM   23  O   UNL     1      42.845 -11.558   0.421  1.00  0.00    -0.273 OA
BRANCH  21  24
HETATM   24  C   UNL     1      41.182 -10.567  -1.686  1.00  0.00     0.150 C 
BRANCH  24  25
HETATM   25  C   UNL     1      41.517 -11.536  -2.844  1.00  0.00     0.254 C 
BRANCH  25  26
HETATM   26  N   UNL     1      40.813 -12.866  -2.728  1.00  0.00    -0.066 N 
HETATM   27  H   UNL     1      40.553 -12.960  -1.723  1.00  0.00     0.280 HD
HETATM   28  C   UNL     1      39.515 -12.976  -3.510  1.00  0.00     0.261 C 
HETATM   29  C   UNL     1      38.872 -14.343  -3.252  1.00  0.00     0.195 C 
HETATM   30  O   UNL     1      39.770 -15.403  -3.601  1.00  0.00    -0.388 OA
HETATM   31  C   UNL     1      40.962 -15.356  -2.808  1.00  0.00     0.195 C 
HETATM   32  C   UNL     1      41.721 -14.044  -3.036  1.00  0.00     0.261 C 
ENDBRANCH  25  26
ENDBRANCH  24  25
ENDBRANCH  21  24
ENDBRANCH  16  20
ENDBRANCH   2  14
BRANCH   1  33
HETATM   33  C   UNL     1      42.023 -16.355   2.930  1.00  0.00    -0.023 A 
HETATM   34  C   UNL     1      40.687 -16.750   2.781  1.00  0.00     0.012 A 
HETATM   35  C   UNL     1      40.223 -17.215   1.549  1.00  0.00     0.001 A 
HETATM   36  C   UNL     1      41.089 -17.288   0.460  1.00  0.00     0.000 A 
HETATM   37  C   UNL     1      42.419 -16.894   0.597  1.00  0.00     0.001 A 
HETATM   38  C   UNL     1      42.886 -16.424   1.827  1.00  0.00     0.012 A 
ENDBRANCH   1  33
TORSDOF 6
ENDMDL
MODEL 6
REMARK VINA RESULT:      -8.1      3.774      5.530
REMARK  6 active torsions:
REMARK  status: ('A' for Active; 'I' for Inactive)
REMARK    1  A    between atoms: C_4  and  C_5 
REMARK    2  A    between atoms: C_6  and  N_7 
REMARK    3  A    between atoms: C_9  and  C_10 
REMARK       I    between atoms: C_10  and  N_11 
REMARK    4  A    between atoms: N_11  and  C_12 
REMARK    5  A    between atoms: C_12  and  C_13 
REMARK    6  A    between atoms: C_13  and  N_14 
ROOT
HETATM    1  C   UNL     1      42.014 -15.453   2.704  1.00  0.00     0.019 A 
HETATM    2  C   UNL     1      41.588 -14.997   1.493  1.00  0.00     0.111 A 
HETATM    3  C   UNL     1      41.838 -15.862   0.256  1.00  0.00     0.273 A 
HETATM    4  O   UNL     1      41.442 -15.545  -0.866  1.00  0.00    -0.266 OA
HETATM    5  N   UNL     1      42.530 -17.026   0.417  1.00  0.00    -0.321 N 
HETATM    6  C   UNL     1      42.994 -17.492   1.641  1.00  0.00     0.046 A 
HETATM    7  C   UNL     1      42.745 -16.747   2.799  1.00  0.00     0.006 A 
HETATM    8  C   UNL     1      43.694 -18.701   1.686  1.00  0.00     0.032 A 
HETATM    9  C   UNL     1      44.158 -19.186   2.906  1.00  0.00     0.026 A 
HETATM   10  C   UNL     1      43.911 -18.463   4.070  1.00  0.00     0.035 A 
HETATM   11 CL   UNL     1      44.480 -19.060   5.580  1.00  0.00    -0.084 Cl
HETATM   12  C   UNL     1      43.209 -17.256   4.023  1.00  0.00     0.038 A 
HETATM   13  H   UNL     1      42.691 -17.557  -0.429  1.00  0.00     0.169 HD
ENDROOT
BRANCH   2  14
HETATM   14  N   UNL     1      40.942 -13.743   1.298  1.00  0.00    -0.375 N 
HETATM   15  C   UNL     1      39.511 -13.695   0.948  1.00  0.00     0.137 C 
HETATM   16  C   UNL     1      38.915 -12.343   1.352  1.00  0.00     0.096 C 
HETATM   17  C   UNL     1      39.698 -11.195   0.703  1.00  0.00     0.017 C 
HETATM   18  C   UNL     1      41.190 -11.319   1.002  1.00  0.00     0.021 C 
HETATM   19  C   UNL     1      41.715 -12.693   0.598  1.00  0.00     0.123 C 
BRANCH  16  20
HETATM   20  C   UNL     1      37.457 -12.328   0.924  1.00  0.00     0.223 C 
HETATM   21  N   UNL     1      36.851 -11.094   0.972  1.00  0.00    -0.359 N 
HETATM   22  H   UNL     1      37.401 -10.331   1.364  1.00  0.00     0.162 HD
HETATM   23  O   UNL     1      36.835 -13.335   0.587  1.00  0.00    -0.273 OA
BRANCH  21  24
HETATM   24  C   UNL     1      35.411 -10.871   0.880  1.00  0.00     0.150 C 
BRANCH  24  25
HETATM   25  C   UNL     1      34.834  -9.687   1.691  1.00  0.00     0.254 C 
BRANCH  25  26
HETATM   26  N   UNL     1      33.743 -10.100   2.649  1.00  0.00    -0.066 N 
HETATM   27  H   UNL     1      34.153 -10.861   3.232  1.00  0.00     0.280 HD
HETATM   28  C   UNL     1      33.300  -9.020   3.622  1.00  0.00     0.261 C 
HETATM   29  C   UNL     1      32.243  -9.587   4.575  1.00  0.00     0.195 C 
HETATM   30  O   UNL     1      31.125 -10.110   3.848  1.00  0.00    -0.388 OA
HETATM   31  C   UNL     1      31.522 -11.187   2.991  1.00  0.00     0.195 C 
HETATM   32  C   UNL     1      32.541 -10.711   1.949  1.00  0.00     0.261 C 
ENDBRANCH  25  26
ENDBRANCH  24  25
ENDBRANCH  21  24
ENDBRANCH  16  20
ENDBRANCH   2  14
BRANCH   1  33
HETATM   33  C   UNL     1      41.700 -14.631   3.905  1.00  0.00    -0.023 A 
HETATM   34  C   UNL     1      42.585 -13.629   4.324  1.00  0.00     0.012 A 
HETATM   35  C   UNL     1      42.276 -12.832   5.428  1.00  0.00     0.001 A 
HETATM   36  C   UNL     1      41.083 -13.031   6.120  1.00  0.00     0.000 A 
HETATM   37  C   UNL     1      40.195 -14.024   5.710  1.00  0.00     0.001 A 
HETATM   38  C   UNL     1      40.498 -14.820   4.603  1.00  0.00     0.012 A 
ENDBRANCH   1  33
TORSDOF 6
ENDMDL
MODEL 7
REMARK VINA RESULT:      -8.0      2.342      3.576
REMARK  6 active torsions:
REMARK  status: ('A' for Active; 'I' for Inactive)
REMARK    1  A    between atoms: C_4  and  C_5 
REMARK    2  A    between atoms: C_6  and  N_7 
REMARK    3  A    between atoms: C_9  and  C_10 
REMARK       I    between atoms: C_10  and  N_11 
REMARK    4  A    between atoms: N_11  and  C_12 
REMARK    5  A    between atoms: C_12  and  C_13 
REMARK    6  A    between atoms: C_13  and  N_14 
ROOT
HETATM    1  C   UNL     1      43.406 -17.950   4.151  1.00  0.00     0.019 A 
HETATM    2  C   UNL     1      43.448 -17.284   5.338  1.00  0.00     0.111 A 
HETATM    3  C   UNL     1      44.032 -18.000   6.558  1.00  0.00     0.273 A 
HETATM    4  O   UNL     1      44.152 -17.451   7.655  1.00  0.00    -0.266 OA
HETATM    5  N   UNL     1      44.429 -19.295   6.412  1.00  0.00    -0.321 N 
HETATM    6  C   UNL     1      44.368 -19.997   5.214  1.00  0.00     0.046 A 
HETATM    7  C   UNL     1      43.879 -19.360   4.069  1.00  0.00     0.006 A 
HETATM    8  C   UNL     1      44.803 -21.325   5.182  1.00  0.00     0.032 A 
HETATM    9  C   UNL     1      44.755 -22.039   3.987  1.00  0.00     0.026 A 
HETATM   10  C   UNL     1      44.281 -21.418   2.835  1.00  0.00     0.035 A 
HETATM   11 CL   UNL     1      44.224 -22.296   1.357  1.00  0.00    -0.084 Cl
HETATM   12  C   UNL     1      43.849 -20.090   2.869  1.00  0.00     0.038 A 
HETATM   13  H   UNL     1      44.790 -19.737   7.247  1.00  0.00     0.169 HD
ENDROOT
BRANCH   2  14
HETATM   14  N   UNL     1      42.956 -15.961   5.526  1.00  0.00    -0.375 N 
HETATM   15  C   UNL     1      41.726 -15.525   4.840  1.00  0.00     0.137 C 
HETATM   16  C   UNL     1      41.087 -14.357   5.599  1.00  0.00     0.096 C 
HETATM   17  C   UNL     1      42.089 -13.206   5.756  1.00  0.00     0.017 C 
HETATM   18  C   UNL     1      43.390 -13.701   6.382  1.00  0.00     0.021 C 
HETATM   19  C   UNL     1      43.961 -14.877   5.594  1.00  0.00     0.123 C 
BRANCH  16  20
HETATM   20  C   UNL     1      39.856 -13.914   4.825  1.00  0.00     0.223 C 
HETATM   21  N   UNL     1      39.951 -14.046   3.459  1.00  0.00    -0.359 N 
HETATM   22  H   UNL     1      40.853 -14.343   3.092  1.00  0.00     0.162 HD
HETATM   23  O   UNL     1      38.852 -13.440   5.355  1.00  0.00    -0.273 OA
BRANCH  21  24
HETATM   24  C   UNL     1      39.030 -13.442   2.499  1.00  0.00     0.150 C 
BRANCH  24  25
HETATM   25  C   UNL     1      38.421 -14.380   1.431  1.00  0.00     0.254 C 
BRANCH  25  26
HETATM   26  N   UNL     1      38.953 -14.124   0.043  1.00  0.00    -0.066 N 
HETATM   27  H   UNL     1      39.480 -14.985  -0.220  1.00  0.00     0.280 HD
HETATM   28  C   UNL     1      37.892 -13.938  -1.028  1.00  0.00     0.261 C 
HETATM   29  C   UNL     1      38.564 -13.755  -2.394  1.00  0.00     0.195 C 
HETATM   30  O   UNL     1      39.469 -12.645  -2.373  1.00  0.00    -0.388 OA
HETATM   31  C   UNL     1      40.523 -12.853  -1.424  1.00  0.00     0.195 C 
HETATM   32  C   UNL     1      39.961 -12.989  -0.004  1.00  0.00     0.261 C 
ENDBRANCH  25  26
ENDBRANCH  24  25
ENDBRANCH  21  24
ENDBRANCH  16  20
ENDBRANCH   2  14
BRANCH   1  33
HETATM   33  C   UNL     1      42.899 -17.214   2.960  1.00  0.00    -0.023 A 
HETATM   34  C   UNL     1      43.716 -16.278   2.310  1.00  0.00     0.012 A 
HETATM   35  C   UNL     1      43.257 -15.613   1.172  1.00  0.00     0.001 A 
HETATM   36  C   UNL     1      41.982 -15.877   0.675  1.00  0.00     0.000 A 
HETATM   37  C   UNL     1      41.164 -16.809   1.313  1.00  0.00     0.001 A 
HETATM   38  C   UNL     1      41.621 -17.479   2.449  1.00  0.00     0.012 A 
ENDBRANCH   1  33
TORSDOF 6
ENDMDL
MODEL 8
REMARK VINA RESULT:      -7.9      5.009      8.270
REMARK  6 active torsions:
REMARK  status: ('A' for Active; 'I' for Inactive)
REMARK    1  A    between atoms: C_4  and  C_5 
REMARK    2  A    between atoms: C_6  and  N_7 
REMARK    3  A    between atoms: C_9  and  C_10 
REMARK       I    between atoms: C_10  and  N_11 
REMARK    4  A    between atoms: N_11  and  C_12 
REMARK    5  A    between atoms: C_12  and  C_13 
REMARK    6  A    between atoms: C_13  and  N_14 
ROOT
HETATM    1  C   UNL     1      41.984 -15.175   4.015  1.00  0.00     0.019 A 
HETATM    2  C   UNL     1      41.041 -14.221   3.782  1.00  0.00     0.111 A 
HETATM    3  C   UNL     1      40.010 -14.466   2.678  1.00  0.00     0.273 A 
HETATM    4  O   UNL     1      39.096 -13.677   2.437  1.00  0.00    -0.266 OA
HETATM    5  N   UNL     1      40.121 -15.605   1.938  1.00  0.00    -0.321 N 
HETATM    6  C   UNL     1      41.094 -16.575   2.147  1.00  0.00     0.046 A 
HETATM    7  C   UNL     1      42.026 -16.405   3.176  1.00  0.00     0.006 A 
HETATM    8  C   UNL     1      41.112 -17.705   1.325  1.00  0.00     0.032 A 
HETATM    9  C   UNL     1      42.076 -18.691   1.526  1.00  0.00     0.026 A 
HETATM   10  C   UNL     1      43.006 -18.542   2.552  1.00  0.00     0.035 A 
HETATM   11 CL   UNL     1      44.196 -19.759   2.806  1.00  0.00    -0.084 Cl
HETATM   12  C   UNL     1      42.983 -17.413   3.373  1.00  0.00     0.038 A 
HETATM   13  H   UNL     1      39.433 -15.719   1.206  1.00  0.00     0.169 HD
ENDROOT
BRANCH   2  14
HETATM   14  N   UNL     1      40.967 -12.987   4.488  1.00  0.00    -0.375 N 
HETATM   15  C   UNL     1      40.148 -12.882   5.710  1.00  0.00     0.137 C 
HETATM   16  C   UNL     1      40.653 -11.730   6.585  1.00  0.00     0.096 C 
HETATM   17  C   UNL     1      40.662 -10.417   5.792  1.00  0.00     0.017 C 
HETATM   18  C   UNL     1      41.437 -10.577   4.486  1.00  0.00     0.021 C 
HETATM   19  C   UNL     1      40.900 -11.753   3.674  1.00  0.00     0.123 C 
BRANCH  16  20
HETATM   20  C   UNL     1      39.747 -11.634   7.800  1.00  0.00     0.223 C 
HETATM   21  N   UNL     1      40.042 -10.606   8.665  1.00  0.00    -0.359 N 
HETATM   22  H   UNL     1      40.879 -10.064   8.459  1.00  0.00     0.162 HD
HETATM   23  O   UNL     1      38.832 -12.424   8.033  1.00  0.00    -0.273 OA
BRANCH  21  24
HETATM   24  C   UNL     1      39.506 -10.476  10.017  1.00  0.00     0.150 C 
BRANCH  24  25
HETATM   25  C   UNL     1      40.255 -11.229  11.141  1.00  0.00     0.254 C 
BRANCH  25  26
HETATM   26  N   UNL     1      41.294 -10.381  11.833  1.00  0.00    -0.066 N 
HETATM   27  H   UNL     1      41.276  -9.459  11.345  1.00  0.00     0.280 HD
HETATM   28  C   UNL     1      41.011 -10.086  13.297  1.00  0.00     0.261 C 
HETATM   29  C   UNL     1      42.101  -9.166  13.857  1.00  0.00     0.195 C 
HETATM   30  O   UNL     1      43.398  -9.751  13.695  1.00  0.00    -0.388 OA
HETATM   31  C   UNL     1      43.707  -9.954  12.310  1.00  0.00     0.195 C 
HETATM   32  C   UNL     1      42.705 -10.916  11.661  1.00  0.00     0.261 C 
ENDBRANCH  25  26
ENDBRANCH  24  25
ENDBRANCH  21  24
ENDBRANCH  16  20
ENDBRANCH   2  14
BRANCH   1  33
HETATM   33  C   UNL     1      42.935 -14.951   5.140  1.00  0.00    -0.023 A 
HETATM   34  C   UNL     1      43.909 -13.947   5.049  1.00  0.00     0.012 A 
HETATM   35  C   UNL     1      44.778 -13.710   6.115  1.00  0.00     0.001 A 
HETATM   36  C   UNL     1      44.681 -14.473   7.277  1.00  0.00     0.000 A 
HETATM   37  C   UNL     1      43.714 -15.473   7.378  1.00  0.00     0.001 A 
HETATM   38  C   UNL     1      42.839 -15.709   6.315  1.00  0.00     0.012 A 
ENDBRANCH   1  33
TORSDOF 6
ENDMDL
MODEL 9
REMARK VINA RESULT:      -7.8      3.112      4.809
REMARK  6 active torsions:
REMARK  status: ('A' for Active; 'I' for Inactive)
REMARK    1  A    between atoms: C_4  and  C_5 
REMARK    2  A    between atoms: C_6  and  N_7 
REMARK    3  A    between atoms: C_9  and  C_10 
REMARK       I    between atoms: C_10  and  N_11 
REMARK    4  A    between atoms: N_11  and  C_12 
REMARK    5  A    between atoms: C_12  and  C_13 
REMARK    6  A    between atoms: C_13  and  N_14 
ROOT
HETATM    1  C   UNL     1      42.742 -15.976   4.270  1.00  0.00     0.019 A 
HETATM    2  C   UNL     1      42.536 -14.692   4.674  1.00  0.00     0.111 A 
HETATM    3  C   UNL     1      43.169 -14.227   5.987  1.00  0.00     0.273 A 
HETATM    4  O   UNL     1      43.073 -13.070   6.397  1.00  0.00    -0.266 OA
HETATM    5  N   UNL     1      43.864 -15.140   6.723  1.00  0.00    -0.321 N 
HETATM    6  C   UNL     1      44.061 -16.461   6.337  1.00  0.00     0.046 A 
HETATM    7  C   UNL     1      43.532 -16.909   5.122  1.00  0.00     0.006 A 
HETATM    8  C   UNL     1      44.790 -17.310   7.174  1.00  0.00     0.032 A 
HETATM    9  C   UNL     1      45.003 -18.635   6.798  1.00  0.00     0.026 A 
HETATM   10  C   UNL     1      44.493 -19.095   5.587  1.00  0.00     0.035 A 
HETATM   11 CL   UNL     1      44.757 -20.729   5.118  1.00  0.00    -0.084 Cl
HETATM   12  C   UNL     1      43.767 -18.243   4.752  1.00  0.00     0.038 A 
HETATM   13  H   UNL     1      44.249 -14.797   7.593  1.00  0.00     0.169 HD
ENDROOT
BRANCH   2  14
HETATM   14  N   UNL     1      41.740 -13.752   3.959  1.00  0.00    -0.375 N 
HETATM   15  C   UNL     1      42.347 -12.922   2.902  1.00  0.00     0.137 C 
HETATM   16  C   UNL     1      41.269 -12.451   1.920  1.00  0.00     0.096 C 
HETATM   17  C   UNL     1      40.155 -11.702   2.662  1.00  0.00     0.017 C 
HETATM   18  C   UNL     1      39.607 -12.545   3.811  1.00  0.00     0.021 C 
HETATM   19  C   UNL     1      40.731 -13.000   4.738  1.00  0.00     0.123 C 
BRANCH  16  20
HETATM   20  C   UNL     1      41.937 -11.561   0.885  1.00  0.00     0.223 C 
HETATM   21  N   UNL     1      41.570 -10.236   0.936  1.00  0.00    -0.359 N 
HETATM   22  H   UNL     1      40.834  -9.993   1.595  1.00  0.00     0.162 HD
HETATM   23  O   UNL     1      42.724 -11.977   0.035  1.00  0.00    -0.273 OA
BRANCH  21  24
HETATM   24  C   UNL     1      41.853  -9.255  -0.109  1.00  0.00     0.150 C 
BRANCH  24  25
HETATM   25  C   UNL     1      40.751  -9.025  -1.168  1.00  0.00     0.254 C 
BRANCH  25  26
HETATM   26  N   UNL     1      41.001  -9.768  -2.457  1.00  0.00    -0.066 N 
HETATM   27  H   UNL     1      40.516  -9.218  -3.199  1.00  0.00     0.280 HD
HETATM   28  C   UNL     1      42.458  -9.848  -2.880  1.00  0.00     0.261 C 
HETATM   29  C   UNL     1      42.565 -10.565  -4.230  1.00  0.00     0.195 C 
HETATM   30  O   UNL     1      41.980 -11.870  -4.164  1.00  0.00    -0.388 OA
HETATM   31  C   UNL     1      40.584 -11.798  -3.848  1.00  0.00     0.195 C 
HETATM   32  C   UNL     1      40.365 -11.147  -2.478  1.00  0.00     0.261 C 
ENDBRANCH  25  26
ENDBRANCH  24  25
ENDBRANCH  21  24
ENDBRANCH  16  20
ENDBRANCH   2  14
BRANCH   1  33
HETATM   33  C   UNL     1      42.177 -16.390   2.956  1.00  0.00    -0.023 A 
HETATM   34  C   UNL     1      42.991 -16.413   1.815  1.00  0.00     0.012 A 
HETATM   35  C   UNL     1      42.473 -16.835   0.589  1.00  0.00     0.001 A 
HETATM   36  C   UNL     1      41.142 -17.237   0.495  1.00  0.00     0.000 A 
HETATM   37  C   UNL     1      40.326 -17.221   1.625  1.00  0.00     0.001 A 
HETATM   38  C   UNL     1      40.841 -16.803   2.854  1.00  0.00     0.012 A 
ENDBRANCH   1  33
TORSDOF 6
ENDMDL
MODEL 10
REMARK VINA RESULT:      -7.7      2.460      3.904
REMARK  6 active torsions:
REMARK  status: ('A' for Active; 'I' for Inactive)
REMARK    1  A    between atoms: C_4  and  C_5 
REMARK    2  A    between atoms: C_6  and  N_7 
REMARK    3  A    between atoms: C_9  and  C_10 
REMARK       I    between atoms: C_10  and  N_11 
REMARK    4  A    between atoms: N_11  and  C_12 
REMARK    5  A    between atoms: C_12  and  C_13 
REMARK    6  A    between atoms: C_13  and  N_14 
ROOT
HETATM    1  C   UNL     1      42.831 -17.845   3.847  1.00  0.00     0.019 A 
HETATM    2  C   UNL     1      42.636 -17.018   4.911  1.00  0.00     0.111 A 
HETATM    3  C   UNL     1      43.231 -17.416   6.265  1.00  0.00     0.273 A 
HETATM    4  O   UNL     1      43.143 -16.701   7.264  1.00  0.00    -0.266 OA
HETATM    5  N   UNL     1      43.879 -18.611   6.354  1.00  0.00    -0.321 N 
HETATM    6  C   UNL     1      44.063 -19.477   5.283  1.00  0.00     0.046 A 
HETATM    7  C   UNL     1      43.570 -19.126   4.022  1.00  0.00     0.006 A 
HETATM    8  C   UNL     1      44.745 -20.680   5.492  1.00  0.00     0.032 A 
HETATM    9  C   UNL     1      44.944 -21.555   4.427  1.00  0.00     0.026 A 
HETATM   10  C   UNL     1      44.469 -21.217   3.163  1.00  0.00     0.035 A 
HETATM   11 CL   UNL     1      44.716 -22.295   1.844  1.00  0.00    -0.084 Cl
HETATM   12  C   UNL     1      43.791 -20.014   2.956  1.00  0.00     0.038 A 
HETATM   13  H   UNL     1      44.240 -18.844   7.269  1.00  0.00     0.169 HD
ENDROOT
BRANCH   2  14
HETATM   14  N   UNL     1      41.886 -15.809   4.853  1.00  0.00    -0.375 N 
HETATM   15  C   UNL     1      42.324 -14.710   3.974  1.00  0.00     0.137 C 
HETATM   16  C   UNL     1      41.134 -13.809   3.627  1.00  0.00     0.096 C 
HETATM   17  C   UNL     1      40.467 -13.284   4.905  1.00  0.00     0.017 C 
HETATM   18  C   UNL     1      40.108 -14.435   5.841  1.00  0.00     0.021 C 
HETATM   19  C   UNL     1      41.328 -15.306   6.128  1.00  0.00     0.123 C 
BRANCH  16  20
HETATM   20  C   UNL     1      41.648 -12.667   2.765  1.00  0.00     0.223 C 
HETATM   21  N   UNL     1      40.794 -11.595   2.653  1.00  0.00    -0.359 N 
HETATM   22  H   UNL     1      39.876 -11.697   3.081  1.00  0.00     0.162 HD
HETATM   23  O   UNL     1      42.727 -12.692   2.175  1.00  0.00    -0.273 OA
BRANCH  21  24
HETATM   24  C   UNL     1      40.934 -10.519   1.675  1.00  0.00     0.150 C 
BRANCH  24  25
HETATM   25  C   UNL     1      40.030 -10.591   0.423  1.00  0.00     0.254 C 
BRANCH  25  26
HETATM   26  N   UNL     1      39.527 -11.983   0.133  1.00  0.00    -0.066 N 
HETATM   27  H   UNL     1      40.144 -12.625   0.677  1.00  0.00     0.280 HD
HETATM   28  C   UNL     1      38.110 -12.265   0.603  1.00  0.00     0.261 C 
HETATM   29  C   UNL     1      37.751 -13.726   0.309  1.00  0.00     0.195 C 
HETATM   30  O   UNL     1      37.894 -14.017  -1.086  1.00  0.00    -0.388 OA
HETATM   31  C   UNL     1      39.248 -13.835  -1.518  1.00  0.00     0.195 C 
HETATM   32  C   UNL     1      39.694 -12.381  -1.324  1.00  0.00     0.261 C 
ENDBRANCH  25  26
ENDBRANCH  24  25
ENDBRANCH  21  24
ENDBRANCH  16  20
ENDBRANCH   2  14
BRANCH   1  33
HETATM   33  C   UNL     1      42.306 -17.408   2.523  1.00  0.00    -0.023 A 
HETATM   34  C   UNL     1      40.924 -17.361   2.295  1.00  0.00     0.012 A 
HETATM   35  C   UNL     1      40.427 -16.917   1.068  1.00  0.00     0.001 A 
HETATM   36  C   UNL     1      41.306 -16.518   0.063  1.00  0.00     0.000 A 
HETATM   37  C   UNL     1      42.683 -16.559   0.282  1.00  0.00     0.001 A 
HETATM   38  C   UNL     1      43.183 -16.997   1.509  1.00  0.00     0.012 A 
ENDBRANCH   1  33
TORSDOF 6
ENDMDL
