MODEL 1
REMARK VINA RESULT:      -9.6      0.000      0.000
REMARK  7 active torsions:
REMARK  status: ('A' for Active; 'I' for Inactive)
REMARK    1  A    between atoms: C_4  and  C_5 
REMARK    2  A    between atoms: C_5  and  N_6 
REMARK    3  A    between atoms: N_10  and  N_11 
REMARK       I    between atoms: N_11  and  C_12 
REMARK    4  A    between atoms: C_12  and  C_13 
REMARK    5  A    between atoms: C_13  and  N_14 
REMARK       I    between atoms: N_14  and  C_15 
REMARK    6  A    between atoms: C_15  and  C_16 
REMARK    7  A    between atoms: C_17  and  O_18 
ROOT
HETATM    1  N   UNL     1      41.865 -13.456  -1.988  1.00  0.00    -0.307 N 
HETATM    2  C   UNL     1      41.823 -13.842  -0.661  1.00  0.00     0.280 A 
HETATM    3  O   UNL     1      41.540 -14.911  -0.162  1.00  0.00    -0.265 OA
HETATM    4  C   UNL     1      42.226 -12.608   0.140  1.00  0.00     0.157 A 
HETATM    5  N   UNL     1      42.300 -12.454   1.423  1.00  0.00    -0.166 NA
HETATM    6  C   UNL     1      42.508 -11.566  -0.839  1.00  0.00     0.027 A 
HETATM    7  C   UNL     1      42.272 -12.114  -2.099  1.00  0.00     0.050 A 
HETATM    8  C   UNL     1      42.907 -10.257  -0.647  1.00  0.00     0.016 A 
HETATM    9  C   UNL     1      43.078  -9.473  -1.786  1.00  0.00     0.001 A 
HETATM   10  C   UNL     1      42.846 -10.010  -3.068  1.00  0.00     0.002 A 
HETATM   11  C   UNL     1      42.438 -11.341  -3.233  1.00  0.00     0.031 A 
ENDROOT
BRANCH   5  12
HETATM   12  N   UNL     1      41.956 -13.509   2.218  1.00  0.00    -0.245 N 
HETATM   13  C   UNL     1      42.858 -13.945   3.180  1.00  0.00     0.255 C 
HETATM   14  O   UNL     1      43.997 -13.504   3.334  1.00  0.00    -0.270 OA
HETATM   15  H   UNL     1      41.024 -13.935   2.140  1.00  0.00     0.192 HD
BRANCH  13  16
HETATM   16  C   UNL     1      42.318 -15.057   4.071  1.00  0.00     0.227 C 
BRANCH  16  17
HETATM   17  N   UNL     1      43.016 -16.307   3.831  1.00  0.00    -0.348 N 
HETATM   18  C   UNL     1      42.384 -17.383   3.258  1.00  0.00     0.254 C 
HETATM   19  O   UNL     1      41.221 -17.345   2.878  1.00  0.00    -0.268 OA
HETATM   20  H   UNL     1      43.955 -16.410   4.208  1.00  0.00     0.163 HD
BRANCH  18  21
HETATM   21  C   UNL     1      43.188 -18.623   3.142  1.00  0.00     0.065 A 
HETATM   22  C   UNL     1      44.093 -19.037   4.128  1.00  0.00     0.081 A 
HETATM   23  C   UNL     1      44.761 -20.253   4.001  1.00  0.00     0.037 A 
HETATM   24  C   UNL     1      44.553 -21.049   2.873  1.00  0.00     0.003 A 
HETATM   25  C   UNL     1      43.679 -20.627   1.870  1.00  0.00     0.001 A 
HETATM   26  C   UNL     1      43.000 -19.415   2.002  1.00  0.00     0.020 A 
BRANCH  22  27
HETATM   27  O   UNL     1      44.389 -18.296   5.238  1.00  0.00    -0.360 OA
HETATM   28  H   UNL     1      43.578 -18.193   5.772  1.00  0.00     0.217 HD
ENDBRANCH  22  27
ENDBRANCH  18  21
ENDBRANCH  16  17
ENDBRANCH  13  16
ENDBRANCH   5  12
BRANCH   1  29
HETATM   29  C   UNL     1      41.575 -14.338  -3.093  1.00  0.00     0.171 C 
BRANCH  29  30
HETATM   30  C   UNL     1      40.093 -14.504  -3.339  1.00  0.00    -0.040 A 
HETATM   31  C   UNL     1      39.571 -15.751  -3.714  1.00  0.00     0.009 A 
HETATM   32  C   UNL     1      38.203 -15.908  -3.944  1.00  0.00     0.001 A 
HETATM   33  C   UNL     1      37.342 -14.821  -3.803  1.00  0.00     0.000 A 
HETATM   34  C   UNL     1      37.847 -13.579  -3.427  1.00  0.00     0.001 A 
HETATM   35  C   UNL     1      39.215 -13.421  -3.193  1.00  0.00     0.009 A 
ENDBRANCH  29  30
ENDBRANCH   1  29
TORSDOF 7
ENDMDL
MODEL 2
REMARK VINA RESULT:      -9.5      5.088      9.113
REMARK  7 active torsions:
REMARK  status: ('A' for Active; 'I' for Inactive)
REMARK    1  A    between atoms: C_4  and  C_5 
REMARK    2  A    between atoms: C_5  and  N_6 
REMARK    3  A    between atoms: N_10  and  N_11 
REMARK       I    between atoms: N_11  and  C_12 
REMARK    4  A    between atoms: C_12  and  C_13 
REMARK    5  A    between atoms: C_13  and  N_14 
REMARK       I    between atoms: N_14  and  C_15 
REMARK    6  A    between atoms: C_15  and  C_16 
REMARK    7  A    between atoms: C_17  and  O_18 
ROOT
HETATM    1  N   UNL     1      41.679 -16.622   4.866  1.00  0.00    -0.307 N 
HETATM    2  C   UNL     1      42.321 -15.789   5.765  1.00  0.00     0.280 A 
HETATM    3  O   UNL     1      42.896 -16.047   6.803  1.00  0.00    -0.265 OA
HETATM    4  C   UNL     1      42.184 -14.383   5.193  1.00  0.00     0.157 A 
HETATM    5  N   UNL     1      42.587 -13.256   5.686  1.00  0.00    -0.166 NA
HETATM    6  C   UNL     1      41.462 -14.527   3.936  1.00  0.00     0.027 A 
HETATM    7  C   UNL     1      41.172 -15.882   3.783  1.00  0.00     0.050 A 
HETATM    8  C   UNL     1      41.071 -13.563   3.025  1.00  0.00     0.016 A 
HETATM    9  C   UNL     1      40.359 -13.999   1.909  1.00  0.00     0.001 A 
HETATM   10  C   UNL     1      40.059 -15.364   1.737  1.00  0.00     0.002 A 
HETATM   11  C   UNL     1      40.465 -16.320   2.679  1.00  0.00     0.031 A 
ENDROOT
BRANCH   5  12
HETATM   12  N   UNL     1      43.209 -13.273   6.902  1.00  0.00    -0.245 N 
HETATM   13  C   UNL     1      44.596 -13.324   6.944  1.00  0.00     0.255 C 
HETATM   14  O   UNL     1      45.331 -13.436   5.962  1.00  0.00    -0.270 OA
HETATM   15  H   UNL     1      42.660 -13.193   7.767  1.00  0.00     0.192 HD
BRANCH  13  16
HETATM   16  C   UNL     1      45.173 -13.232   8.351  1.00  0.00     0.227 C 
BRANCH  16  17
HETATM   17  N   UNL     1      44.254 -12.562   9.252  1.00  0.00    -0.348 N 
HETATM   18  C   UNL     1      44.490 -11.283   9.698  1.00  0.00     0.254 C 
HETATM   19  O   UNL     1      45.454 -10.621   9.335  1.00  0.00    -0.268 OA
HETATM   20  H   UNL     1      43.489 -13.104   9.645  1.00  0.00     0.163 HD
BRANCH  18  21
HETATM   21  C   UNL     1      43.515 -10.746  10.676  1.00  0.00     0.065 A 
HETATM   22  C   UNL     1      42.131 -10.765  10.458  1.00  0.00     0.081 A 
HETATM   23  C   UNL     1      41.259 -10.317  11.449  1.00  0.00     0.037 A 
HETATM   24  C   UNL     1      41.764  -9.820  12.651  1.00  0.00     0.003 A 
HETATM   25  C   UNL     1      43.143  -9.766  12.862  1.00  0.00     0.001 A 
HETATM   26  C   UNL     1      44.017 -10.224  11.875  1.00  0.00     0.020 A 
BRANCH  22  27
HETATM   27  O   UNL     1      41.557 -11.191   9.292  1.00  0.00    -0.360 OA
HETATM   28  H   UNL     1      40.935 -10.507   8.981  1.00  0.00     0.217 HD
ENDBRANCH  22  27
ENDBRANCH  18  21
ENDBRANCH  16  17
ENDBRANCH  13  16
ENDBRANCH   5  12
BRANCH   1  29
HETATM   29  C   UNL     1      41.594 -18.056   5.016  1.00  0.00     0.171 C 
BRANCH  29  30
HETATM   30  C   UNL     1      42.789 -18.778   4.436  1.00  0.00    -0.040 A 
HETATM   31  C   UNL     1      42.945 -18.887   3.046  1.00  0.00     0.009 A 
HETATM   32  C   UNL     1      44.046 -19.554   2.505  1.00  0.00     0.001 A 
HETATM   33  C   UNL     1      45.002 -20.120   3.347  1.00  0.00     0.000 A 
HETATM   34  C   UNL     1      44.860 -20.015   4.729  1.00  0.00     0.001 A 
HETATM   35  C   UNL     1      43.762 -19.345   5.271  1.00  0.00     0.009 A 
ENDBRANCH  29  30
ENDBRANCH   1  29
TORSDOF 7
ENDMDL
MODEL 3
REMARK VINA RESULT:      -9.4      6.137      9.648
REMARK  7 active torsions:
REMARK  status: ('A' for Active; 'I' for Inactive)
REMARK    1  A    between atoms: C_4  and  C_5 
REMARK    2  A    between atoms: C_5  and  N_6 
REMARK    3  A    between atoms: N_10  and  N_11 
REMARK       I    between atoms: N_11  and  C_12 
REMARK    4  A    between atoms: C_12  and  C_13 
REMARK    5  A    between atoms: C_13  and  N_14 
REMARK       I    between atoms: N_14  and  C_15 
REMARK    6  A    between atoms: C_15  and  C_16 
REMARK    7  A    between atoms: C_17  and  O_18 
ROOT
HETATM    1  N   UNL     1      42.045 -16.070   5.059  1.00  0.00    -0.307 N 
HETATM    2  C   UNL     1      42.355 -14.991   5.868  1.00  0.00     0.280 A 
HETATM    3  O   UNL     1      41.775 -13.938   6.030  1.00  0.00    -0.265 OA
HETATM    4  C   UNL     1      43.646 -15.371   6.584  1.00  0.00     0.157 A 
HETATM    5  N   UNL     1      44.355 -14.679   7.417  1.00  0.00    -0.166 NA
HETATM    6  C   UNL     1      43.979 -16.715   6.129  1.00  0.00     0.027 A 
HETATM    7  C   UNL     1      42.999 -17.091   5.212  1.00  0.00     0.050 A 
HETATM    8  C   UNL     1      45.050 -17.522   6.465  1.00  0.00     0.016 A 
HETATM    9  C   UNL     1      45.124 -18.767   5.842  1.00  0.00     0.001 A 
HETATM   10  C   UNL     1      44.142 -19.165   4.915  1.00  0.00     0.002 A 
HETATM   11  C   UNL     1      43.068 -18.324   4.591  1.00  0.00     0.031 A 
ENDROOT
BRANCH   5  12
HETATM   12  N   UNL     1      43.942 -13.411   7.712  1.00  0.00    -0.245 N 
HETATM   13  C   UNL     1      44.688 -12.655   8.606  1.00  0.00     0.255 C 
HETATM   14  O   UNL     1      45.669 -13.060   9.231  1.00  0.00    -0.270 OA
HETATM   15  H   UNL     1      43.124 -13.008   7.237  1.00  0.00     0.192 HD
BRANCH  13  16
HETATM   16  C   UNL     1      44.187 -11.225   8.772  1.00  0.00     0.227 C 
BRANCH  16  17
HETATM   17  N   UNL     1      43.916 -10.922  10.165  1.00  0.00    -0.348 N 
HETATM   18  C   UNL     1      42.631 -10.847  10.646  1.00  0.00     0.254 C 
HETATM   19  O   UNL     1      41.648 -11.070   9.952  1.00  0.00    -0.268 OA
HETATM   20  H   UNL     1      44.697 -10.647  10.755  1.00  0.00     0.163 HD
BRANCH  18  21
HETATM   21  C   UNL     1      42.491 -10.452  12.068  1.00  0.00     0.065 A 
HETATM   22  C   UNL     1      41.524 -11.002  12.918  1.00  0.00     0.081 A 
HETATM   23  C   UNL     1      41.492 -10.650  14.266  1.00  0.00     0.037 A 
HETATM   24  C   UNL     1      42.408  -9.723  14.766  1.00  0.00     0.003 A 
HETATM   25  C   UNL     1      43.353  -9.144  13.918  1.00  0.00     0.001 A 
HETATM   26  C   UNL     1      43.393  -9.505  12.570  1.00  0.00     0.020 A 
BRANCH  22  27
HETATM   27  O   UNL     1      40.562 -11.879  12.498  1.00  0.00    -0.360 OA
HETATM   28  H   UNL     1      40.236 -11.592  11.625  1.00  0.00     0.217 HD
ENDBRANCH  22  27
ENDBRANCH  18  21
ENDBRANCH  16  17
ENDBRANCH  13  16
ENDBRANCH   5  12
BRANCH   1  29
HETATM   29  C   UNL     1      40.873 -16.135   4.219  1.00  0.00     0.171 C 
BRANCH  29  30
HETATM   30  C   UNL     1      41.188 -15.938   2.754  1.00  0.00    -0.040 A 
HETATM   31  C   UNL     1      41.584 -14.679   2.277  1.00  0.00     0.009 A 
HETATM   32  C   UNL     1      41.875 -14.492   0.924  1.00  0.00     0.001 A 
HETATM   33  C   UNL     1      41.773 -15.559   0.034  1.00  0.00     0.000 A 
HETATM   34  C   UNL     1      41.385 -16.815   0.496  1.00  0.00     0.001 A 
HETATM   35  C   UNL     1      41.097 -17.005   1.849  1.00  0.00     0.009 A 
ENDBRANCH  29  30
ENDBRANCH   1  29
TORSDOF 7
ENDMDL
MODEL 4
REMARK VINA RESULT:      -9.1      2.483      5.261
REMARK  7 active torsions:
REMARK  status: ('A' for Active; 'I' for Inactive)
REMARK    1  A    between atoms: C_4  and  C_5 
REMARK    2  A    between atoms: C_5  and  N_6 
REMARK    3  A    between atoms: N_10  and  N_11 
REMARK       I    between atoms: N_11  and  C_12 
REMARK    4  A    between atoms: C_12  and  C_13 
REMARK    5  A    between atoms: C_13  and  N_14 
REMARK       I    between atoms: N_14  and  C_15 
REMARK    6  A    between atoms: C_15  and  C_16 
REMARK    7  A    between atoms: C_17  and  O_18 
ROOT
HETATM    1  N   UNL     1      41.264 -15.527   0.295  1.00  0.00    -0.307 N 
HETATM    2  C   UNL     1      41.575 -14.561   1.235  1.00  0.00     0.280 A 
HETATM    3  O   UNL     1      41.668 -14.640   2.443  1.00  0.00    -0.265 OA
HETATM    4  C   UNL     1      41.802 -13.277   0.446  1.00  0.00     0.157 A 
HETATM    5  N   UNL     1      42.080 -12.089   0.879  1.00  0.00    -0.166 NA
HETATM    6  C   UNL     1      41.622 -13.628  -0.956  1.00  0.00     0.027 A 
HETATM    7  C   UNL     1      41.294 -14.982  -1.000  1.00  0.00     0.050 A 
HETATM    8  C   UNL     1      41.712 -12.834  -2.085  1.00  0.00     0.016 A 
HETATM    9  C   UNL     1      41.459 -13.447  -3.311  1.00  0.00     0.001 A 
HETATM   10  C   UNL     1      41.127 -14.814  -3.375  1.00  0.00     0.002 A 
HETATM   11  C   UNL     1      41.041 -15.595  -2.213  1.00  0.00     0.031 A 
ENDROOT
BRANCH   5  12
HETATM   12  N   UNL     1      42.170 -11.901   2.228  1.00  0.00    -0.245 N 
HETATM   13  C   UNL     1      41.058 -11.431   2.914  1.00  0.00     0.255 C 
HETATM   14  O   UNL     1      39.997 -11.087   2.393  1.00  0.00    -0.270 OA
HETATM   15  H   UNL     1      43.029 -12.156   2.731  1.00  0.00     0.192 HD
BRANCH  13  16
HETATM   16  C   UNL     1      41.250 -11.363   4.424  1.00  0.00     0.227 C 
BRANCH  16  17
HETATM   17  N   UNL     1      41.867 -12.576   4.930  1.00  0.00    -0.348 N 
HETATM   18  C   UNL     1      41.111 -13.622   5.402  1.00  0.00     0.254 C 
HETATM   19  O   UNL     1      39.887 -13.617   5.388  1.00  0.00    -0.268 OA
HETATM   20  H   UNL     1      42.878 -12.588   5.039  1.00  0.00     0.163 HD
BRANCH  18  21
HETATM   21  C   UNL     1      41.867 -14.768   5.963  1.00  0.00     0.065 A 
HETATM   22  C   UNL     1      41.260 -15.981   6.310  1.00  0.00     0.081 A 
HETATM   23  C   UNL     1      42.034 -17.051   6.757  1.00  0.00     0.037 A 
HETATM   24  C   UNL     1      43.415 -16.904   6.890  1.00  0.00     0.003 A 
HETATM   25  C   UNL     1      44.024 -15.687   6.579  1.00  0.00     0.001 A 
HETATM   26  C   UNL     1      43.251 -14.619   6.119  1.00  0.00     0.020 A 
BRANCH  22  27
HETATM   27  O   UNL     1      39.909 -16.192   6.254  1.00  0.00    -0.360 OA
HETATM   28  H   UNL     1      39.713 -17.068   6.636  1.00  0.00     0.217 HD
ENDBRANCH  22  27
ENDBRANCH  18  21
ENDBRANCH  16  17
ENDBRANCH  13  16
ENDBRANCH   5  12
BRANCH   1  29
HETATM   29  C   UNL     1      40.997 -16.908   0.619  1.00  0.00     0.171 C 
BRANCH  29  30
HETATM   30  C   UNL     1      42.068 -17.526   1.487  1.00  0.00    -0.040 A 
HETATM   31  C   UNL     1      43.374 -17.682   0.999  1.00  0.00     0.009 A 
HETATM   32  C   UNL     1      44.367 -18.254   1.797  1.00  0.00     0.001 A 
HETATM   33  C   UNL     1      44.066 -18.675   3.091  1.00  0.00     0.000 A 
HETATM   34  C   UNL     1      42.774 -18.522   3.589  1.00  0.00     0.001 A 
HETATM   35  C   UNL     1      41.781 -17.947   2.793  1.00  0.00     0.009 A 
ENDBRANCH  29  30
ENDBRANCH   1  29
TORSDOF 7
ENDMDL
MODEL 5
REMARK VINA RESULT:      -9.0      4.629      8.842
REMARK  7 active torsions:
REMARK  status: ('A' for Active; 'I' for Inactive)
REMARK    1  A    between atoms: C_4  and  C_5 
REMARK    2  A    between atoms: C_5  and  N_6 
REMARK    3  A    between atoms: N_10  and  N_11 
REMARK       I    between atoms: N_11  and  C_12 
REMARK    4  A    between atoms: C_12  and  C_13 
REMARK    5  A    between atoms: C_13  and  N_14 
REMARK       I    between atoms: N_14  and  C_15 
REMARK    6  A    between atoms: C_15  and  C_16 
REMARK    7  A    between atoms: C_17  and  O_18 
ROOT
HETATM    1  N   UNL     1      41.026 -16.630   4.301  1.00  0.00    -0.307 N 
HETATM    2  C   UNL     1      40.645 -15.417   4.844  1.00  0.00     0.280 A 
HETATM    3  O   UNL     1      40.441 -15.101   5.998  1.00  0.00    -0.265 OA
HETATM    4  C   UNL     1      40.515 -14.460   3.664  1.00  0.00     0.157 A 
HETATM    5  N   UNL     1      40.147 -13.219   3.653  1.00  0.00    -0.166 NA
HETATM    6  C   UNL     1      40.875 -15.229   2.480  1.00  0.00     0.027 A 
HETATM    7  C   UNL     1      41.166 -16.524   2.906  1.00  0.00     0.050 A 
HETATM    8  C   UNL     1      40.920 -14.842   1.154  1.00  0.00     0.016 A 
HETATM    9  C   UNL     1      41.280 -15.814   0.221  1.00  0.00     0.001 A 
HETATM   10  C   UNL     1      41.579 -17.127   0.633  1.00  0.00     0.002 A 
HETATM   11  C   UNL     1      41.523 -17.493   1.986  1.00  0.00     0.031 A 
ENDROOT
BRANCH   5  12
HETATM   12  N   UNL     1      39.790 -12.644   4.839  1.00  0.00    -0.245 N 
HETATM   13  C   UNL     1      40.696 -11.807   5.476  1.00  0.00     0.255 C 
HETATM   14  O   UNL     1      41.848 -11.590   5.098  1.00  0.00    -0.270 OA
HETATM   15  H   UNL     1      38.848 -12.788   5.222  1.00  0.00     0.192 HD
BRANCH  13  16
HETATM   16  C   UNL     1      40.144 -11.146   6.733  1.00  0.00     0.227 C 
BRANCH  16  17
HETATM   17  N   UNL     1      41.058 -11.297   7.850  1.00  0.00    -0.348 N 
HETATM   18  C   UNL     1      41.870 -10.266   8.257  1.00  0.00     0.254 C 
HETATM   19  O   UNL     1      41.846  -9.157   7.740  1.00  0.00    -0.268 OA
HETATM   20  H   UNL     1      41.172 -12.224   8.253  1.00  0.00     0.163 HD
BRANCH  18  21
HETATM   21  C   UNL     1      42.812 -10.577   9.359  1.00  0.00     0.065 A 
HETATM   22  C   UNL     1      43.778 -11.588   9.271  1.00  0.00     0.081 A 
HETATM   23  C   UNL     1      44.688 -11.781  10.308  1.00  0.00     0.037 A 
HETATM   24  C   UNL     1      44.620 -10.987  11.453  1.00  0.00     0.003 A 
HETATM   25  C   UNL     1      43.639 -10.000  11.564  1.00  0.00     0.001 A 
HETATM   26  C   UNL     1      42.734  -9.798  10.520  1.00  0.00     0.020 A 
BRANCH  22  27
HETATM   27  O   UNL     1      43.882 -12.440   8.206  1.00  0.00    -0.360 OA
HETATM   28  H   UNL     1      44.827 -12.565   7.996  1.00  0.00     0.217 HD
ENDBRANCH  22  27
ENDBRANCH  18  21
ENDBRANCH  16  17
ENDBRANCH  13  16
ENDBRANCH   5  12
BRANCH   1  29
HETATM   29  C   UNL     1      41.285 -17.816   5.083  1.00  0.00     0.171 C 
BRANCH  29  30
HETATM   30  C   UNL     1      42.731 -17.936   5.506  1.00  0.00    -0.040 A 
HETATM   31  C   UNL     1      43.254 -17.086   6.492  1.00  0.00     0.009 A 
HETATM   32  C   UNL     1      44.589 -17.191   6.886  1.00  0.00     0.001 A 
HETATM   33  C   UNL     1      45.416 -18.147   6.298  1.00  0.00     0.000 A 
HETATM   34  C   UNL     1      44.908 -19.000   5.321  1.00  0.00     0.001 A 
HETATM   35  C   UNL     1      43.572 -18.898   4.929  1.00  0.00     0.009 A 
ENDBRANCH  29  30
ENDBRANCH   1  29
TORSDOF 7
ENDMDL
MODEL 6
REMARK VINA RESULT:      -9.0      2.839      7.783
REMARK  7 active torsions:
REMARK  status: ('A' for Active; 'I' for Inactive)
REMARK    1  A    between atoms: C_4  and  C_5 
REMARK    2  A    between atoms: C_5  and  N_6 
REMARK    3  A    between atoms: N_10  and  N_11 
REMARK       I    between atoms: N_11  and  C_12 
REMARK    4  A    between atoms: C_12  and  C_13 
REMARK    5  A    between atoms: C_13  and  N_14 
REMARK       I    between atoms: N_14  and  C_15 
REMARK    6  A    between atoms: C_15  and  C_16 
REMARK    7  A    between atoms: C_17  and  O_18 
ROOT
HETATM    1  N   UNL     1      41.688 -16.144   4.752  1.00  0.00    -0.307 N 
HETATM    2  C   UNL     1      41.012 -15.188   4.016  1.00  0.00     0.280 A 
HETATM    3  O   UNL     1      40.132 -15.311   3.189  1.00  0.00    -0.265 OA
HETATM    4  C   UNL     1      41.596 -13.848   4.446  1.00  0.00     0.157 A 
HETATM    5  N   UNL     1      41.319 -12.658   4.017  1.00  0.00    -0.166 NA
HETATM    6  C   UNL     1      42.591 -14.150   5.466  1.00  0.00     0.027 A 
HETATM    7  C   UNL     1      42.619 -15.536   5.613  1.00  0.00     0.050 A 
HETATM    8  C   UNL     1      43.413 -13.298   6.180  1.00  0.00     0.016 A 
HETATM    9  C   UNL     1      44.299 -13.882   7.084  1.00  0.00     0.001 A 
HETATM   10  C   UNL     1      44.340 -15.281   7.247  1.00  0.00     0.002 A 
HETATM   11  C   UNL     1      43.496 -16.122   6.507  1.00  0.00     0.031 A 
ENDROOT
BRANCH   5  12
HETATM   12  N   UNL     1      40.395 -12.535   3.019  1.00  0.00    -0.245 N 
HETATM   13  C   UNL     1      39.134 -12.044   3.330  1.00  0.00     0.255 C 
HETATM   14  O   UNL     1      38.739 -11.776   4.465  1.00  0.00    -0.270 OA
HETATM   15  H   UNL     1      40.650 -12.751   2.047  1.00  0.00     0.192 HD
BRANCH  13  16
HETATM   16  C   UNL     1      38.231 -11.854   2.118  1.00  0.00     0.227 C 
BRANCH  16  17
HETATM   17  N   UNL     1      38.823 -12.434   0.926  1.00  0.00    -0.348 N 
HETATM   18  C   UNL     1      38.282 -13.544   0.324  1.00  0.00     0.254 C 
HETATM   19  O   UNL     1      37.257 -14.082   0.721  1.00  0.00    -0.268 OA
HETATM   20  H   UNL     1      39.720 -12.072   0.613  1.00  0.00     0.163 HD
BRANCH  18  21
HETATM   21  C   UNL     1      39.028 -14.082  -0.839  1.00  0.00     0.065 A 
HETATM   22  C   UNL     1      40.342 -14.557  -0.744  1.00  0.00     0.081 A 
HETATM   23  C   UNL     1      40.965 -15.125  -1.854  1.00  0.00     0.037 A 
HETATM   24  C   UNL     1      40.290 -15.193  -3.073  1.00  0.00     0.003 A 
HETATM   25  C   UNL     1      38.993 -14.690  -3.185  1.00  0.00     0.001 A 
HETATM   26  C   UNL     1      38.364 -14.132  -2.071  1.00  0.00     0.020 A 
BRANCH  22  27
HETATM   27  O   UNL     1      41.090 -14.485   0.399  1.00  0.00    -0.360 OA
HETATM   28  H   UNL     1      40.796 -13.711   0.917  1.00  0.00     0.217 HD
ENDBRANCH  22  27
ENDBRANCH  18  21
ENDBRANCH  16  17
ENDBRANCH  13  16
ENDBRANCH   5  12
BRANCH   1  29
HETATM   29  C   UNL     1      41.423 -17.561   4.669  1.00  0.00     0.171 C 
BRANCH  29  30
HETATM   30  C   UNL     1      42.478 -18.311   3.888  1.00  0.00    -0.040 A 
HETATM   31  C   UNL     1      42.514 -18.232   2.487  1.00  0.00     0.009 A 
HETATM   32  C   UNL     1      43.485 -18.923   1.762  1.00  0.00     0.001 A 
HETATM   33  C   UNL     1      44.431 -19.702   2.427  1.00  0.00     0.000 A 
HETATM   34  C   UNL     1      44.408 -19.786   3.817  1.00  0.00     0.001 A 
HETATM   35  C   UNL     1      43.440 -19.092   4.545  1.00  0.00     0.009 A 
ENDBRANCH  29  30
ENDBRANCH   1  29
TORSDOF 7
ENDMDL
MODEL 7
REMARK VINA RESULT:      -8.8      4.550      8.122
REMARK  7 active torsions:
REMARK  status: ('A' for Active; 'I' for Inactive)
REMARK    1  A    between atoms: C_4  and  C_5 
REMARK    2  A    between atoms: C_5  and  N_6 
REMARK    3  A    between atoms: N_10  and  N_11 
REMARK       I    between atoms: N_11  and  C_12 
REMARK    4  A    between atoms: C_12  and  C_13 
REMARK    5  A    between atoms: C_13  and  N_14 
REMARK       I    between atoms: N_14  and  C_15 
REMARK    6  A    between atoms: C_15  and  C_16 
REMARK    7  A    between atoms: C_17  and  O_18 
ROOT
HETATM    1  N   UNL     1      41.439 -17.049   2.847  1.00  0.00    -0.307 N 
HETATM    2  C   UNL     1      41.544 -16.128   3.873  1.00  0.00     0.280 A 
HETATM    3  O   UNL     1      40.878 -15.144   4.117  1.00  0.00    -0.265 OA
HETATM    4  C   UNL     1      42.726 -16.588   4.720  1.00  0.00     0.157 A 
HETATM    5  N   UNL     1      43.244 -16.036   5.770  1.00  0.00    -0.166 NA
HETATM    6  C   UNL     1      43.215 -17.812   4.099  1.00  0.00     0.027 A 
HETATM    7  C   UNL     1      42.421 -18.047   2.978  1.00  0.00     0.050 A 
HETATM    8  C   UNL     1      44.269 -18.628   4.464  1.00  0.00     0.016 A 
HETATM    9  C   UNL     1      44.523 -19.734   3.655  1.00  0.00     0.001 A 
HETATM   10  C   UNL     1      43.731 -19.989   2.519  1.00  0.00     0.002 A 
HETATM   11  C   UNL     1      42.669 -19.142   2.170  1.00  0.00     0.031 A 
ENDROOT
BRANCH   5  12
HETATM   12  N   UNL     1      42.707 -14.859   6.208  1.00  0.00    -0.245 N 
HETATM   13  C   UNL     1      43.308 -13.666   5.828  1.00  0.00     0.255 C 
HETATM   14  O   UNL     1      44.350 -13.573   5.179  1.00  0.00    -0.270 OA
HETATM   15  H   UNL     1      41.843 -14.859   6.764  1.00  0.00     0.192 HD
BRANCH  13  16
HETATM   16  C   UNL     1      42.558 -12.424   6.293  1.00  0.00     0.227 C 
BRANCH  16  17
HETATM   17  N   UNL     1      42.820 -12.145   7.693  1.00  0.00    -0.348 N 
HETATM   18  C   UNL     1      42.558 -10.912   8.239  1.00  0.00     0.254 C 
HETATM   19  O   UNL     1      42.055  -9.996   7.602  1.00  0.00    -0.268 OA
HETATM   20  H   UNL     1      43.316 -12.847   8.236  1.00  0.00     0.163 HD
BRANCH  18  21
HETATM   21  C   UNL     1      42.945 -10.735   9.659  1.00  0.00     0.065 A 
HETATM   22  C   UNL     1      44.277 -10.607  10.074  1.00  0.00     0.081 A 
HETATM   23  C   UNL     1      44.575 -10.363  11.413  1.00  0.00     0.037 A 
HETATM   24  C   UNL     1      43.546 -10.277  12.352  1.00  0.00     0.003 A 
HETATM   25  C   UNL     1      42.218 -10.438  11.953  1.00  0.00     0.001 A 
HETATM   26  C   UNL     1      41.918 -10.670  10.610  1.00  0.00     0.020 A 
BRANCH  22  27
HETATM   27  O   UNL     1      45.345 -10.725   9.227  1.00  0.00    -0.360 OA
HETATM   28  H   UNL     1      45.068 -11.239   8.444  1.00  0.00     0.217 HD
ENDBRANCH  22  27
ENDBRANCH  18  21
ENDBRANCH  16  17
ENDBRANCH  13  16
ENDBRANCH   5  12
BRANCH   1  29
HETATM   29  C   UNL     1      40.423 -17.001   1.822  1.00  0.00     0.171 C 
BRANCH  29  30
HETATM   30  C   UNL     1      40.487 -15.740   0.991  1.00  0.00    -0.040 A 
HETATM   31  C   UNL     1      41.586 -15.497   0.153  1.00  0.00     0.009 A 
HETATM   32  C   UNL     1      41.651 -14.333  -0.615  1.00  0.00     0.001 A 
HETATM   33  C   UNL     1      40.619 -13.399  -0.553  1.00  0.00     0.000 A 
HETATM   34  C   UNL     1      39.520 -13.629   0.272  1.00  0.00     0.001 A 
HETATM   35  C   UNL     1      39.453 -14.795   1.038  1.00  0.00     0.009 A 
ENDBRANCH  29  30
ENDBRANCH   1  29
TORSDOF 7
ENDMDL
MODEL 8
REMARK VINA RESULT:      -8.8      5.233      9.158
REMARK  7 active torsions:
REMARK  status: ('A' for Active; 'I' for Inactive)
REMARK    1  A    between atoms: C_4  and  C_5 
REMARK    2  A    between atoms: C_5  and  N_6 
REMARK    3  A    between atoms: N_10  and  N_11 
REMARK       I    between atoms: N_11  and  C_12 
REMARK    4  A    between atoms: C_12  and  C_13 
REMARK    5  A    between atoms: C_13  and  N_14 
REMARK       I    between atoms: N_14  and  C_15 
REMARK    6  A    between atoms: C_15  and  C_16 
REMARK    7  A    between atoms: C_17  and  O_18 
ROOT
HETATM    1  N   UNL     1      40.993 -16.559   4.310  1.00  0.00    -0.307 N 
HETATM    2  C   UNL     1      40.556 -15.387   4.902  1.00  0.00     0.280 A 
HETATM    3  O   UNL     1      40.259 -15.153   6.055  1.00  0.00    -0.265 OA
HETATM    4  C   UNL     1      40.506 -14.354   3.782  1.00  0.00     0.157 A 
HETATM    5  N   UNL     1      40.124 -13.118   3.826  1.00  0.00    -0.166 NA
HETATM    6  C   UNL     1      40.966 -15.038   2.581  1.00  0.00     0.027 A 
HETATM    7  C   UNL     1      41.240 -16.357   2.941  1.00  0.00     0.050 A 
HETATM    8  C   UNL     1      41.109 -14.562   1.291  1.00  0.00     0.016 A 
HETATM    9  C   UNL     1      41.552 -15.466   0.327  1.00  0.00     0.001 A 
HETATM   10  C   UNL     1      41.834 -16.801   0.672  1.00  0.00     0.002 A 
HETATM   11  C   UNL     1      41.678 -17.259   1.989  1.00  0.00     0.031 A 
ENDROOT
BRANCH   5  12
HETATM   12  N   UNL     1      39.670 -12.627   5.016  1.00  0.00    -0.245 N 
HETATM   13  C   UNL     1      40.456 -11.716   5.709  1.00  0.00     0.255 C 
HETATM   14  O   UNL     1      41.586 -11.360   5.377  1.00  0.00    -0.270 OA
HETATM   15  H   UNL     1      38.738 -12.889   5.363  1.00  0.00     0.192 HD
BRANCH  13  16
HETATM   16  C   UNL     1      39.795 -11.164   6.966  1.00  0.00     0.227 C 
BRANCH  16  17
HETATM   17  N   UNL     1      40.726 -11.137   8.080  1.00  0.00    -0.348 N 
HETATM   18  C   UNL     1      40.310 -10.838   9.355  1.00  0.00     0.254 C 
HETATM   19  O   UNL     1      39.139 -10.621   9.638  1.00  0.00    -0.268 OA
HETATM   20  H   UNL     1      41.718 -11.227   7.876  1.00  0.00     0.163 HD
BRANCH  18  21
HETATM   21  C   UNL     1      41.373 -10.767  10.385  1.00  0.00     0.065 A 
HETATM   22  C   UNL     1      41.228 -11.313  11.666  1.00  0.00     0.081 A 
HETATM   23  C   UNL     1      42.293 -11.286  12.566  1.00  0.00     0.037 A 
HETATM   24  C   UNL     1      43.498 -10.685  12.202  1.00  0.00     0.003 A 
HETATM   25  C   UNL     1      43.640 -10.108  10.939  1.00  0.00     0.001 A 
HETATM   26  C   UNL     1      42.578 -10.145  10.033  1.00  0.00     0.020 A 
BRANCH  22  27
HETATM   27  O   UNL     1      40.067 -11.877  12.118  1.00  0.00    -0.360 OA
HETATM   28  H   UNL     1      40.260 -12.779  12.437  1.00  0.00     0.217 HD
ENDBRANCH  22  27
ENDBRANCH  18  21
ENDBRANCH  16  17
ENDBRANCH  13  16
ENDBRANCH   5  12
BRANCH   1  29
HETATM   29  C   UNL     1      41.205 -17.793   5.029  1.00  0.00     0.171 C 
BRANCH  29  30
HETATM   30  C   UNL     1      42.607 -17.918   5.579  1.00  0.00    -0.040 A 
HETATM   31  C   UNL     1      42.939 -17.340   6.814  1.00  0.00     0.009 A 
HETATM   32  C   UNL     1      44.233 -17.451   7.325  1.00  0.00     0.001 A 
HETATM   33  C   UNL     1      45.210 -18.141   6.609  1.00  0.00     0.000 A 
HETATM   34  C   UNL     1      44.893 -18.723   5.384  1.00  0.00     0.001 A 
HETATM   35  C   UNL     1      43.598 -18.615   4.872  1.00  0.00     0.009 A 
ENDBRANCH  29  30
ENDBRANCH   1  29
TORSDOF 7
ENDMDL
MODEL 9
REMARK VINA RESULT:      -8.8      2.400      9.327
REMARK  7 active torsions:
REMARK  status: ('A' for Active; 'I' for Inactive)
REMARK    1  A    between atoms: C_4  and  C_5 
REMARK    2  A    between atoms: C_5  and  N_6 
REMARK    3  A    between atoms: N_10  and  N_11 
REMARK       I    between atoms: N_11  and  C_12 
REMARK    4  A    between atoms: C_12  and  C_13 
REMARK    5  A    between atoms: C_13  and  N_14 
REMARK       I    between atoms: N_14  and  C_15 
REMARK    6  A    between atoms: C_15  and  C_16 
REMARK    7  A    between atoms: C_17  and  O_18 
ROOT
HETATM    1  N   UNL     1      42.069 -17.511   4.516  1.00  0.00    -0.307 N 
HETATM    2  C   UNL     1      41.416 -16.961   3.427  1.00  0.00     0.280 A 
HETATM    3  O   UNL     1      40.585 -16.077   3.374  1.00  0.00    -0.265 OA
HETATM    4  C   UNL     1      41.953 -17.701   2.208  1.00  0.00     0.157 A 
HETATM    5  N   UNL     1      41.623 -17.573   0.962  1.00  0.00    -0.166 NA
HETATM    6  C   UNL     1      42.941 -18.646   2.711  1.00  0.00     0.027 A 
HETATM    7  C   UNL     1      42.973 -18.504   4.098  1.00  0.00     0.050 A 
HETATM    8  C   UNL     1      43.719 -19.561   2.027  1.00  0.00     0.016 A 
HETATM    9  C   UNL     1      44.569 -20.363   2.786  1.00  0.00     0.001 A 
HETATM   10  C   UNL     1      44.617 -20.232   4.188  1.00  0.00     0.002 A 
HETATM   11  C   UNL     1      43.813 -19.297   4.856  1.00  0.00     0.031 A 
ENDROOT
BRANCH   5  12
HETATM   12  N   UNL     1      40.641 -16.678   0.646  1.00  0.00    -0.245 N 
HETATM   13  C   UNL     1      41.006 -15.409   0.217  1.00  0.00     0.255 C 
HETATM   14  O   UNL     1      42.160 -14.982   0.168  1.00  0.00    -0.270 OA
HETATM   15  H   UNL     1      39.654 -16.960   0.674  1.00  0.00     0.192 HD
BRANCH  13  16
HETATM   16  C   UNL     1      39.828 -14.539  -0.205  1.00  0.00     0.227 C 
BRANCH  16  17
HETATM   17  N   UNL     1      40.245 -13.505  -1.134  1.00  0.00    -0.348 N 
HETATM   18  C   UNL     1      40.144 -13.681  -2.494  1.00  0.00     0.254 C 
HETATM   19  O   UNL     1      39.665 -14.686  -3.000  1.00  0.00    -0.268 OA
HETATM   20  H   UNL     1      40.726 -12.692  -0.760  1.00  0.00     0.163 HD
BRANCH  18  21
HETATM   21  C   UNL     1      40.678 -12.580  -3.331  1.00  0.00     0.065 A 
HETATM   22  C   UNL     1      42.043 -12.427  -3.606  1.00  0.00     0.081 A 
HETATM   23  C   UNL     1      42.477 -11.420  -4.466  1.00  0.00     0.037 A 
HETATM   24  C   UNL     1      41.554 -10.540  -5.032  1.00  0.00     0.003 A 
HETATM   25  C   UNL     1      40.195 -10.664  -4.736  1.00  0.00     0.001 A 
HETATM   26  C   UNL     1      39.758 -11.680  -3.885  1.00  0.00     0.020 A 
BRANCH  22  27
HETATM   27  O   UNL     1      43.015 -13.216  -3.056  1.00  0.00    -0.360 OA
HETATM   28  H   UNL     1      43.796 -13.206  -3.643  1.00  0.00     0.217 HD
ENDBRANCH  22  27
ENDBRANCH  18  21
ENDBRANCH  16  17
ENDBRANCH  13  16
ENDBRANCH   5  12
BRANCH   1  29
HETATM   29  C   UNL     1      41.871 -17.076   5.878  1.00  0.00     0.171 C 
BRANCH  29  30
HETATM   30  C   UNL     1      42.701 -15.864   6.234  1.00  0.00    -0.040 A 
HETATM   31  C   UNL     1      43.919 -16.014   6.915  1.00  0.00     0.009 A 
HETATM   32  C   UNL     1      44.689 -14.898   7.248  1.00  0.00     0.001 A 
HETATM   33  C   UNL     1      44.250 -13.620   6.905  1.00  0.00     0.000 A 
HETATM   34  C   UNL     1      43.046 -13.458   6.225  1.00  0.00     0.001 A 
HETATM   35  C   UNL     1      42.276 -14.574   5.888  1.00  0.00     0.009 A 
ENDBRANCH  29  30
ENDBRANCH   1  29
TORSDOF 7
ENDMDL
MODEL 10
REMARK VINA RESULT:      -8.7      1.605      4.102
REMARK  7 active torsions:
REMARK  status: ('A' for Active; 'I' for Inactive)
REMARK    1  A    between atoms: C_4  and  C_5 
REMARK    2  A    between atoms: C_5  and  N_6 
REMARK    3  A    between atoms: N_10  and  N_11 
REMARK       I    between atoms: N_11  and  C_12 
REMARK    4  A    between atoms: C_12  and  C_13 
REMARK    5  A    between atoms: C_13  and  N_14 
REMARK       I    between atoms: N_14  and  C_15 
REMARK    6  A    between atoms: C_15  and  C_16 
REMARK    7  A    between atoms: C_17  and  O_18 
ROOT
HETATM    1  N   UNL     1      41.677 -12.993  -1.277  1.00  0.00    -0.307 N 
HETATM    2  C   UNL     1      41.653 -13.487   0.015  1.00  0.00     0.280 A 
HETATM    3  O   UNL     1      42.543 -13.591   0.834  1.00  0.00    -0.265 OA
HETATM    4  C   UNL     1      40.211 -13.913   0.266  1.00  0.00     0.157 A 
HETATM    5  N   UNL     1      39.692 -14.469   1.314  1.00  0.00    -0.166 NA
HETATM    6  C   UNL     1      39.477 -13.589  -0.950  1.00  0.00     0.027 A 
HETATM    7  C   UNL     1      40.394 -13.048  -1.850  1.00  0.00     0.050 A 
HETATM    8  C   UNL     1      38.141 -13.774  -1.253  1.00  0.00     0.016 A 
HETATM    9  C   UNL     1      37.719 -13.387  -2.524  1.00  0.00     0.001 A 
HETATM   10  C   UNL     1      38.632 -12.837  -3.445  1.00  0.00     0.002 A 
HETATM   11  C   UNL     1      39.983 -12.664  -3.112  1.00  0.00     0.031 A 
ENDROOT
BRANCH   5  12
HETATM   12  N   UNL     1      40.517 -14.758   2.362  1.00  0.00    -0.245 N 
HETATM   13  C   UNL     1      40.766 -16.089   2.671  1.00  0.00     0.255 C 
HETATM   14  O   UNL     1      40.237 -17.055   2.121  1.00  0.00    -0.270 OA
HETATM   15  H   UNL     1      40.987 -14.002   2.877  1.00  0.00     0.192 HD
BRANCH  13  16
HETATM   16  C   UNL     1      41.781 -16.281   3.791  1.00  0.00     0.227 C 
BRANCH  16  17
HETATM   17  N   UNL     1      42.338 -17.622   3.770  1.00  0.00    -0.348 N 
HETATM   18  C   UNL     1      43.422 -17.936   2.985  1.00  0.00     0.254 C 
HETATM   19  O   UNL     1      44.005 -17.109   2.297  1.00  0.00    -0.268 OA
HETATM   20  H   UNL     1      41.834 -18.357   4.259  1.00  0.00     0.163 HD
BRANCH  18  21
HETATM   21  C   UNL     1      43.841 -19.358   2.996  1.00  0.00     0.065 A 
HETATM   22  C   UNL     1      44.479 -19.954   4.092  1.00  0.00     0.081 A 
HETATM   23  C   UNL     1      44.778 -21.315   4.075  1.00  0.00     0.037 A 
HETATM   24  C   UNL     1      44.469 -22.082   2.952  1.00  0.00     0.003 A 
HETATM   25  C   UNL     1      43.864 -21.490   1.842  1.00  0.00     0.001 A 
HETATM   26  C   UNL     1      43.553 -20.129   1.863  1.00  0.00     0.020 A 
BRANCH  22  27
HETATM   27  O   UNL     1      44.858 -19.263   5.210  1.00  0.00    -0.360 OA
HETATM   28  H   UNL     1      44.435 -19.673   5.989  1.00  0.00     0.217 HD
ENDBRANCH  22  27
ENDBRANCH  18  21
ENDBRANCH  16  17
ENDBRANCH  13  16
ENDBRANCH   5  12
BRANCH   1  29
HETATM   29  C   UNL     1      42.857 -12.455  -1.911  1.00  0.00     0.171 C 
BRANCH  29  30
HETATM   30  C   UNL     1      42.948 -10.951  -1.803  1.00  0.00    -0.040 A 
HETATM   31  C   UNL     1      43.293 -10.347  -0.584  1.00  0.00     0.009 A 
HETATM   32  C   UNL     1      43.376  -8.957  -0.479  1.00  0.00     0.001 A 
HETATM   33  C   UNL     1      43.116  -8.156  -1.590  1.00  0.00     0.000 A 
HETATM   34  C   UNL     1      42.777  -8.743  -2.806  1.00  0.00     0.001 A 
HETATM   35  C   UNL     1      42.697 -10.133  -2.914  1.00  0.00     0.009 A 
ENDBRANCH  29  30
ENDBRANCH   1  29
TORSDOF 7
ENDMDL
