MODEL 1
REMARK VINA RESULT:      -9.1      0.000      0.000
REMARK  5 active torsions:
REMARK  status: ('A' for Active; 'I' for Inactive)
REMARK    1  A    between atoms: C_9  and  N_10 
REMARK       I    between atoms: N_10  and  C_11 
REMARK    2  A    between atoms: C_11  and  C_12 
REMARK    3  A    between atoms: C_15  and  O_16 
REMARK    4  A    between atoms: O_16  and  C_17 
REMARK    5  A    between atoms: C_17  and  C_18 
ROOT
HETATM    1  C   UNL     1      41.797  -9.420  12.174  1.00  0.00    -0.013 A 
HETATM    2  C   UNL     1      40.498  -9.953  12.294  1.00  0.00     0.053 A 
HETATM    3  C   UNL     1      40.278 -11.313  12.701  1.00  0.00     0.100 C 
HETATM    4  N   UNL     1      40.096 -12.415  13.019  1.00  0.00    -0.191 NA
HETATM    5  C   UNL     1      39.384  -9.152  12.008  1.00  0.00     0.023 A 
HETATM    6  C   UNL     1      39.550  -7.828  11.601  1.00  0.00     0.002 A 
HETATM    7  C   UNL     1      40.829  -7.295  11.477  1.00  0.00     0.001 A 
HETATM    8  C   UNL     1      41.946  -8.083  11.762  1.00  0.00     0.011 A 
ENDROOT
BRANCH   1   9
HETATM    9  C   UNL     1      43.032 -10.248  12.460  1.00  0.00     0.216 C 
BRANCH   9  10
HETATM   10  O   UNL     1      44.050  -9.888  11.527  1.00  0.00    -0.347 OA
BRANCH  10  11
HETATM   11  C   UNL     1      44.312 -10.789  10.533  1.00  0.00     0.069 A 
HETATM   12  C   UNL     1      45.438 -11.605  10.455  1.00  0.00     0.038 A 
HETATM   13  C   UNL     1      45.569 -12.517   9.404  1.00  0.00     0.020 A 
HETATM   14  C   UNL     1      44.571 -12.629   8.427  1.00  0.00     0.032 A 
HETATM   15  C   UNL     1      43.452 -11.791   8.490  1.00  0.00     0.020 A 
HETATM   16  C   UNL     1      43.324 -10.884   9.548  1.00  0.00     0.038 A 
BRANCH  14  17
HETATM   17  C   UNL     1      44.750 -13.660   7.365  1.00  0.00     0.256 C 
HETATM   18  N   UNL     1      43.880 -14.738   7.426  1.00  0.00    -0.323 N 
HETATM   19  H   UNL     1      43.203 -14.740   8.178  1.00  0.00     0.169 HD
HETATM   20  O   UNL     1      45.670 -13.521   6.566  1.00  0.00    -0.267 OA
BRANCH  18  21
HETATM   21  C   UNL     1      43.929 -15.910   6.639  1.00  0.00     0.035 A 
HETATM   22  C   UNL     1      43.194 -16.082   5.464  1.00  0.00     0.039 A 
HETATM   23  C   UNL     1      43.371 -17.240   4.723  1.00  0.00    -0.022 A 
HETATM   24  C   UNL     1      42.748 -17.585   3.415  1.00  0.00     0.274 C 
HETATM   25  C   UNL     1      44.254 -18.237   5.133  1.00  0.00    -0.025 A 
HETATM   26  N   UNL     1      43.181 -19.022   3.145  1.00  0.00    -0.067 N 
HETATM   27  C   UNL     1      43.510 -19.301   1.722  1.00  0.00     0.270 C 
HETATM   28  H   UNL     1      42.386 -19.611   3.423  1.00  0.00     0.280 HD
HETATM   29  C   UNL     1      44.304 -19.336   4.127  1.00  0.00     0.273 C 
HETATM   30  C   UNL     1      44.975 -18.101   6.306  1.00  0.00     0.012 A 
HETATM   31  C   UNL     1      44.805 -16.932   7.058  1.00  0.00     0.030 A 
ENDBRANCH  18  21
ENDBRANCH  14  17
ENDBRANCH  10  11
ENDBRANCH   9  10
ENDBRANCH   1   9
TORSDOF 5
ENDMDL
MODEL 2
REMARK VINA RESULT:      -8.9      8.333     12.128
REMARK  5 active torsions:
REMARK  status: ('A' for Active; 'I' for Inactive)
REMARK    1  A    between atoms: C_9  and  N_10 
REMARK       I    between atoms: N_10  and  C_11 
REMARK    2  A    between atoms: C_11  and  C_12 
REMARK    3  A    between atoms: C_15  and  O_16 
REMARK    4  A    between atoms: O_16  and  C_17 
REMARK    5  A    between atoms: C_17  and  C_18 
ROOT
HETATM    1  C   UNL     1      44.155 -19.850   3.665  1.00  0.00    -0.013 A 
HETATM    2  C   UNL     1      44.395 -20.464   4.911  1.00  0.00     0.053 A 
HETATM    3  C   UNL     1      44.383 -19.713   6.136  1.00  0.00     0.100 C 
HETATM    4  N   UNL     1      44.385 -19.107   7.126  1.00  0.00    -0.191 NA
HETATM    5  C   UNL     1      44.658 -21.840   4.973  1.00  0.00     0.023 A 
HETATM    6  C   UNL     1      44.689 -22.608   3.809  1.00  0.00     0.002 A 
HETATM    7  C   UNL     1      44.455 -22.008   2.576  1.00  0.00     0.001 A 
HETATM    8  C   UNL     1      44.189 -20.640   2.502  1.00  0.00     0.011 A 
ENDROOT
BRANCH   1   9
HETATM    9  C   UNL     1      43.878 -18.366   3.545  1.00  0.00     0.216 C 
BRANCH   9  10
HETATM   10  O   UNL     1      42.467 -18.160   3.589  1.00  0.00    -0.347 OA
BRANCH  10  11
HETATM   11  C   UNL     1      41.934 -17.382   2.600  1.00  0.00     0.069 A 
HETATM   12  C   UNL     1      40.754 -16.648   2.694  1.00  0.00     0.038 A 
HETATM   13  C   UNL     1      40.336 -15.857   1.619  1.00  0.00     0.020 A 
HETATM   14  C   UNL     1      41.099 -15.784   0.446  1.00  0.00     0.032 A 
HETATM   15  C   UNL     1      42.271 -16.542   0.342  1.00  0.00     0.020 A 
HETATM   16  C   UNL     1      42.687 -17.328   1.423  1.00  0.00     0.038 A 
BRANCH  14  17
HETATM   17  C   UNL     1      40.623 -14.879  -0.638  1.00  0.00     0.256 C 
HETATM   18  N   UNL     1      39.285 -14.519  -0.571  1.00  0.00    -0.323 N 
HETATM   19  H   UNL     1      38.745 -14.895   0.197  1.00  0.00     0.169 HD
HETATM   20  O   UNL     1      41.408 -14.572  -1.528  1.00  0.00    -0.267 OA
BRANCH  18  21
HETATM   21  C   UNL     1      38.554 -13.799  -1.542  1.00  0.00     0.035 A 
HETATM   22  C   UNL     1      38.019 -14.382  -2.694  1.00  0.00     0.039 A 
HETATM   23  C   UNL     1      37.250 -13.604  -3.547  1.00  0.00    -0.022 A 
HETATM   24  C   UNL     1      36.533 -14.042  -4.776  1.00  0.00     0.274 C 
HETATM   25  C   UNL     1      37.014 -12.255  -3.285  1.00  0.00    -0.025 A 
HETATM   26  N   UNL     1      35.983 -12.757  -5.384  1.00  0.00    -0.067 N 
HETATM   27  C   UNL     1      34.621 -12.893  -5.966  1.00  0.00     0.270 C 
HETATM   28  H   UNL     1      36.638 -12.498  -6.131  1.00  0.00     0.280 HD
HETATM   29  C   UNL     1      36.109 -11.675  -4.317  1.00  0.00     0.273 C 
HETATM   30  C   UNL     1      37.554 -11.649  -2.164  1.00  0.00     0.012 A 
HETATM   31  C   UNL     1      38.328 -12.430  -1.296  1.00  0.00     0.030 A 
ENDBRANCH  18  21
ENDBRANCH  14  17
ENDBRANCH  10  11
ENDBRANCH   9  10
ENDBRANCH   1   9
TORSDOF 5
ENDMDL
MODEL 3
REMARK VINA RESULT:      -8.6      3.731     11.120
REMARK  5 active torsions:
REMARK  status: ('A' for Active; 'I' for Inactive)
REMARK    1  A    between atoms: C_9  and  N_10 
REMARK       I    between atoms: N_10  and  C_11 
REMARK    2  A    between atoms: C_11  and  C_12 
REMARK    3  A    between atoms: C_15  and  O_16 
REMARK    4  A    between atoms: O_16  and  C_17 
REMARK    5  A    between atoms: C_17  and  C_18 
ROOT
HETATM    1  C   UNL     1      43.547 -18.971   3.152  1.00  0.00    -0.013 A 
HETATM    2  C   UNL     1      44.372 -19.571   4.124  1.00  0.00     0.053 A 
HETATM    3  C   UNL     1      44.784 -18.862   5.304  1.00  0.00     0.100 C 
HETATM    4  N   UNL     1      45.128 -18.289   6.253  1.00  0.00    -0.191 NA
HETATM    5  C   UNL     1      44.815 -20.890   3.949  1.00  0.00     0.023 A 
HETATM    6  C   UNL     1      44.447 -21.615   2.815  1.00  0.00     0.002 A 
HETATM    7  C   UNL     1      43.635 -21.028   1.849  1.00  0.00     0.001 A 
HETATM    8  C   UNL     1      43.186 -19.716   2.015  1.00  0.00     0.011 A 
ENDROOT
BRANCH   1   9
HETATM    9  C   UNL     1      43.054 -17.546   3.291  1.00  0.00     0.216 C 
BRANCH   9  10
HETATM   10  O   UNL     1      41.688 -17.574   3.701  1.00  0.00    -0.347 OA
BRANCH  10  11
HETATM   11  C   UNL     1      41.207 -16.441   4.295  1.00  0.00     0.069 A 
HETATM   12  C   UNL     1      41.291 -16.140   5.653  1.00  0.00     0.038 A 
HETATM   13  C   UNL     1      40.793 -14.924   6.131  1.00  0.00     0.020 A 
HETATM   14  C   UNL     1      40.216 -13.994   5.255  1.00  0.00     0.032 A 
HETATM   15  C   UNL     1      40.107 -14.308   3.896  1.00  0.00     0.020 A 
HETATM   16  C   UNL     1      40.613 -15.524   3.422  1.00  0.00     0.038 A 
BRANCH  14  17
HETATM   17  C   UNL     1      39.755 -12.696   5.824  1.00  0.00     0.256 C 
HETATM   18  N   UNL     1      40.567 -12.153   6.808  1.00  0.00    -0.323 N 
HETATM   19  H   UNL     1      41.396 -12.675   7.060  1.00  0.00     0.169 HD
HETATM   20  O   UNL     1      38.685 -12.238   5.440  1.00  0.00    -0.267 OA
BRANCH  18  21
HETATM   21  C   UNL     1      40.288 -11.020   7.605  1.00  0.00     0.035 A 
HETATM   22  C   UNL     1      39.299 -10.994   8.590  1.00  0.00     0.039 A 
HETATM   23  C   UNL     1      39.156  -9.857   9.370  1.00  0.00    -0.022 A 
HETATM   24  C   UNL     1      38.223  -9.651  10.513  1.00  0.00     0.274 C 
HETATM   25  C   UNL     1      39.968  -8.739   9.182  1.00  0.00    -0.025 A 
HETATM   26  N   UNL     1      38.393  -8.184  10.895  1.00  0.00    -0.067 N 
HETATM   27  C   UNL     1      38.365  -7.930  12.359  1.00  0.00     0.270 C 
HETATM   28  H   UNL     1      37.608  -7.688  10.457  1.00  0.00     0.280 HD
HETATM   29  C   UNL     1      39.652  -7.689  10.191  1.00  0.00     0.273 C 
HETATM   30  C   UNL     1      40.938  -8.732   8.196  1.00  0.00     0.012 A 
HETATM   31  C   UNL     1      41.092  -9.879   7.406  1.00  0.00     0.030 A 
ENDBRANCH  18  21
ENDBRANCH  14  17
ENDBRANCH  10  11
ENDBRANCH   9  10
ENDBRANCH   1   9
TORSDOF 5
ENDMDL
MODEL 4
REMARK VINA RESULT:      -8.6      8.168     12.216
REMARK  5 active torsions:
REMARK  status: ('A' for Active; 'I' for Inactive)
REMARK    1  A    between atoms: C_9  and  N_10 
REMARK       I    between atoms: N_10  and  C_11 
REMARK    2  A    between atoms: C_11  and  C_12 
REMARK    3  A    between atoms: C_15  and  O_16 
REMARK    4  A    between atoms: O_16  and  C_17 
REMARK    5  A    between atoms: C_17  and  C_18 
ROOT
HETATM    1  C   UNL     1      43.850 -19.252   3.232  1.00  0.00    -0.013 A 
HETATM    2  C   UNL     1      44.489 -19.861   4.331  1.00  0.00     0.053 A 
HETATM    3  C   UNL     1      44.820 -19.119   5.516  1.00  0.00     0.100 C 
HETATM    4  N   UNL     1      45.099 -18.519   6.471  1.00  0.00    -0.191 NA
HETATM    5  C   UNL     1      44.823 -21.222   4.281  1.00  0.00     0.023 A 
HETATM    6  C   UNL     1      44.530 -21.981   3.148  1.00  0.00     0.002 A 
HETATM    7  C   UNL     1      43.900 -21.386   2.058  1.00  0.00     0.001 A 
HETATM    8  C   UNL     1      43.562 -20.033   2.098  1.00  0.00     0.011 A 
ENDROOT
BRANCH   1   9
HETATM    9  C   UNL     1      43.482 -17.784   3.234  1.00  0.00     0.216 C 
BRANCH   9  10
HETATM   10  O   UNL     1      42.161 -17.644   2.712  1.00  0.00    -0.347 OA
BRANCH  10  11
HETATM   11  C   UNL     1      41.980 -16.677   1.764  1.00  0.00     0.069 A 
HETATM   12  C   UNL     1      41.493 -16.886   0.475  1.00  0.00     0.038 A 
HETATM   13  C   UNL     1      41.317 -15.802  -0.390  1.00  0.00     0.020 A 
HETATM   14  C   UNL     1      41.616 -14.499   0.028  1.00  0.00     0.032 A 
HETATM   15  C   UNL     1      42.131 -14.291   1.313  1.00  0.00     0.020 A 
HETATM   16  C   UNL     1      42.300 -15.380   2.176  1.00  0.00     0.038 A 
BRANCH  14  17
HETATM   17  C   UNL     1      41.354 -13.385  -0.927  1.00  0.00     0.256 C 
HETATM   18  N   UNL     1      42.476 -12.837  -1.530  1.00  0.00    -0.323 N 
HETATM   19  H   UNL     1      43.373 -13.231  -1.275  1.00  0.00     0.169 HD
HETATM   20  O   UNL     1      40.200 -12.994  -1.065  1.00  0.00    -0.267 OA
BRANCH  18  21
HETATM   21  C   UNL     1      42.520 -11.690  -2.352  1.00  0.00     0.035 A 
HETATM   22  C   UNL     1      42.164 -11.693  -3.702  1.00  0.00     0.039 A 
HETATM   23  C   UNL     1      42.168 -10.497  -4.403  1.00  0.00    -0.022 A 
HETATM   24  C   UNL     1      41.754 -10.270  -5.815  1.00  0.00     0.274 C 
HETATM   25  C   UNL     1      42.533  -9.298  -3.791  1.00  0.00    -0.025 A 
HETATM   26  N   UNL     1      42.103  -8.812  -6.093  1.00  0.00    -0.067 N 
HETATM   27  C   UNL     1      41.101  -8.095  -6.925  1.00  0.00     0.270 C 
HETATM   28  H   UNL     1      42.999  -8.829  -6.595  1.00  0.00     0.280 HD
HETATM   29  C   UNL     1      42.386  -8.161  -4.744  1.00  0.00     0.273 C 
HETATM   30  C   UNL     1      42.914  -9.273  -2.461  1.00  0.00     0.012 A 
HETATM   31  C   UNL     1      42.908 -10.477  -1.746  1.00  0.00     0.030 A 
ENDBRANCH  18  21
ENDBRANCH  14  17
ENDBRANCH  10  11
ENDBRANCH   9  10
ENDBRANCH   1   9
TORSDOF 5
ENDMDL
MODEL 5
REMARK VINA RESULT:      -8.5      7.948     11.055
REMARK  5 active torsions:
REMARK  status: ('A' for Active; 'I' for Inactive)
REMARK    1  A    between atoms: C_9  and  N_10 
REMARK       I    between atoms: N_10  and  C_11 
REMARK    2  A    between atoms: C_11  and  C_12 
REMARK    3  A    between atoms: C_15  and  O_16 
REMARK    4  A    between atoms: O_16  and  C_17 
REMARK    5  A    between atoms: C_17  and  C_18 
ROOT
HETATM    1  C   UNL     1      38.960 -13.431  -3.086  1.00  0.00    -0.013 A 
HETATM    2  C   UNL     1      40.081 -14.220  -3.416  1.00  0.00     0.053 A 
HETATM    3  C   UNL     1      41.421 -13.720  -3.275  1.00  0.00     0.100 C 
HETATM    4  N   UNL     1      42.504 -13.316  -3.172  1.00  0.00    -0.191 NA
HETATM    5  C   UNL     1      39.902 -15.523  -3.901  1.00  0.00     0.023 A 
HETATM    6  C   UNL     1      38.619 -16.047  -4.063  1.00  0.00     0.002 A 
HETATM    7  C   UNL     1      37.507 -15.274  -3.742  1.00  0.00     0.001 A 
HETATM    8  C   UNL     1      37.675 -13.976  -3.256  1.00  0.00     0.011 A 
ENDROOT
BRANCH   1   9
HETATM    9  C   UNL     1      39.102 -12.015  -2.571  1.00  0.00     0.216 C 
BRANCH   9  10
HETATM   10  O   UNL     1      38.779 -12.000  -1.181  1.00  0.00    -0.347 OA
BRANCH  10  11
HETATM   11  C   UNL     1      39.562 -12.769  -0.366  1.00  0.00     0.069 A 
HETATM   12  C   UNL     1      39.186 -13.979   0.212  1.00  0.00     0.038 A 
HETATM   13  C   UNL     1      40.098 -14.691   0.998  1.00  0.00     0.020 A 
HETATM   14  C   UNL     1      41.395 -14.204   1.205  1.00  0.00     0.032 A 
HETATM   15  C   UNL     1      41.764 -12.975   0.646  1.00  0.00     0.020 A 
HETATM   16  C   UNL     1      40.849 -12.270  -0.144  1.00  0.00     0.038 A 
BRANCH  14  17
HETATM   17  C   UNL     1      42.332 -15.039   2.009  1.00  0.00     0.256 C 
HETATM   18  N   UNL     1      42.192 -16.410   1.855  1.00  0.00    -0.323 N 
HETATM   19  H   UNL     1      41.472 -16.730   1.219  1.00  0.00     0.169 HD
HETATM   20  O   UNL     1      43.101 -14.476   2.779  1.00  0.00    -0.267 OA
BRANCH  18  21
HETATM   21  C   UNL     1      42.845 -17.417   2.601  1.00  0.00     0.035 A 
HETATM   22  C   UNL     1      42.698 -17.573   3.981  1.00  0.00     0.039 A 
HETATM   23  C   UNL     1      43.323 -18.640   4.608  1.00  0.00    -0.022 A 
HETATM   24  C   UNL     1      43.235 -19.029   6.043  1.00  0.00     0.274 C 
HETATM   25  C   UNL     1      44.103 -19.548   3.892  1.00  0.00    -0.025 A 
HETATM   26  N   UNL     1      44.228 -20.176   6.197  1.00  0.00    -0.067 N 
HETATM   27  C   UNL     1      43.764 -21.266   7.094  1.00  0.00     0.270 C 
HETATM   28  H   UNL     1      45.078 -19.758   6.594  1.00  0.00     0.280 HD
HETATM   29  C   UNL     1      44.599 -20.630   4.789  1.00  0.00     0.273 C 
HETATM   30  C   UNL     1      44.284 -19.400   2.528  1.00  0.00     0.012 A 
HETATM   31  C   UNL     1      43.652 -18.326   1.887  1.00  0.00     0.030 A 
ENDBRANCH  18  21
ENDBRANCH  14  17
ENDBRANCH  10  11
ENDBRANCH   9  10
ENDBRANCH   1   9
TORSDOF 5
ENDMDL
MODEL 6
REMARK VINA RESULT:      -8.4      2.816      4.222
REMARK  5 active torsions:
REMARK  status: ('A' for Active; 'I' for Inactive)
REMARK    1  A    between atoms: C_9  and  N_10 
REMARK       I    between atoms: N_10  and  C_11 
REMARK    2  A    between atoms: C_11  and  C_12 
REMARK    3  A    between atoms: C_15  and  O_16 
REMARK    4  A    between atoms: O_16  and  C_17 
REMARK    5  A    between atoms: C_17  and  C_18 
ROOT
HETATM    1  C   UNL     1      41.108  -9.941   9.025  1.00  0.00    -0.013 A 
HETATM    2  C   UNL     1      42.069 -10.559   9.850  1.00  0.00     0.053 A 
HETATM    3  C   UNL     1      43.370 -10.913   9.355  1.00  0.00     0.100 C 
HETATM    4  N   UNL     1      44.419 -11.211   8.955  1.00  0.00    -0.191 NA
HETATM    5  C   UNL     1      41.762 -10.847  11.187  1.00  0.00     0.023 A 
HETATM    6  C   UNL     1      40.508 -10.529  11.710  1.00  0.00     0.002 A 
HETATM    7  C   UNL     1      39.553  -9.921  10.900  1.00  0.00     0.001 A 
HETATM    8  C   UNL     1      39.849  -9.628   9.568  1.00  0.00     0.011 A 
ENDROOT
BRANCH   1   9
HETATM    9  C   UNL     1      41.388  -9.622   7.572  1.00  0.00     0.216 C 
BRANCH   9  10
HETATM   10  O   UNL     1      40.436 -10.310   6.761  1.00  0.00    -0.347 OA
BRANCH  10  11
HETATM   11  C   UNL     1      40.778 -11.571   6.359  1.00  0.00     0.069 A 
HETATM   12  C   UNL     1      42.074 -12.023   6.124  1.00  0.00     0.038 A 
HETATM   13  C   UNL     1      42.294 -13.353   5.752  1.00  0.00     0.020 A 
HETATM   14  C   UNL     1      41.221 -14.245   5.623  1.00  0.00     0.032 A 
HETATM   15  C   UNL     1      39.916 -13.784   5.833  1.00  0.00     0.020 A 
HETATM   16  C   UNL     1      39.703 -12.453   6.210  1.00  0.00     0.038 A 
BRANCH  14  17
HETATM   17  C   UNL     1      41.531 -15.661   5.277  1.00  0.00     0.256 C 
HETATM   18  N   UNL     1      42.713 -15.861   4.580  1.00  0.00    -0.323 N 
HETATM   19  H   UNL     1      43.263 -15.039   4.362  1.00  0.00     0.169 HD
HETATM   20  O   UNL     1      40.713 -16.526   5.569  1.00  0.00    -0.267 OA
BRANCH  18  21
HETATM   21  C   UNL     1      43.165 -17.071   4.009  1.00  0.00     0.035 A 
HETATM   22  C   UNL     1      43.746 -18.104   4.749  1.00  0.00     0.039 A 
HETATM   23  C   UNL     1      44.086 -19.284   4.106  1.00  0.00    -0.022 A 
HETATM   24  C   UNL     1      44.642 -20.523   4.716  1.00  0.00     0.274 C 
HETATM   25  C   UNL     1      43.873 -19.454   2.738  1.00  0.00    -0.025 A 
HETATM   26  N   UNL     1      44.956 -21.433   3.533  1.00  0.00    -0.067 N 
HETATM   27  C   UNL     1      44.647 -22.868   3.770  1.00  0.00     0.270 C 
HETATM   28  H   UNL     1      45.964 -21.334   3.364  1.00  0.00     0.280 HD
HETATM   29  C   UNL     1      44.261 -20.829   2.317  1.00  0.00     0.273 C 
HETATM   30  C   UNL     1      43.321 -18.437   1.979  1.00  0.00     0.012 A 
HETATM   31  C   UNL     1      42.971 -17.243   2.623  1.00  0.00     0.030 A 
ENDBRANCH  18  21
ENDBRANCH  14  17
ENDBRANCH  10  11
ENDBRANCH   9  10
ENDBRANCH   1   9
TORSDOF 5
ENDMDL
MODEL 7
REMARK VINA RESULT:      -8.3      8.313     11.311
REMARK  5 active torsions:
REMARK  status: ('A' for Active; 'I' for Inactive)
REMARK    1  A    between atoms: C_9  and  N_10 
REMARK       I    between atoms: N_10  and  C_11 
REMARK    2  A    between atoms: C_11  and  C_12 
REMARK    3  A    between atoms: C_15  and  O_16 
REMARK    4  A    between atoms: O_16  and  C_17 
REMARK    5  A    between atoms: C_17  and  C_18 
ROOT
HETATM    1  C   UNL     1      42.464 -10.670  -3.322  1.00  0.00    -0.013 A 
HETATM    2  C   UNL     1      42.020  -9.654  -4.192  1.00  0.00     0.053 A 
HETATM    3  C   UNL     1      41.315  -9.958  -5.407  1.00  0.00     0.100 C 
HETATM    4  N   UNL     1      40.755 -10.201  -6.395  1.00  0.00    -0.191 NA
HETATM    5  C   UNL     1      42.268  -8.310  -3.882  1.00  0.00     0.023 A 
HETATM    6  C   UNL     1      42.956  -7.967  -2.718  1.00  0.00     0.002 A 
HETATM    7  C   UNL     1      43.400  -8.965  -1.856  1.00  0.00     0.001 A 
HETATM    8  C   UNL     1      43.156 -10.307  -2.153  1.00  0.00     0.011 A 
ENDROOT
BRANCH   1   9
HETATM    9  C   UNL     1      42.231 -12.137  -3.620  1.00  0.00     0.216 C 
BRANCH   9  10
HETATM   10  O   UNL     1      41.017 -12.542  -2.990  1.00  0.00    -0.347 OA
BRANCH  10  11
HETATM   11  C   UNL     1      41.103 -13.594  -2.122  1.00  0.00     0.069 A 
HETATM   12  C   UNL     1      40.942 -14.937  -2.455  1.00  0.00     0.038 A 
HETATM   13  C   UNL     1      41.094 -15.923  -1.476  1.00  0.00     0.020 A 
HETATM   14  C   UNL     1      41.419 -15.578  -0.158  1.00  0.00     0.032 A 
HETATM   15  C   UNL     1      41.555 -14.227   0.184  1.00  0.00     0.020 A 
HETATM   16  C   UNL     1      41.407 -13.244  -0.802  1.00  0.00     0.038 A 
BRANCH  14  17
HETATM   17  C   UNL     1      41.620 -16.683   0.822  1.00  0.00     0.256 C 
HETATM   18  N   UNL     1      42.810 -16.641   1.533  1.00  0.00    -0.323 N 
HETATM   19  H   UNL     1      43.440 -15.875   1.332  1.00  0.00     0.169 HD
HETATM   20  O   UNL     1      40.773 -17.566   0.887  1.00  0.00    -0.267 OA
BRANCH  18  21
HETATM   21  C   UNL     1      43.308 -17.633   2.406  1.00  0.00     0.035 A 
HETATM   22  C   UNL     1      43.095 -17.625   3.787  1.00  0.00     0.039 A 
HETATM   23  C   UNL     1      43.561 -18.687   4.546  1.00  0.00    -0.022 A 
HETATM   24  C   UNL     1      43.376 -18.909   6.007  1.00  0.00     0.274 C 
HETATM   25  C   UNL     1      44.248 -19.751   3.963  1.00  0.00    -0.025 A 
HETATM   26  N   UNL     1      44.215 -20.143   6.322  1.00  0.00    -0.067 N 
HETATM   27  C   UNL     1      43.589 -21.070   7.302  1.00  0.00     0.270 C 
HETATM   28  H   UNL     1      45.095 -19.790   6.716  1.00  0.00     0.280 HD
HETATM   29  C   UNL     1      44.576 -20.783   4.987  1.00  0.00     0.273 C 
HETATM   30  C   UNL     1      44.494 -19.770   2.602  1.00  0.00     0.012 A 
HETATM   31  C   UNL     1      44.022 -18.702   1.827  1.00  0.00     0.030 A 
ENDBRANCH  18  21
ENDBRANCH  14  17
ENDBRANCH  10  11
ENDBRANCH   9  10
ENDBRANCH   1   9
TORSDOF 5
ENDMDL
MODEL 8
REMARK VINA RESULT:      -8.2      8.659     12.141
REMARK  5 active torsions:
REMARK  status: ('A' for Active; 'I' for Inactive)
REMARK    1  A    between atoms: C_9  and  N_10 
REMARK       I    between atoms: N_10  and  C_11 
REMARK    2  A    between atoms: C_11  and  C_12 
REMARK    3  A    between atoms: C_15  and  O_16 
REMARK    4  A    between atoms: O_16  and  C_17 
REMARK    5  A    between atoms: C_17  and  C_18 
ROOT
HETATM    1  C   UNL     1      44.165 -19.827   3.923  1.00  0.00    -0.013 A 
HETATM    2  C   UNL     1      44.364 -21.211   3.749  1.00  0.00     0.053 A 
HETATM    3  C   UNL     1      44.438 -21.802   2.442  1.00  0.00     0.100 C 
HETATM    4  N   UNL     1      44.487 -22.285   1.387  1.00  0.00    -0.191 NA
HETATM    5  C   UNL     1      44.490 -22.046   4.868  1.00  0.00     0.023 A 
HETATM    6  C   UNL     1      44.417 -21.518   6.157  1.00  0.00     0.002 A 
HETATM    7  C   UNL     1      44.218 -20.152   6.337  1.00  0.00     0.001 A 
HETATM    8  C   UNL     1      44.093 -19.311   5.230  1.00  0.00     0.011 A 
ENDROOT
BRANCH   1   9
HETATM    9  C   UNL     1      44.011 -18.886   2.746  1.00  0.00     0.216 C 
BRANCH   9  10
HETATM   10  O   UNL     1      43.601 -17.609   3.233  1.00  0.00    -0.347 OA
BRANCH  10  11
HETATM   11  C   UNL     1      42.591 -16.993   2.549  1.00  0.00     0.069 A 
HETATM   12  C   UNL     1      41.265 -16.904   2.968  1.00  0.00     0.038 A 
HETATM   13  C   UNL     1      40.333 -16.208   2.192  1.00  0.00     0.020 A 
HETATM   14  C   UNL     1      40.719 -15.587   0.997  1.00  0.00     0.032 A 
HETATM   15  C   UNL     1      42.045 -15.698   0.563  1.00  0.00     0.020 A 
HETATM   16  C   UNL     1      42.975 -16.391   1.347  1.00  0.00     0.038 A 
BRANCH  14  17
HETATM   17  C   UNL     1      39.686 -14.816   0.248  1.00  0.00     0.256 C 
HETATM   18  N   UNL     1      39.823 -14.818  -1.132  1.00  0.00    -0.323 N 
HETATM   19  H   UNL     1      40.605 -15.334  -1.516  1.00  0.00     0.169 HD
HETATM   20  O   UNL     1      38.843 -14.198   0.886  1.00  0.00    -0.267 OA
BRANCH  18  21
HETATM   21  C   UNL     1      39.076 -14.057  -2.058  1.00  0.00     0.035 A 
HETATM   22  C   UNL     1      38.113 -14.605  -2.909  1.00  0.00     0.039 A 
HETATM   23  C   UNL     1      37.379 -13.760  -3.727  1.00  0.00    -0.022 A 
HETATM   24  C   UNL     1      36.265 -14.126  -4.645  1.00  0.00     0.274 C 
HETATM   25  C   UNL     1      37.592 -12.382  -3.726  1.00  0.00    -0.025 A 
HETATM   26  N   UNL     1      35.935 -12.837  -5.390  1.00  0.00    -0.067 N 
HETATM   27  C   UNL     1      34.482 -12.623  -5.620  1.00  0.00     0.270 C 
HETATM   28  H   UNL     1      36.407 -12.911  -6.298  1.00  0.00     0.280 HD
HETATM   29  C   UNL     1      36.630 -11.705  -4.641  1.00  0.00     0.273 C 
HETATM   30  C   UNL     1      38.558 -11.818  -2.911  1.00  0.00     0.012 A 
HETATM   31  C   UNL     1      39.300 -12.665  -2.078  1.00  0.00     0.030 A 
ENDBRANCH  18  21
ENDBRANCH  14  17
ENDBRANCH  10  11
ENDBRANCH   9  10
ENDBRANCH   1   9
TORSDOF 5
ENDMDL
MODEL 9
REMARK VINA RESULT:      -8.2      7.634     11.534
REMARK  5 active torsions:
REMARK  status: ('A' for Active; 'I' for Inactive)
REMARK    1  A    between atoms: C_9  and  N_10 
REMARK       I    between atoms: N_10  and  C_11 
REMARK    2  A    between atoms: C_11  and  C_12 
REMARK    3  A    between atoms: C_15  and  O_16 
REMARK    4  A    between atoms: O_16  and  C_17 
REMARK    5  A    between atoms: C_17  and  C_18 
ROOT
HETATM    1  C   UNL     1      44.275 -19.945   4.194  1.00  0.00    -0.013 A 
HETATM    2  C   UNL     1      44.249 -20.918   5.213  1.00  0.00     0.053 A 
HETATM    3  C   UNL     1      44.017 -20.564   6.586  1.00  0.00     0.100 C 
HETATM    4  N   UNL     1      43.840 -20.280   7.698  1.00  0.00    -0.191 NA
HETATM    5  C   UNL     1      44.458 -22.268   4.898  1.00  0.00     0.023 A 
HETATM    6  C   UNL     1      44.696 -22.658   3.580  1.00  0.00     0.002 A 
HETATM    7  C   UNL     1      44.726 -21.703   2.569  1.00  0.00     0.001 A 
HETATM    8  C   UNL     1      44.517 -20.356   2.871  1.00  0.00     0.011 A 
ENDROOT
BRANCH   1   9
HETATM    9  C   UNL     1      44.067 -18.474   4.486  1.00  0.00     0.216 C 
BRANCH   9  10
HETATM   10  O   UNL     1      42.692 -18.157   4.277  1.00  0.00    -0.347 OA
BRANCH  10  11
HETATM   11  C   UNL     1      42.421 -17.225   3.316  1.00  0.00     0.069 A 
HETATM   12  C   UNL     1      41.801 -17.476   2.094  1.00  0.00     0.038 A 
HETATM   13  C   UNL     1      41.545 -16.422   1.211  1.00  0.00     0.020 A 
HETATM   14  C   UNL     1      41.896 -15.108   1.545  1.00  0.00     0.032 A 
HETATM   15  C   UNL     1      42.542 -14.859   2.761  1.00  0.00     0.020 A 
HETATM   16  C   UNL     1      42.791 -15.916   3.644  1.00  0.00     0.038 A 
BRANCH  14  17
HETATM   17  C   UNL     1      41.544 -14.027   0.581  1.00  0.00     0.256 C 
HETATM   18  N   UNL     1      41.619 -14.375  -0.759  1.00  0.00    -0.323 N 
HETATM   19  H   UNL     1      41.905 -15.322  -0.974  1.00  0.00     0.169 HD
HETATM   20  O   UNL     1      41.280 -12.915   1.023  1.00  0.00    -0.267 OA
BRANCH  18  21
HETATM   21  C   UNL     1      41.482 -13.509  -1.867  1.00  0.00     0.035 A 
HETATM   22  C   UNL     1      40.248 -13.112  -2.388  1.00  0.00     0.039 A 
HETATM   23  C   UNL     1      40.221 -12.198  -3.430  1.00  0.00    -0.022 A 
HETATM   24  C   UNL     1      39.023 -11.592  -4.075  1.00  0.00     0.274 C 
HETATM   25  C   UNL     1      41.395 -11.679  -3.973  1.00  0.00    -0.025 A 
HETATM   26  N   UNL     1      39.577 -10.782  -5.242  1.00  0.00    -0.067 N 
HETATM   27  C   UNL     1      38.890  -9.482  -5.461  1.00  0.00     0.270 C 
HETATM   28  H   UNL     1      39.451 -11.369  -6.075  1.00  0.00     0.280 HD
HETATM   29  C   UNL     1      41.083 -10.673  -5.027  1.00  0.00     0.273 C 
HETATM   30  C   UNL     1      42.630 -12.075  -3.490  1.00  0.00     0.012 A 
HETATM   31  C   UNL     1      42.666 -12.996  -2.435  1.00  0.00     0.030 A 
ENDBRANCH  18  21
ENDBRANCH  14  17
ENDBRANCH  10  11
ENDBRANCH   9  10
ENDBRANCH   1   9
TORSDOF 5
ENDMDL
MODEL 10
REMARK VINA RESULT:      -8.1      2.905      3.756
REMARK  5 active torsions:
REMARK  status: ('A' for Active; 'I' for Inactive)
REMARK    1  A    between atoms: C_9  and  N_10 
REMARK       I    between atoms: N_10  and  C_11 
REMARK    2  A    between atoms: C_11  and  C_12 
REMARK    3  A    between atoms: C_15  and  O_16 
REMARK    4  A    between atoms: O_16  and  C_17 
REMARK    5  A    between atoms: C_17  and  C_18 
ROOT
HETATM    1  C   UNL     1      40.736  -9.103  12.722  1.00  0.00    -0.013 A 
HETATM    2  C   UNL     1      41.256 -10.348  13.127  1.00  0.00     0.053 A 
HETATM    3  C   UNL     1      40.477 -11.552  13.044  1.00  0.00     0.100 C 
HETATM    4  N   UNL     1      39.846 -12.526  12.988  1.00  0.00    -0.191 NA
HETATM    5  C   UNL     1      42.562 -10.431  13.632  1.00  0.00     0.023 A 
HETATM    6  C   UNL     1      43.353  -9.287  13.739  1.00  0.00     0.002 A 
HETATM    7  C   UNL     1      42.845  -8.053  13.343  1.00  0.00     0.001 A 
HETATM    8  C   UNL     1      41.548  -7.960  12.837  1.00  0.00     0.011 A 
ENDROOT
BRANCH   1   9
HETATM    9  C   UNL     1      39.328  -8.960  12.183  1.00  0.00     0.216 C 
BRANCH   9  10
HETATM   10  O   UNL     1      39.395  -8.384  10.880  1.00  0.00    -0.347 OA
BRANCH  10  11
HETATM   11  C   UNL     1      39.728  -9.227   9.857  1.00  0.00     0.069 A 
HETATM   12  C   UNL     1      39.058 -10.402   9.524  1.00  0.00     0.038 A 
HETATM   13  C   UNL     1      39.478 -11.158   8.425  1.00  0.00     0.020 A 
HETATM   14  C   UNL     1      40.563 -10.741   7.643  1.00  0.00     0.032 A 
HETATM   15  C   UNL     1      41.253  -9.575   7.993  1.00  0.00     0.020 A 
HETATM   16  C   UNL     1      40.825  -8.819   9.091  1.00  0.00     0.038 A 
BRANCH  14  17
HETATM   17  C   UNL     1      40.922 -11.566   6.455  1.00  0.00     0.256 C 
HETATM   18  N   UNL     1      40.773 -12.936   6.612  1.00  0.00    -0.323 N 
HETATM   19  H   UNL     1      40.438 -13.262   7.509  1.00  0.00     0.169 HD
HETATM   20  O   UNL     1      41.373 -11.000   5.466  1.00  0.00    -0.267 OA
BRANCH  18  21
HETATM   21  C   UNL     1      41.176 -13.940   5.704  1.00  0.00     0.035 A 
HETATM   22  C   UNL     1      40.379 -14.392   4.649  1.00  0.00     0.039 A 
HETATM   23  C   UNL     1      40.898 -15.328   3.767  1.00  0.00    -0.022 A 
HETATM   24  C   UNL     1      40.251 -15.880   2.545  1.00  0.00     0.274 C 
HETATM   25  C   UNL     1      42.188 -15.834   3.920  1.00  0.00    -0.025 A 
HETATM   26  N   UNL     1      41.206 -16.962   2.054  1.00  0.00    -0.067 N 
HETATM   27  C   UNL     1      41.345 -17.026   0.575  1.00  0.00     0.270 C 
HETATM   28  H   UNL     1      40.817 -17.852   2.389  1.00  0.00     0.280 HD
HETATM   29  C   UNL     1      42.519 -16.765   2.805  1.00  0.00     0.273 C 
HETATM   30  C   UNL     1      42.987 -15.420   4.971  1.00  0.00     0.012 A 
HETATM   31  C   UNL     1      42.472 -14.472   5.864  1.00  0.00     0.030 A 
ENDBRANCH  18  21
ENDBRANCH  14  17
ENDBRANCH  10  11
ENDBRANCH   9  10
ENDBRANCH   1   9
TORSDOF 5
ENDMDL
