MODEL 1
REMARK VINA RESULT:      -8.5      0.000      0.000
REMARK  4 active torsions:
REMARK  status: ('A' for Active; 'I' for Inactive)
REMARK    1  A    between atoms: C_7  and  C_8 
REMARK    2  A    between atoms: C_8  and  N_9 
REMARK    3  A    between atoms: N_15  and  C_17 
REMARK    4  A    between atoms: C_21  and  C_22 
ROOT
HETATM    1  N   UNL     1      40.236 -14.024   1.876  1.00  0.00    -0.067 N 
HETATM    2  H   UNL     1      39.861 -13.085   2.075  1.00  0.00     0.280 HD
HETATM    3  C   UNL     1      40.029 -14.816   3.135  1.00  0.00     0.236 C 
HETATM    4  C   UNL     1      40.742 -16.168   3.059  1.00  0.00     0.039 C 
HETATM    5  C   UNL     1      42.254 -16.073   2.708  1.00  0.00    -0.013 C 
HETATM    6  C   UNL     1      43.100 -15.498   3.877  1.00  0.00     0.245 C 
HETATM    7  N   UNL     1      43.155 -16.450   5.048  1.00  0.00    -0.065 N 
HETATM    8  H   UNL     1      42.210 -16.653   5.402  1.00  0.00     0.280 HD
HETATM    9  C   UNL     1      43.773 -17.792   4.674  1.00  0.00     0.244 C 
HETATM   10  C   UNL     1      42.950 -18.431   3.548  1.00  0.00     0.045 C 
HETATM   11  C   UNL     1      42.818 -17.479   2.345  1.00  0.00     0.022 C 
HETATM   12  C   UNL     1      42.399 -15.173   1.444  1.00  0.00     0.039 C 
HETATM   13  C   UNL     1      41.680 -13.829   1.527  1.00  0.00     0.236 C 
ENDROOT
BRANCH   7  14
HETATM   14  C   UNL     1      43.905 -15.850   6.205  1.00  0.00     0.188 A 
HETATM   15  C   UNL     1      43.479 -16.276   7.582  1.00  0.00     0.035 A 
HETATM   16  C   UNL     1      44.773 -16.778   7.006  1.00  0.00     0.035 A 
ENDBRANCH   7  14
BRANCH  10  17
HETATM   17  C   UNL     1      43.538 -19.768   3.144  1.00  0.00    -0.052 A 
HETATM   18  C   UNL     1      43.204 -20.327   1.900  1.00  0.00     0.007 A 
HETATM   19  C   UNL     1      43.720 -21.566   1.516  1.00  0.00     0.001 A 
HETATM   20  C   UNL     1      44.575 -22.262   2.365  1.00  0.00     0.000 A 
HETATM   21  C   UNL     1      44.919 -21.721   3.600  1.00  0.00     0.001 A 
HETATM   22  C   UNL     1      44.406 -20.482   3.989  1.00  0.00     0.007 A 
ENDBRANCH  10  17
BRANCH   1  23
HETATM   23  C   UNL     1      39.369 -14.460   0.693  1.00  0.00     0.277 C 
BRANCH  23  24
HETATM   24  C   UNL     1      39.633 -13.628  -0.504  1.00  0.00     0.011 A 
HETATM   25  C   UNL     1      40.301 -13.962  -1.677  1.00  0.00     0.035 A 
HETATM   26  C   UNL     1      40.893 -15.242  -2.150  1.00  0.00     0.070 C 
HETATM   27  N   UNL     1      40.309 -12.814  -2.441  1.00  0.00    -0.278 N 
HETATM   28  C   UNL     1      40.866 -12.607  -3.761  1.00  0.00     0.179 C 
HETATM   29  N   UNL     1      39.715 -11.779  -1.827  1.00  0.00    -0.185 NA
HETATM   30  C   UNL     1      39.253 -12.282  -0.689  1.00  0.00     0.149 A 
ENDBRANCH  23  24
ENDBRANCH   1  23
TORSDOF 4
ENDMDL
MODEL 2
REMARK VINA RESULT:      -8.4      3.210      6.876
REMARK  4 active torsions:
REMARK  status: ('A' for Active; 'I' for Inactive)
REMARK    1  A    between atoms: C_7  and  C_8 
REMARK    2  A    between atoms: C_8  and  N_9 
REMARK    3  A    between atoms: N_15  and  C_17 
REMARK    4  A    between atoms: C_21  and  C_22 
ROOT
HETATM    1  N   UNL     1      42.747 -13.355   5.685  1.00  0.00    -0.067 N 
HETATM    2  H   UNL     1      42.432 -12.374   5.732  1.00  0.00     0.280 HD
HETATM    3  C   UNL     1      43.342 -13.522   4.316  1.00  0.00     0.236 C 
HETATM    4  C   UNL     1      43.649 -14.993   4.025  1.00  0.00     0.039 C 
HETATM    5  C   UNL     1      42.439 -15.949   4.220  1.00  0.00    -0.013 C 
HETATM    6  C   UNL     1      41.360 -15.776   3.115  1.00  0.00     0.245 C 
HETATM    7  N   UNL     1      41.860 -16.246   1.770  1.00  0.00    -0.065 N 
HETATM    8  H   UNL     1      42.701 -15.725   1.486  1.00  0.00     0.280 HD
HETATM    9  C   UNL     1      42.250 -17.720   1.781  1.00  0.00     0.244 C 
HETATM   10  C   UNL     1      43.349 -17.944   2.828  1.00  0.00     0.045 C 
HETATM   11  C   UNL     1      42.911 -17.433   4.213  1.00  0.00     0.022 C 
HETATM   12  C   UNL     1      41.823 -15.664   5.624  1.00  0.00     0.039 C 
HETATM   13  C   UNL     1      41.525 -14.193   5.907  1.00  0.00     0.236 C 
ENDROOT
BRANCH   7  14
HETATM   14  C   UNL     1      40.841 -15.998   0.692  1.00  0.00     0.188 A 
HETATM   15  C   UNL     1      41.046 -14.782  -0.165  1.00  0.00     0.035 A 
HETATM   16  C   UNL     1      41.304 -16.150  -0.728  1.00  0.00     0.035 A 
ENDBRANCH   7  14
BRANCH  10  17
HETATM   17  C   UNL     1      43.761 -19.402   2.871  1.00  0.00    -0.052 A 
HETATM   18  C   UNL     1      43.430 -20.249   1.802  1.00  0.00     0.007 A 
HETATM   19  C   UNL     1      43.784 -21.600   1.829  1.00  0.00     0.001 A 
HETATM   20  C   UNL     1      44.471 -22.122   2.921  1.00  0.00     0.000 A 
HETATM   21  C   UNL     1      44.808 -21.294   3.988  1.00  0.00     0.001 A 
HETATM   22  C   UNL     1      44.458 -19.943   3.965  1.00  0.00     0.007 A 
ENDBRANCH  10  17
BRANCH   1  23
HETATM   23  C   UNL     1      43.753 -13.414   6.835  1.00  0.00     0.277 C 
BRANCH  23  24
HETATM   24  C   UNL     1      43.555 -12.291   7.782  1.00  0.00     0.011 A 
HETATM   25  C   UNL     1      44.289 -11.956   8.914  1.00  0.00     0.035 A 
HETATM   26  C   UNL     1      45.524 -12.538   9.503  1.00  0.00     0.070 C 
HETATM   27  N   UNL     1      43.654 -10.859   9.458  1.00  0.00    -0.278 N 
HETATM   28  C   UNL     1      44.007 -10.100  10.639  1.00  0.00     0.179 C 
HETATM   29  N   UNL     1      42.565 -10.495   8.764  1.00  0.00    -0.185 NA
HETATM   30  C   UNL     1      42.538 -11.315   7.721  1.00  0.00     0.149 A 
ENDBRANCH  23  24
ENDBRANCH   1  23
TORSDOF 4
ENDMDL
MODEL 3
REMARK VINA RESULT:      -8.2      1.958      2.480
REMARK  4 active torsions:
REMARK  status: ('A' for Active; 'I' for Inactive)
REMARK    1  A    between atoms: C_7  and  C_8 
REMARK    2  A    between atoms: C_8  and  N_9 
REMARK    3  A    between atoms: N_15  and  C_17 
REMARK    4  A    between atoms: C_21  and  C_22 
ROOT
HETATM    1  N   UNL     1      41.011 -13.864   2.942  1.00  0.00    -0.067 N 
HETATM    2  H   UNL     1      40.695 -12.948   3.296  1.00  0.00     0.280 HD
HETATM    3  C   UNL     1      40.609 -14.861   3.990  1.00  0.00     0.236 C 
HETATM    4  C   UNL     1      41.214 -16.238   3.702  1.00  0.00     0.039 C 
HETATM    5  C   UNL     1      42.757 -16.229   3.512  1.00  0.00    -0.013 C 
HETATM    6  C   UNL     1      43.518 -15.981   4.844  1.00  0.00     0.245 C 
HETATM    7  N   UNL     1      43.371 -17.145   5.796  1.00  0.00    -0.065 N 
HETATM    8  H   UNL     1      42.380 -17.316   6.016  1.00  0.00     0.280 HD
HETATM    9  C   UNL     1      43.914 -18.443   5.211  1.00  0.00     0.244 C 
HETATM   10  C   UNL     1      43.165 -18.763   3.910  1.00  0.00     0.045 C 
HETATM   11  C   UNL     1      43.239 -17.586   2.920  1.00  0.00     0.022 C 
HETATM   12  C   UNL     1      43.108 -15.119   2.476  1.00  0.00     0.039 C 
HETATM   13  C   UNL     1      42.495 -13.751   2.769  1.00  0.00     0.236 C 
ENDROOT
BRANCH   7  14
HETATM   14  C   UNL     1      44.040 -16.861   7.112  1.00  0.00     0.188 A 
HETATM   15  C   UNL     1      43.278 -17.233   8.352  1.00  0.00     0.035 A 
HETATM   16  C   UNL     1      44.465 -18.048   7.927  1.00  0.00     0.035 A 
ENDBRANCH   7  14
BRANCH  10  17
HETATM   17  C   UNL     1      43.682 -20.048   3.295  1.00  0.00    -0.052 A 
HETATM   18  C   UNL     1      44.490 -20.908   4.057  1.00  0.00     0.007 A 
HETATM   19  C   UNL     1      44.992 -22.087   3.505  1.00  0.00     0.001 A 
HETATM   20  C   UNL     1      44.695 -22.426   2.188  1.00  0.00     0.000 A 
HETATM   21  C   UNL     1      43.893 -21.587   1.420  1.00  0.00     0.001 A 
HETATM   22  C   UNL     1      43.388 -20.406   1.968  1.00  0.00     0.007 A 
ENDBRANCH  10  17
BRANCH   1  23
HETATM   23  C   UNL     1      40.242 -13.970   1.625  1.00  0.00     0.277 C 
BRANCH  23  24
HETATM   24  C   UNL     1      39.080 -13.051   1.603  1.00  0.00     0.011 A 
HETATM   25  C   UNL     1      38.039 -12.970   0.685  1.00  0.00     0.035 A 
HETATM   26  C   UNL     1      37.703 -13.795  -0.506  1.00  0.00     0.070 C 
HETATM   27  N   UNL     1      37.255 -11.916   1.102  1.00  0.00    -0.278 N 
HETATM   28  C   UNL     1      36.036 -11.404   0.514  1.00  0.00     0.179 C 
HETATM   29  N   UNL     1      37.737 -11.316   2.202  1.00  0.00    -0.185 NA
HETATM   30  C   UNL     1      38.800 -12.035   2.541  1.00  0.00     0.149 A 
ENDBRANCH  23  24
ENDBRANCH   1  23
TORSDOF 4
ENDMDL
MODEL 4
REMARK VINA RESULT:      -8.1      1.784      1.920
REMARK  4 active torsions:
REMARK  status: ('A' for Active; 'I' for Inactive)
REMARK    1  A    between atoms: C_7  and  C_8 
REMARK    2  A    between atoms: C_8  and  N_9 
REMARK    3  A    between atoms: N_15  and  C_17 
REMARK    4  A    between atoms: C_21  and  C_22 
ROOT
HETATM    1  N   UNL     1      40.288 -14.085   0.220  1.00  0.00    -0.067 N 
HETATM    2  H   UNL     1      39.742 -13.211   0.241  1.00  0.00     0.280 HD
HETATM    3  C   UNL     1      39.596 -15.016   1.174  1.00  0.00     0.236 C 
HETATM    4  C   UNL     1      40.427 -16.279   1.413  1.00  0.00     0.039 C 
HETATM    5  C   UNL     1      41.888 -16.004   1.871  1.00  0.00    -0.013 C 
HETATM    6  C   UNL     1      41.963 -15.471   3.328  1.00  0.00     0.245 C 
HETATM    7  N   UNL     1      41.560 -16.526   4.331  1.00  0.00    -0.065 N 
HETATM    8  H   UNL     1      40.601 -16.853   4.155  1.00  0.00     0.280 HD
HETATM    9  C   UNL     1      42.455 -17.758   4.264  1.00  0.00     0.244 C 
HETATM   10  C   UNL     1      42.386 -18.357   2.853  1.00  0.00     0.045 C 
HETATM   11  C   UNL     1      42.738 -17.306   1.784  1.00  0.00     0.022 C 
HETATM   12  C   UNL     1      42.515 -14.972   0.886  1.00  0.00     0.039 C 
HETATM   13  C   UNL     1      41.676 -13.718   0.650  1.00  0.00     0.236 C 
ENDROOT
BRANCH   7  14
HETATM   14  C   UNL     1      41.556 -15.976   5.730  1.00  0.00     0.188 A 
HETATM   15  C   UNL     1      40.556 -16.564   6.685  1.00  0.00     0.035 A 
HETATM   16  C   UNL     1      42.014 -16.899   6.823  1.00  0.00     0.035 A 
ENDBRANCH   7  14
BRANCH  10  17
HETATM   17  C   UNL     1      43.270 -19.584   2.746  1.00  0.00    -0.052 A 
HETATM   18  C   UNL     1      43.042 -20.517   1.722  1.00  0.00     0.007 A 
HETATM   19  C   UNL     1      43.832 -21.663   1.615  1.00  0.00     0.001 A 
HETATM   20  C   UNL     1      44.857 -21.894   2.528  1.00  0.00     0.000 A 
HETATM   21  C   UNL     1      45.097 -20.978   3.547  1.00  0.00     0.001 A 
HETATM   22  C   UNL     1      44.311 -19.829   3.658  1.00  0.00     0.007 A 
ENDBRANCH  10  17
BRANCH   1  23
HETATM   23  C   UNL     1      40.183 -14.481  -1.254  1.00  0.00     0.277 C 
BRANCH  23  24
HETATM   24  C   UNL     1      39.026 -13.825  -1.907  1.00  0.00     0.011 A 
HETATM   25  C   UNL     1      38.314 -14.216  -3.035  1.00  0.00     0.035 A 
HETATM   26  C   UNL     1      38.414 -15.421  -3.901  1.00  0.00     0.070 C 
HETATM   27  N   UNL     1      37.372 -13.231  -3.242  1.00  0.00    -0.278 N 
HETATM   28  C   UNL     1      36.362 -13.144  -4.274  1.00  0.00     0.179 C 
HETATM   29  N   UNL     1      37.453 -12.240  -2.340  1.00  0.00    -0.185 NA
HETATM   30  C   UNL     1      38.405 -12.625  -1.499  1.00  0.00     0.149 A 
ENDBRANCH  23  24
ENDBRANCH   1  23
TORSDOF 4
ENDMDL
MODEL 5
REMARK VINA RESULT:      -8.1      2.550      8.335
REMARK  4 active torsions:
REMARK  status: ('A' for Active; 'I' for Inactive)
REMARK    1  A    between atoms: C_7  and  C_8 
REMARK    2  A    between atoms: C_8  and  N_9 
REMARK    3  A    between atoms: N_15  and  C_17 
REMARK    4  A    between atoms: C_21  and  C_22 
ROOT
HETATM    1  N   UNL     1      42.514 -17.849   2.619  1.00  0.00    -0.067 N 
HETATM    2  H   UNL     1      42.310 -18.501   3.391  1.00  0.00     0.280 HD
HETATM    3  C   UNL     1      42.755 -16.517   3.269  1.00  0.00     0.236 C 
HETATM    4  C   UNL     1      42.850 -15.403   2.224  1.00  0.00     0.039 C 
HETATM    5  C   UNL     1      41.636 -15.333   1.254  1.00  0.00    -0.013 C 
HETATM    6  C   UNL     1      40.350 -14.807   1.950  1.00  0.00     0.245 C 
HETATM    7  N   UNL     1      40.476 -13.351   2.329  1.00  0.00    -0.065 N 
HETATM    8  H   UNL     1      41.272 -13.204   2.966  1.00  0.00     0.280 HD
HETATM    9  C   UNL     1      40.722 -12.457   1.119  1.00  0.00     0.244 C 
HETATM   10  C   UNL     1      42.010 -12.903   0.415  1.00  0.00     0.045 C 
HETATM   11  C   UNL     1      41.956 -14.398   0.051  1.00  0.00     0.022 C 
HETATM   12  C   UNL     1      41.394 -16.762   0.682  1.00  0.00     0.039 C 
HETATM   13  C   UNL     1      41.306 -17.867   1.732  1.00  0.00     0.236 C 
ENDROOT
BRANCH   7  14
HETATM   14  C   UNL     1      39.261 -12.874   3.075  1.00  0.00     0.188 A 
HETATM   15  C   UNL     1      39.474 -12.408   4.488  1.00  0.00     0.035 A 
HETATM   16  C   UNL     1      39.196 -11.410   3.401  1.00  0.00     0.035 A 
ENDBRANCH   7  14
BRANCH  10  17
HETATM   17  C   UNL     1      42.285 -12.038  -0.799  1.00  0.00    -0.052 A 
HETATM   18  C   UNL     1      42.111 -12.572  -2.086  1.00  0.00     0.007 A 
HETATM   19  C   UNL     1      42.376 -11.799  -3.218  1.00  0.00     0.001 A 
HETATM   20  C   UNL     1      42.817 -10.486  -3.082  1.00  0.00     0.000 A 
HETATM   21  C   UNL     1      42.992  -9.941  -1.813  1.00  0.00     0.001 A 
HETATM   22  C   UNL     1      42.727 -10.709  -0.678  1.00  0.00     0.007 A 
ENDBRANCH  10  17
BRANCH   1  23
HETATM   23  C   UNL     1      43.751 -18.491   1.990  1.00  0.00     0.277 C 
BRANCH  23  24
HETATM   24  C   UNL     1      44.049 -19.806   2.606  1.00  0.00     0.011 A 
HETATM   25  C   UNL     1      44.486 -20.096   3.893  1.00  0.00     0.035 A 
HETATM   26  C   UNL     1      44.725 -19.228   5.077  1.00  0.00     0.070 C 
HETATM   27  N   UNL     1      44.655 -21.463   3.931  1.00  0.00    -0.278 N 
HETATM   28  C   UNL     1      45.085 -22.295   5.034  1.00  0.00     0.179 C 
HETATM   29  N   UNL     1      44.376 -22.052   2.756  1.00  0.00    -0.185 NA
HETATM   30  C   UNL     1      43.952 -21.065   1.977  1.00  0.00     0.149 A 
ENDBRANCH  23  24
ENDBRANCH   1  23
TORSDOF 4
ENDMDL
MODEL 6
REMARK VINA RESULT:      -7.9      3.916      6.764
REMARK  4 active torsions:
REMARK  status: ('A' for Active; 'I' for Inactive)
REMARK    1  A    between atoms: C_7  and  C_8 
REMARK    2  A    between atoms: C_8  and  N_9 
REMARK    3  A    between atoms: N_15  and  C_17 
REMARK    4  A    between atoms: C_21  and  C_22 
ROOT
HETATM    1  N   UNL     1      41.285 -12.313   5.412  1.00  0.00    -0.067 N 
HETATM    2  H   UNL     1      40.809 -11.404   5.308  1.00  0.00     0.280 HD
HETATM    3  C   UNL     1      42.113 -12.478   4.170  1.00  0.00     0.236 C 
HETATM    4  C   UNL     1      42.703 -13.887   4.084  1.00  0.00     0.039 C 
HETATM    5  C   UNL     1      41.652 -15.027   4.201  1.00  0.00    -0.013 C 
HETATM    6  C   UNL     1      40.754 -15.139   2.939  1.00  0.00     0.245 C 
HETATM    7  N   UNL     1      41.536 -15.617   1.738  1.00  0.00    -0.065 N 
HETATM    8  H   UNL     1      42.314 -14.976   1.527  1.00  0.00     0.280 HD
HETATM    9  C   UNL     1      42.158 -16.990   1.962  1.00  0.00     0.244 C 
HETATM   10  C   UNL     1      43.094 -16.929   3.176  1.00  0.00     0.045 C 
HETATM   11  C   UNL     1      42.358 -16.397   4.420  1.00  0.00     0.022 C 
HETATM   12  C   UNL     1      40.778 -14.748   5.461  1.00  0.00     0.039 C 
HETATM   13  C   UNL     1      40.199 -13.337   5.541  1.00  0.00     0.236 C 
ENDROOT
BRANCH   7  14
HETATM   14  C   UNL     1      40.678 -15.642   0.503  1.00  0.00     0.188 A 
HETATM   15  C   UNL     1      40.939 -14.576  -0.523  1.00  0.00     0.035 A 
HETATM   16  C   UNL     1      41.359 -15.993  -0.788  1.00  0.00     0.035 A 
ENDBRANCH   7  14
BRANCH  10  17
HETATM   17  C   UNL     1      43.729 -18.281   3.434  1.00  0.00    -0.052 A 
HETATM   18  C   UNL     1      44.196 -18.596   4.720  1.00  0.00     0.007 A 
HETATM   19  C   UNL     1      44.801 -19.828   4.975  1.00  0.00     0.001 A 
HETATM   20  C   UNL     1      44.946 -20.762   3.953  1.00  0.00     0.000 A 
HETATM   21  C   UNL     1      44.484 -20.467   2.674  1.00  0.00     0.001 A 
HETATM   22  C   UNL     1      43.879 -19.236   2.413  1.00  0.00     0.007 A 
ENDBRANCH  10  17
BRANCH   1  23
HETATM   23  C   UNL     1      42.087 -12.098   6.696  1.00  0.00     0.277 C 
BRANCH  23  24
HETATM   24  C   UNL     1      41.593 -10.921   7.449  1.00  0.00     0.011 A 
HETATM   25  C   UNL     1      42.039 -10.401   8.659  1.00  0.00     0.035 A 
HETATM   26  C   UNL     1      43.170 -10.784   9.546  1.00  0.00     0.070 C 
HETATM   27  N   UNL     1      41.208  -9.337   8.936  1.00  0.00    -0.278 N 
HETATM   28  C   UNL     1      41.234  -8.435  10.068  1.00  0.00     0.179 C 
HETATM   29  N   UNL     1      40.261  -9.163   8.001  1.00  0.00    -0.185 NA
HETATM   30  C   UNL     1      40.528 -10.075   7.075  1.00  0.00     0.149 A 
ENDBRANCH  23  24
ENDBRANCH   1  23
TORSDOF 4
ENDMDL
MODEL 7
REMARK VINA RESULT:      -7.9      2.508      5.557
REMARK  4 active torsions:
REMARK  status: ('A' for Active; 'I' for Inactive)
REMARK    1  A    between atoms: C_7  and  C_8 
REMARK    2  A    between atoms: C_8  and  N_9 
REMARK    3  A    between atoms: N_15  and  C_17 
REMARK    4  A    between atoms: C_21  and  C_22 
ROOT
HETATM    1  N   UNL     1      41.213 -15.124   2.138  1.00  0.00    -0.067 N 
HETATM    2  H   UNL     1      40.706 -15.768   1.512  1.00  0.00     0.280 HD
HETATM    3  C   UNL     1      42.489 -15.831   2.494  1.00  0.00     0.236 C 
HETATM    4  C   UNL     1      43.242 -15.086   3.598  1.00  0.00     0.039 C 
HETATM    5  C   UNL     1      42.394 -14.803   4.871  1.00  0.00    -0.013 C 
HETATM    6  C   UNL     1      42.111 -16.090   5.694  1.00  0.00     0.245 C 
HETATM    7  N   UNL     1      43.369 -16.636   6.325  1.00  0.00    -0.065 N 
HETATM    8  H   UNL     1      44.074 -16.859   5.609  1.00  0.00     0.280 HD
HETATM    9  C   UNL     1      44.020 -15.638   7.275  1.00  0.00     0.244 C 
HETATM   10  C   UNL     1      44.364 -14.357   6.503  1.00  0.00     0.045 C 
HETATM   11  C   UNL     1      43.123 -13.784   5.795  1.00  0.00     0.022 C 
HETATM   12  C   UNL     1      41.055 -14.146   4.419  1.00  0.00     0.039 C 
HETATM   13  C   UNL     1      40.313 -14.894   3.314  1.00  0.00     0.236 C 
ENDROOT
BRANCH   7  14
HETATM   14  C   UNL     1      43.100 -17.926   7.050  1.00  0.00     0.188 A 
HETATM   15  C   UNL     1      43.870 -19.132   6.592  1.00  0.00     0.035 A 
HETATM   16  C   UNL     1      44.212 -18.473   7.898  1.00  0.00     0.035 A 
ENDBRANCH   7  14
BRANCH  10  17
HETATM   17  C   UNL     1      45.011 -13.336   7.418  1.00  0.00    -0.052 A 
HETATM   18  C   UNL     1      46.337 -12.937   7.187  1.00  0.00     0.007 A 
HETATM   19  C   UNL     1      46.958 -12.011   8.027  1.00  0.00     0.001 A 
HETATM   20  C   UNL     1      46.266 -11.472   9.108  1.00  0.00     0.000 A 
HETATM   21  C   UNL     1      44.950 -11.854   9.349  1.00  0.00     0.001 A 
HETATM   22  C   UNL     1      44.324 -12.779   8.511  1.00  0.00     0.007 A 
ENDBRANCH  10  17
BRANCH   1  23
HETATM   23  C   UNL     1      41.387 -13.896   1.244  1.00  0.00     0.277 C 
BRANCH  23  24
HETATM   24  C   UNL     1      40.691 -14.069  -0.053  1.00  0.00     0.011 A 
HETATM   25  C   UNL     1      39.333 -13.989  -0.340  1.00  0.00     0.035 A 
HETATM   26  C   UNL     1      38.160 -13.640   0.506  1.00  0.00     0.070 C 
HETATM   27  N   UNL     1      39.218 -14.280  -1.682  1.00  0.00    -0.278 N 
HETATM   28  C   UNL     1      38.026 -14.326  -2.502  1.00  0.00     0.179 C 
HETATM   29  N   UNL     1      40.400 -14.558  -2.255  1.00  0.00    -0.185 NA
HETATM   30  C   UNL     1      41.294 -14.371  -1.292  1.00  0.00     0.149 A 
ENDBRANCH  23  24
ENDBRANCH   1  23
TORSDOF 4
ENDMDL
MODEL 8
REMARK VINA RESULT:      -7.8      2.120      8.149
REMARK  4 active torsions:
REMARK  status: ('A' for Active; 'I' for Inactive)
REMARK    1  A    between atoms: C_7  and  C_8 
REMARK    2  A    between atoms: C_8  and  N_9 
REMARK    3  A    between atoms: N_15  and  C_17 
REMARK    4  A    between atoms: C_21  and  C_22 
ROOT
HETATM    1  N   UNL     1      43.018 -16.913   3.917  1.00  0.00    -0.067 N 
HETATM    2  H   UNL     1      43.452 -17.085   4.837  1.00  0.00     0.280 HD
HETATM    3  C   UNL     1      43.168 -15.439   3.671  1.00  0.00     0.236 C 
HETATM    4  C   UNL     1      42.369 -15.002   2.440  1.00  0.00     0.039 C 
HETATM    5  C   UNL     1      40.868 -15.406   2.478  1.00  0.00    -0.013 C 
HETATM    6  C   UNL     1      40.056 -14.579   3.513  1.00  0.00     0.245 C 
HETATM    7  N   UNL     1      39.935 -13.132   3.099  1.00  0.00    -0.065 N 
HETATM    8  H   UNL     1      40.863 -12.700   2.996  1.00  0.00     0.280 HD
HETATM    9  C   UNL     1      39.233 -12.971   1.756  1.00  0.00     0.244 C 
HETATM   10  C   UNL     1      40.018 -13.734   0.681  1.00  0.00     0.045 C 
HETATM   11  C   UNL     1      40.216 -15.209   1.077  1.00  0.00     0.022 C 
HETATM   12  C   UNL     1      40.787 -16.925   2.819  1.00  0.00     0.039 C 
HETATM   13  C   UNL     1      41.591 -17.352   4.044  1.00  0.00     0.236 C 
ENDROOT
BRANCH   7  14
HETATM   14  C   UNL     1      39.220 -12.323   4.146  1.00  0.00     0.188 A 
HETATM   15  C   UNL     1      39.830 -10.999   4.511  1.00  0.00     0.035 A 
HETATM   16  C   UNL     1      38.572 -11.047   3.692  1.00  0.00     0.035 A 
ENDBRANCH   7  14
BRANCH  10  17
HETATM   17  C   UNL     1      39.346 -13.601  -0.672  1.00  0.00    -0.052 A 
HETATM   18  C   UNL     1      39.893 -14.257  -1.786  1.00  0.00     0.007 A 
HETATM   19  C   UNL     1      39.301 -14.133  -3.045  1.00  0.00     0.001 A 
HETATM   20  C   UNL     1      38.157 -13.357  -3.207  1.00  0.00     0.000 A 
HETATM   21  C   UNL     1      37.601 -12.704  -2.112  1.00  0.00     0.001 A 
HETATM   22  C   UNL     1      38.189 -12.824  -0.851  1.00  0.00     0.007 A 
ENDBRANCH  10  17
BRANCH   1  23
HETATM   23  C   UNL     1      43.860 -17.806   3.005  1.00  0.00     0.277 C 
BRANCH  23  24
HETATM   24  C   UNL     1      44.218 -19.078   3.677  1.00  0.00     0.011 A 
HETATM   25  C   UNL     1      44.178 -20.376   3.182  1.00  0.00     0.035 A 
HETATM   26  C   UNL     1      43.846 -20.913   1.834  1.00  0.00     0.070 C 
HETATM   27  N   UNL     1      44.565 -21.186   4.227  1.00  0.00    -0.278 N 
HETATM   28  C   UNL     1      44.708 -22.626   4.255  1.00  0.00     0.179 C 
HETATM   29  N   UNL     1      44.825 -20.495   5.349  1.00  0.00    -0.185 NA
HETATM   30  C   UNL     1      44.678 -19.222   5.003  1.00  0.00     0.149 A 
ENDBRANCH  23  24
ENDBRANCH   1  23
TORSDOF 4
ENDMDL
MODEL 9
REMARK VINA RESULT:      -7.8      2.225      8.951
REMARK  4 active torsions:
REMARK  status: ('A' for Active; 'I' for Inactive)
REMARK    1  A    between atoms: C_7  and  C_8 
REMARK    2  A    between atoms: C_8  and  N_9 
REMARK    3  A    between atoms: N_15  and  C_17 
REMARK    4  A    between atoms: C_21  and  C_22 
ROOT
HETATM    1  N   UNL     1      42.697 -17.368   2.585  1.00  0.00    -0.067 N 
HETATM    2  H   UNL     1      43.364 -18.136   2.415  1.00  0.00     0.280 HD
HETATM    3  C   UNL     1      41.503 -17.676   1.727  1.00  0.00     0.236 C 
HETATM    4  C   UNL     1      40.521 -16.502   1.708  1.00  0.00     0.039 C 
HETATM    5  C   UNL     1      41.159 -15.143   1.300  1.00  0.00    -0.013 C 
HETATM    6  C   UNL     1      41.524 -15.088  -0.209  1.00  0.00     0.245 C 
HETATM    7  N   UNL     1      40.291 -15.079  -1.081  1.00  0.00    -0.065 N 
HETATM    8  H   UNL     1      39.718 -15.918  -0.917  1.00  0.00     0.280 HD
HETATM    9  C   UNL     1      39.392 -13.881  -0.799  1.00  0.00     0.244 C 
HETATM   10  C   UNL     1      38.962 -13.908   0.674  1.00  0.00     0.045 C 
HETATM   11  C   UNL     1      40.184 -13.970   1.609  1.00  0.00     0.022 C 
HETATM   12  C   UNL     1      42.434 -14.930   2.171  1.00  0.00     0.039 C 
HETATM   13  C   UNL     1      43.404 -16.109   2.188  1.00  0.00     0.236 C 
ENDROOT
BRANCH   7  14
HETATM   14  C   UNL     1      40.654 -15.109  -2.540  1.00  0.00     0.188 A 
HETATM   15  C   UNL     1      39.943 -16.122  -3.393  1.00  0.00     0.035 A 
HETATM   16  C   UNL     1      39.598 -14.665  -3.512  1.00  0.00     0.035 A 
ENDBRANCH   7  14
BRANCH  10  17
HETATM   17  C   UNL     1      38.068 -12.726   0.994  1.00  0.00    -0.052 A 
HETATM   18  C   UNL     1      36.896 -12.519   0.249  1.00  0.00     0.007 A 
HETATM   19  C   UNL     1      36.068 -11.427   0.515  1.00  0.00     0.001 A 
HETATM   20  C   UNL     1      36.396 -10.529   1.527  1.00  0.00     0.000 A 
HETATM   21  C   UNL     1      37.553 -10.722   2.277  1.00  0.00     0.001 A 
HETATM   22  C   UNL     1      38.384 -11.813   2.015  1.00  0.00     0.007 A 
ENDBRANCH  10  17
BRANCH   1  23
HETATM   23  C   UNL     1      42.457 -17.493   4.090  1.00  0.00     0.277 C 
BRANCH  23  24
HETATM   24  C   UNL     1      43.226 -18.621   4.667  1.00  0.00     0.011 A 
HETATM   25  C   UNL     1      43.903 -19.647   4.019  1.00  0.00     0.035 A 
HETATM   26  C   UNL     1      44.147 -19.917   2.576  1.00  0.00     0.070 C 
HETATM   27  N   UNL     1      44.403 -20.454   5.018  1.00  0.00    -0.278 N 
HETATM   28  C   UNL     1      45.198 -21.658   4.900  1.00  0.00     0.179 C 
HETATM   29  N   UNL     1      44.072 -20.023   6.246  1.00  0.00    -0.185 NA
HETATM   30  C   UNL     1      43.417 -18.887   6.040  1.00  0.00     0.149 A 
ENDBRANCH  23  24
ENDBRANCH   1  23
TORSDOF 4
ENDMDL
MODEL 10
REMARK VINA RESULT:      -7.7      3.882      7.230
REMARK  4 active torsions:
REMARK  status: ('A' for Active; 'I' for Inactive)
REMARK    1  A    between atoms: C_7  and  C_8 
REMARK    2  A    between atoms: C_8  and  N_9 
REMARK    3  A    between atoms: N_15  and  C_17 
REMARK    4  A    between atoms: C_21  and  C_22 
ROOT
HETATM    1  N   UNL     1      40.872 -13.491   6.113  1.00  0.00    -0.067 N 
HETATM    2  H   UNL     1      40.955 -13.667   7.125  1.00  0.00     0.280 HD
HETATM    3  C   UNL     1      40.451 -14.801   5.510  1.00  0.00     0.236 C 
HETATM    4  C   UNL     1      40.506 -14.747   3.981  1.00  0.00     0.039 C 
HETATM    5  C   UNL     1      41.878 -14.291   3.408  1.00  0.00    -0.013 C 
HETATM    6  C   UNL     1      42.983 -15.369   3.582  1.00  0.00     0.245 C 
HETATM    7  N   UNL     1      42.720 -16.582   2.720  1.00  0.00    -0.065 N 
HETATM    8  H   UNL     1      41.813 -17.008   2.952  1.00  0.00     0.280 HD
HETATM    9  C   UNL     1      42.669 -16.236   1.237  1.00  0.00     0.244 C 
HETATM   10  C   UNL     1      41.561 -15.203   0.997  1.00  0.00     0.045 C 
HETATM   11  C   UNL     1      41.751 -13.964   1.891  1.00  0.00     0.022 C 
HETATM   12  C   UNL     1      42.289 -12.975   4.135  1.00  0.00     0.039 C 
HETATM   13  C   UNL     1      42.226 -13.037   5.659  1.00  0.00     0.236 C 
ENDROOT
BRANCH   7  14
HETATM   14  C   UNL     1      43.749 -17.653   2.958  1.00  0.00     0.188 A 
HETATM   15  C   UNL     1      43.273 -18.909   3.632  1.00  0.00     0.035 A 
HETATM   16  C   UNL     1      43.603 -18.921   2.166  1.00  0.00     0.035 A 
ENDBRANCH   7  14
BRANCH  10  17
HETATM   17  C   UNL     1      41.482 -14.830  -0.471  1.00  0.00    -0.052 A 
HETATM   18  C   UNL     1      41.059 -15.785  -1.409  1.00  0.00     0.007 A 
HETATM   19  C   UNL     1      40.996 -15.470  -2.767  1.00  0.00     0.001 A 
HETATM   20  C   UNL     1      41.354 -14.198  -3.207  1.00  0.00     0.000 A 
HETATM   21  C   UNL     1      41.773 -13.239  -2.290  1.00  0.00     0.001 A 
HETATM   22  C   UNL     1      41.837 -13.550  -0.930  1.00  0.00     0.007 A 
ENDBRANCH  10  17
BRANCH   1  23
HETATM   23  C   UNL     1      39.808 -12.394   6.074  1.00  0.00     0.277 C 
BRANCH  23  24
HETATM   24  C   UNL     1      39.877 -11.532   7.277  1.00  0.00     0.011 A 
HETATM   25  C   UNL     1      40.575 -10.345   7.470  1.00  0.00     0.035 A 
HETATM   26  C   UNL     1      41.401  -9.520   6.548  1.00  0.00     0.070 C 
HETATM   27  N   UNL     1      40.339  -9.983   8.779  1.00  0.00    -0.278 N 
HETATM   28  C   UNL     1      40.816  -8.822   9.499  1.00  0.00     0.179 C 
HETATM   29  N   UNL     1      39.562 -10.864   9.428  1.00  0.00    -0.185 NA
HETATM   30  C   UNL     1      39.232 -11.764   8.511  1.00  0.00     0.149 A 
ENDBRANCH  23  24
ENDBRANCH   1  23
TORSDOF 4
ENDMDL
