MODEL 1
REMARK VINA RESULT:      -8.5      0.000      0.000
REMARK  6 active torsions:
REMARK  status: ('A' for Active; 'I' for Inactive)
REMARK    1  A    between atoms: C_7  and  S_8 
REMARK    2  A    between atoms: S_8  and  C_9 
REMARK    3  A    between atoms: C_9  and  C_10 
REMARK    4  A    between atoms: C_18  and  C_19 
REMARK    5  A    between atoms: C_27  and  C_28 
REMARK    6  A    between atoms: C_28  and  O_29 
ROOT
HETATM    1  C   UNL     1      37.118 -14.048   0.991  1.00  0.00     0.070 C 
HETATM    2  C   UNL     1      38.507 -14.413   0.528  1.00  0.00     0.037 A 
HETATM    3  N   UNL     1      39.279 -15.117   1.445  1.00  0.00    -0.192 N 
HETATM    4  C   UNL     1      40.540 -15.517   1.201  1.00  0.00     0.726 A 
HETATM    5  N   UNL     1      41.131 -15.181   0.015  1.00  0.00    -0.082 N 
HETATM    6  N   UNL     1      42.370 -15.704  -0.080  1.00  0.00    -0.128 NA
HETATM    7  C   UNL     1      42.478 -16.312   1.108  1.00  0.00     0.226 A 
HETATM    8  N   UNL     1      41.374 -16.222   1.921  1.00  0.00    -0.035 NA
HETATM    9  C   UNL     1      40.469 -14.416  -1.051  1.00  0.00     0.208 A 
HETATM   10  C   UNL     1      39.028 -14.078  -0.680  1.00  0.00     0.070 A 
HETATM   11  H   UNL     1      38.850 -15.362   2.334  1.00  0.00     0.184 HD
ENDROOT
BRANCH   7  12
HETATM   12  S   UNL     1      43.936 -17.152   1.556  1.00  0.00    -0.083 SA
BRANCH  12  13
HETATM   13  C   UNL     1      43.344 -18.035   3.026  1.00  0.00     0.123 C 
BRANCH  13  14
HETATM   14  C   UNL     1      43.762 -19.487   3.015  1.00  0.00    -0.027 A 
HETATM   15  C   UNL     1      44.455 -20.088   4.079  1.00  0.00     0.041 A 
HETATM   16 CL   UNL     1      44.902 -19.207   5.496  1.00  0.00    -0.084 Cl
HETATM   17  C   UNL     1      44.812 -21.439   4.021  1.00  0.00     0.024 A 
HETATM   18  C   UNL     1      44.482 -22.208   2.907  1.00  0.00     0.002 A 
HETATM   19  C   UNL     1      43.787 -21.630   1.848  1.00  0.00     0.001 A 
HETATM   20  C   UNL     1      43.427 -20.282   1.903  1.00  0.00     0.009 A 
ENDBRANCH  13  14
ENDBRANCH  12  13
ENDBRANCH   7  12
BRANCH   9  21
HETATM   21  C   UNL     1      41.342 -13.244  -1.470  1.00  0.00     0.032 A 
HETATM   22  C   UNL     1      41.767 -12.210  -0.621  1.00  0.00     0.045 A 
HETATM   23 CL   UNL     1      41.329 -12.131   1.048  1.00  0.00    -0.084 Cl
HETATM   24  C   UNL     1      42.582 -11.174  -1.103  1.00  0.00     0.024 A 
HETATM   25  C   UNL     1      42.992 -11.155  -2.435  1.00  0.00     0.005 A 
HETATM   26  C   UNL     1      42.584 -12.172  -3.289  1.00  0.00     0.043 A 
HETATM   27  C   UNL     1      41.773 -13.195  -2.805  1.00  0.00     0.126 A 
HETATM   28  F   UNL     1      41.392 -14.154  -3.662  1.00  0.00    -0.205 F 
ENDBRANCH   9  21
BRANCH  10  29
HETATM   29  C   UNL     1      38.239 -13.426  -1.746  1.00  0.00     0.293 C 
HETATM   30  O   UNL     1      38.256 -12.227  -1.971  1.00  0.00    -0.259 OA
BRANCH  29  31
HETATM   31  O   UNL     1      37.575 -14.361  -2.472  1.00  0.00    -0.323 OA
HETATM   32  C   UNL     1      38.084 -14.539  -3.794  1.00  0.00     0.213 C 
ENDBRANCH  29  31
ENDBRANCH  10  29
TORSDOF 6
ENDMDL
MODEL 2
REMARK VINA RESULT:      -8.4      2.115      3.274
REMARK  6 active torsions:
REMARK  status: ('A' for Active; 'I' for Inactive)
REMARK    1  A    between atoms: C_7  and  S_8 
REMARK    2  A    between atoms: S_8  and  C_9 
REMARK    3  A    between atoms: C_9  and  C_10 
REMARK    4  A    between atoms: C_18  and  C_19 
REMARK    5  A    between atoms: C_27  and  C_28 
REMARK    6  A    between atoms: C_28  and  O_29 
ROOT
HETATM    1  C   UNL     1      40.174 -15.194  -3.505  1.00  0.00     0.070 C 
HETATM    2  C   UNL     1      40.649 -15.002  -2.086  1.00  0.00     0.037 A 
HETATM    3  N   UNL     1      40.729 -16.160  -1.320  1.00  0.00    -0.192 N 
HETATM    4  C   UNL     1      41.128 -16.172  -0.035  1.00  0.00     0.726 A 
HETATM    5  N   UNL     1      41.426 -14.991   0.585  1.00  0.00    -0.082 N 
HETATM    6  N   UNL     1      41.853 -15.195   1.848  1.00  0.00    -0.128 NA
HETATM    7  C   UNL     1      41.746 -16.526   1.937  1.00  0.00     0.226 A 
HETATM    8  N   UNL     1      41.307 -17.162   0.801  1.00  0.00    -0.035 NA
HETATM    9  C   UNL     1      41.366 -13.676  -0.069  1.00  0.00     0.208 A 
HETATM   10  C   UNL     1      40.965 -13.802  -1.535  1.00  0.00     0.070 A 
HETATM   11  H   UNL     1      40.499 -17.041  -1.770  1.00  0.00     0.184 HD
ENDROOT
BRANCH   7  12
HETATM   12  S   UNL     1      42.148 -17.360   3.412  1.00  0.00    -0.083 SA
BRANCH  12  13
HETATM   13  C   UNL     1      43.867 -17.814   3.051  1.00  0.00     0.123 C 
BRANCH  13  14
HETATM   14  C   UNL     1      44.061 -19.313   3.037  1.00  0.00    -0.027 A 
HETATM   15  C   UNL     1      44.594 -20.022   4.125  1.00  0.00     0.041 A 
HETATM   16 CL   UNL     1      45.089 -19.233   5.580  1.00  0.00    -0.084 Cl
HETATM   17  C   UNL     1      44.746 -21.412   4.062  1.00  0.00     0.024 A 
HETATM   18  C   UNL     1      44.366 -22.110   2.918  1.00  0.00     0.002 A 
HETATM   19  C   UNL     1      43.828 -21.423   1.834  1.00  0.00     0.001 A 
HETATM   20  C   UNL     1      43.672 -20.037   1.893  1.00  0.00     0.009 A 
ENDBRANCH  13  14
ENDBRANCH  12  13
ENDBRANCH   7  12
BRANCH   9  21
HETATM   21  C   UNL     1      40.538 -12.715   0.769  1.00  0.00     0.032 A 
HETATM   22  C   UNL     1      39.192 -12.906   1.122  1.00  0.00     0.045 A 
HETATM   23 CL   UNL     1      38.283 -14.287   0.626  1.00  0.00    -0.084 Cl
HETATM   24  C   UNL     1      38.517 -11.962   1.910  1.00  0.00     0.024 A 
HETATM   25  C   UNL     1      39.169 -10.817   2.363  1.00  0.00     0.005 A 
HETATM   26  C   UNL     1      40.501 -10.613   2.026  1.00  0.00     0.043 A 
HETATM   27  C   UNL     1      41.166 -11.552   1.241  1.00  0.00     0.126 A 
HETATM   28  F   UNL     1      42.449 -11.315   0.929  1.00  0.00    -0.205 F 
ENDBRANCH   9  21
BRANCH  10  29
HETATM   29  C   UNL     1      41.008 -12.546  -2.312  1.00  0.00     0.293 C 
HETATM   30  O   UNL     1      40.031 -11.854  -2.544  1.00  0.00    -0.259 OA
BRANCH  29  31
HETATM   31  O   UNL     1      42.289 -12.246  -2.642  1.00  0.00    -0.323 OA
HETATM   32  C   UNL     1      42.647 -10.884  -2.406  1.00  0.00     0.213 C 
ENDBRANCH  29  31
ENDBRANCH  10  29
TORSDOF 6
ENDMDL
MODEL 3
REMARK VINA RESULT:      -8.2      3.692      4.947
REMARK  6 active torsions:
REMARK  status: ('A' for Active; 'I' for Inactive)
REMARK    1  A    between atoms: C_7  and  S_8 
REMARK    2  A    between atoms: S_8  and  C_9 
REMARK    3  A    between atoms: C_9  and  C_10 
REMARK    4  A    between atoms: C_18  and  C_19 
REMARK    5  A    between atoms: C_27  and  C_28 
REMARK    6  A    between atoms: C_28  and  O_29 
ROOT
HETATM    1  C   UNL     1      41.645 -11.316   6.220  1.00  0.00     0.070 C 
HETATM    2  C   UNL     1      41.529 -12.743   5.744  1.00  0.00     0.037 A 
HETATM    3  N   UNL     1      42.339 -13.662   6.402  1.00  0.00    -0.192 N 
HETATM    4  C   UNL     1      42.366 -14.973   6.103  1.00  0.00     0.726 A 
HETATM    5  N   UNL     1      41.604 -15.441   5.069  1.00  0.00    -0.082 N 
HETATM    6  N   UNL     1      41.716 -16.778   4.944  1.00  0.00    -0.128 NA
HETATM    7  C   UNL     1      42.599 -17.048   5.913  1.00  0.00     0.226 A 
HETATM    8  N   UNL     1      43.019 -15.967   6.648  1.00  0.00    -0.035 NA
HETATM    9  C   UNL     1      40.716 -14.602   4.252  1.00  0.00     0.208 A 
HETATM   10  C   UNL     1      40.725 -13.153   4.729  1.00  0.00     0.070 A 
HETATM   11  H   UNL     1      42.916 -13.320   7.165  1.00  0.00     0.184 HD
ENDROOT
BRANCH   7  12
HETATM   12  S   UNL     1      43.152 -18.675   6.194  1.00  0.00    -0.083 SA
BRANCH  12  13
HETATM   13  C   UNL     1      44.523 -18.745   5.008  1.00  0.00     0.123 C 
BRANCH  13  14
HETATM   14  C   UNL     1      44.359 -19.881   4.026  1.00  0.00    -0.027 A 
HETATM   15  C   UNL     1      43.815 -19.707   2.743  1.00  0.00     0.041 A 
HETATM   16 CL   UNL     1      43.271 -18.167   2.179  1.00  0.00    -0.084 Cl
HETATM   17  C   UNL     1      43.691 -20.793   1.869  1.00  0.00     0.024 A 
HETATM   18  C   UNL     1      44.111 -22.063   2.262  1.00  0.00     0.002 A 
HETATM   19  C   UNL     1      44.660 -22.251   3.526  1.00  0.00     0.001 A 
HETATM   20  C   UNL     1      44.787 -21.169   4.400  1.00  0.00     0.009 A 
ENDBRANCH  13  14
ENDBRANCH  12  13
ENDBRANCH   7  12
BRANCH   9  21
HETATM   21  C   UNL     1      41.007 -14.820   2.776  1.00  0.00     0.032 A 
HETATM   22  C   UNL     1      42.272 -14.709   2.177  1.00  0.00     0.045 A 
HETATM   23 CL   UNL     1      43.692 -14.288   3.065  1.00  0.00    -0.084 Cl
HETATM   24  C   UNL     1      42.438 -14.940   0.803  1.00  0.00     0.024 A 
HETATM   25  C   UNL     1      41.351 -15.290   0.005  1.00  0.00     0.005 A 
HETATM   26  C   UNL     1      40.092 -15.408   0.581  1.00  0.00     0.043 A 
HETATM   27  C   UNL     1      39.933 -15.174   1.944  1.00  0.00     0.126 A 
HETATM   28  F   UNL     1      38.700 -15.288   2.461  1.00  0.00    -0.205 F 
ENDBRANCH   9  21
BRANCH  10  29
HETATM   29  C   UNL     1      39.760 -12.260   4.055  1.00  0.00     0.293 C 
HETATM   30  O   UNL     1      38.639 -12.025   4.476  1.00  0.00    -0.259 OA
BRANCH  29  31
HETATM   31  O   UNL     1      40.334 -11.690   2.966  1.00  0.00    -0.323 OA
HETATM   32  C   UNL     1      39.403 -11.288   1.961  1.00  0.00     0.213 C 
ENDBRANCH  29  31
ENDBRANCH  10  29
TORSDOF 6
ENDMDL
MODEL 4
REMARK VINA RESULT:      -8.2      1.896      2.298
REMARK  6 active torsions:
REMARK  status: ('A' for Active; 'I' for Inactive)
REMARK    1  A    between atoms: C_7  and  S_8 
REMARK    2  A    between atoms: S_8  and  C_9 
REMARK    3  A    between atoms: C_9  and  C_10 
REMARK    4  A    between atoms: C_18  and  C_19 
REMARK    5  A    between atoms: C_27  and  C_28 
REMARK    6  A    between atoms: C_28  and  O_29 
ROOT
HETATM    1  C   UNL     1      39.200 -12.239   3.261  1.00  0.00     0.070 C 
HETATM    2  C   UNL     1      39.815 -13.207   2.280  1.00  0.00     0.037 A 
HETATM    3  N   UNL     1      40.731 -14.104   2.818  1.00  0.00    -0.192 N 
HETATM    4  C   UNL     1      41.376 -15.031   2.088  1.00  0.00     0.726 A 
HETATM    5  N   UNL     1      41.175 -15.079   0.736  1.00  0.00    -0.082 N 
HETATM    6  N   UNL     1      41.860 -16.095   0.175  1.00  0.00    -0.128 NA
HETATM    7  C   UNL     1      42.490 -16.595   1.245  1.00  0.00     0.226 A 
HETATM    8  N   UNL     1      42.216 -15.970   2.438  1.00  0.00    -0.035 NA
HETATM    9  C   UNL     1      40.265 -14.187   0.005  1.00  0.00     0.208 A 
HETATM   10  C   UNL     1      39.548 -13.227   0.949  1.00  0.00     0.070 A 
HETATM   11  H   UNL     1      40.894 -14.068   3.820  1.00  0.00     0.184 HD
ENDROOT
BRANCH   7  12
HETATM   12  S   UNL     1      43.574 -17.949   1.096  1.00  0.00    -0.083 SA
BRANCH  12  13
HETATM   13  C   UNL     1      43.937 -18.249   2.848  1.00  0.00     0.123 C 
BRANCH  13  14
HETATM   14  C   UNL     1      44.195 -19.712   3.126  1.00  0.00    -0.027 A 
HETATM   15  C   UNL     1      44.599 -20.189   4.383  1.00  0.00     0.041 A 
HETATM   16 CL   UNL     1      44.850 -19.132   5.727  1.00  0.00    -0.084 Cl
HETATM   17  C   UNL     1      44.817 -21.555   4.589  1.00  0.00     0.024 A 
HETATM   18  C   UNL     1      44.633 -22.462   3.547  1.00  0.00     0.002 A 
HETATM   19  C   UNL     1      44.223 -22.007   2.297  1.00  0.00     0.001 A 
HETATM   20  C   UNL     1      44.002 -20.644   2.088  1.00  0.00     0.009 A 
ENDBRANCH  13  14
ENDBRANCH  12  13
ENDBRANCH   7  12
BRANCH   9  21
HETATM   21  C   UNL     1      40.992 -13.549  -1.168  1.00  0.00     0.032 A 
HETATM   22  C   UNL     1      40.682 -13.758  -2.521  1.00  0.00     0.045 A 
HETATM   23 CL   UNL     1      39.407 -14.803  -3.036  1.00  0.00    -0.084 Cl
HETATM   24  C   UNL     1      41.410 -13.113  -3.532  1.00  0.00     0.024 A 
HETATM   25  C   UNL     1      42.454 -12.246  -3.214  1.00  0.00     0.005 A 
HETATM   26  C   UNL     1      42.773 -12.025  -1.880  1.00  0.00     0.043 A 
HETATM   27  C   UNL     1      42.049 -12.670  -0.881  1.00  0.00     0.126 A 
HETATM   28  F   UNL     1      42.394 -12.438   0.395  1.00  0.00    -0.205 F 
ENDBRANCH   9  21
BRANCH  10  29
HETATM   29  C   UNL     1      38.511 -12.382   0.322  1.00  0.00     0.293 C 
HETATM   30  O   UNL     1      37.365 -12.747   0.118  1.00  0.00    -0.259 OA
BRANCH  29  31
HETATM   31  O   UNL     1      39.000 -11.137   0.093  1.00  0.00    -0.323 OA
HETATM   32  C   UNL     1      38.624 -10.588  -1.170  1.00  0.00     0.213 C 
ENDBRANCH  29  31
ENDBRANCH  10  29
TORSDOF 6
ENDMDL
MODEL 5
REMARK VINA RESULT:      -8.1      1.622      1.960
REMARK  6 active torsions:
REMARK  status: ('A' for Active; 'I' for Inactive)
REMARK    1  A    between atoms: C_7  and  S_8 
REMARK    2  A    between atoms: S_8  and  C_9 
REMARK    3  A    between atoms: C_9  and  C_10 
REMARK    4  A    between atoms: C_18  and  C_19 
REMARK    5  A    between atoms: C_27  and  C_28 
REMARK    6  A    between atoms: C_28  and  O_29 
ROOT
HETATM    1  C   UNL     1      39.325 -11.697   3.348  1.00  0.00     0.070 C 
HETATM    2  C   UNL     1      39.883 -12.712   2.380  1.00  0.00     0.037 A 
HETATM    3  N   UNL     1      40.842 -13.572   2.902  1.00  0.00    -0.192 N 
HETATM    4  C   UNL     1      41.447 -14.533   2.181  1.00  0.00     0.726 A 
HETATM    5  N   UNL     1      41.156 -14.655   0.850  1.00  0.00    -0.082 N 
HETATM    6  N   UNL     1      41.812 -15.695   0.299  1.00  0.00    -0.128 NA
HETATM    7  C   UNL     1      42.517 -16.133   1.349  1.00  0.00     0.226 A 
HETATM    8  N   UNL     1      42.318 -15.447   2.522  1.00  0.00    -0.035 NA
HETATM    9  C   UNL     1      40.190 -13.809   0.135  1.00  0.00     0.208 A 
HETATM   10  C   UNL     1      39.528 -12.805   1.073  1.00  0.00     0.070 A 
HETATM   11  H   UNL     1      41.072 -13.482   3.888  1.00  0.00     0.184 HD
ENDROOT
BRANCH   7  12
HETATM   12  S   UNL     1      43.603 -17.486   1.199  1.00  0.00    -0.083 SA
BRANCH  12  13
HETATM   13  C   UNL     1      43.564 -18.104   2.904  1.00  0.00     0.123 C 
BRANCH  13  14
HETATM   14  C   UNL     1      43.910 -19.573   2.977  1.00  0.00    -0.027 A 
HETATM   15  C   UNL     1      44.523 -20.157   4.097  1.00  0.00     0.041 A 
HETATM   16 CL   UNL     1      44.949 -19.233   5.493  1.00  0.00    -0.084 Cl
HETATM   17  C   UNL     1      44.816 -21.525   4.115  1.00  0.00     0.024 A 
HETATM   18  C   UNL     1      44.499 -22.328   3.021  1.00  0.00     0.002 A 
HETATM   19  C   UNL     1      43.882 -21.767   1.907  1.00  0.00     0.001 A 
HETATM   20  C   UNL     1      43.586 -20.402   1.885  1.00  0.00     0.009 A 
ENDBRANCH  13  14
ENDBRANCH  12  13
ENDBRANCH   7  12
BRANCH   9  21
HETATM   21  C   UNL     1      40.831 -13.231  -1.116  1.00  0.00     0.032 A 
HETATM   22  C   UNL     1      41.804 -12.219  -1.130  1.00  0.00     0.045 A 
HETATM   23 CL   UNL     1      42.402 -11.477   0.310  1.00  0.00    -0.084 Cl
HETATM   24  C   UNL     1      42.343 -11.758  -2.341  1.00  0.00     0.024 A 
HETATM   25  C   UNL     1      41.927 -12.300  -3.556  1.00  0.00     0.005 A 
HETATM   26  C   UNL     1      40.967 -13.304  -3.561  1.00  0.00     0.043 A 
HETATM   27  C   UNL     1      40.434 -13.755  -2.356  1.00  0.00     0.126 A 
HETATM   28  F   UNL     1      39.502 -14.719  -2.403  1.00  0.00    -0.205 F 
ENDBRANCH   9  21
BRANCH  10  29
HETATM   29  C   UNL     1      38.443 -12.001   0.473  1.00  0.00     0.293 C 
HETATM   30  O   UNL     1      38.624 -10.962  -0.139  1.00  0.00    -0.259 OA
BRANCH  29  31
HETATM   31  O   UNL     1      37.253 -12.632   0.633  1.00  0.00    -0.323 OA
HETATM   32  C   UNL     1      36.118 -11.785   0.452  1.00  0.00     0.213 C 
ENDBRANCH  29  31
ENDBRANCH  10  29
TORSDOF 6
ENDMDL
MODEL 6
REMARK VINA RESULT:      -7.9      1.957      3.103
REMARK  6 active torsions:
REMARK  status: ('A' for Active; 'I' for Inactive)
REMARK    1  A    between atoms: C_7  and  S_8 
REMARK    2  A    between atoms: S_8  and  C_9 
REMARK    3  A    between atoms: C_9  and  C_10 
REMARK    4  A    between atoms: C_18  and  C_19 
REMARK    5  A    between atoms: C_27  and  C_28 
REMARK    6  A    between atoms: C_28  and  O_29 
ROOT
HETATM    1  C   UNL     1      40.022 -15.551  -3.571  1.00  0.00     0.070 C 
HETATM    2  C   UNL     1      40.543 -15.018  -2.260  1.00  0.00     0.037 A 
HETATM    3  N   UNL     1      41.052 -15.971  -1.385  1.00  0.00    -0.192 N 
HETATM    4  C   UNL     1      41.554 -15.673  -0.173  1.00  0.00     0.726 A 
HETATM    5  N   UNL     1      41.524 -14.377   0.263  1.00  0.00    -0.082 N 
HETATM    6  N   UNL     1      42.109 -14.254   1.472  1.00  0.00    -0.128 NA
HETATM    7  C   UNL     1      42.433 -15.528   1.725  1.00  0.00     0.226 A 
HETATM    8  N   UNL     1      42.110 -16.428   0.738  1.00  0.00    -0.035 NA
HETATM    9  C   UNL     1      40.995 -13.253  -0.521  1.00  0.00     0.208 A 
HETATM   10  C   UNL     1      40.518 -13.710  -1.896  1.00  0.00     0.070 A 
HETATM   11  H   UNL     1      41.068 -16.938  -1.698  1.00  0.00     0.184 HD
ENDROOT
BRANCH   7  12
HETATM   12  S   UNL     1      43.212 -15.975   3.217  1.00  0.00    -0.083 SA
BRANCH  12  13
HETATM   13  C   UNL     1      42.308 -17.503   3.591  1.00  0.00     0.123 C 
BRANCH  13  14
HETATM   14  C   UNL     1      43.146 -18.731   3.325  1.00  0.00    -0.027 A 
HETATM   15  C   UNL     1      44.117 -19.200   4.224  1.00  0.00     0.041 A 
HETATM   16 CL   UNL     1      44.447 -18.398   5.718  1.00  0.00    -0.084 Cl
HETATM   17  C   UNL     1      44.862 -20.348   3.932  1.00  0.00     0.024 A 
HETATM   18  C   UNL     1      44.646 -21.044   2.743  1.00  0.00     0.002 A 
HETATM   19  C   UNL     1      43.680 -20.597   1.846  1.00  0.00     0.001 A 
HETATM   20  C   UNL     1      42.933 -19.453   2.135  1.00  0.00     0.009 A 
ENDBRANCH  13  14
ENDBRANCH  12  13
ENDBRANCH   7  12
BRANCH   9  21
HETATM   21  C   UNL     1      39.990 -12.468   0.306  1.00  0.00     0.032 A 
HETATM   22  C   UNL     1      40.187 -11.165   0.793  1.00  0.00     0.045 A 
HETATM   23 CL   UNL     1      41.638 -10.273   0.512  1.00  0.00    -0.084 Cl
HETATM   24  C   UNL     1      39.190 -10.521   1.542  1.00  0.00     0.024 A 
HETATM   25  C   UNL     1      37.982 -11.160   1.815  1.00  0.00     0.005 A 
HETATM   26  C   UNL     1      37.769 -12.448   1.339  1.00  0.00     0.043 A 
HETATM   27  C   UNL     1      38.763 -13.083   0.599  1.00  0.00     0.126 A 
HETATM   28  F   UNL     1      38.523 -14.330   0.165  1.00  0.00    -0.205 F 
ENDBRANCH   9  21
BRANCH  10  29
HETATM   29  C   UNL     1      40.093 -12.628  -2.809  1.00  0.00     0.293 C 
HETATM   30  O   UNL     1      38.938 -12.258  -2.936  1.00  0.00    -0.259 OA
BRANCH  29  31
HETATM   31  O   UNL     1      41.177 -12.067  -3.402  1.00  0.00    -0.323 OA
HETATM   32  C   UNL     1      40.867 -10.965  -4.255  1.00  0.00     0.213 C 
ENDBRANCH  29  31
ENDBRANCH  10  29
TORSDOF 6
ENDMDL
MODEL 7
REMARK VINA RESULT:      -7.9      4.584      8.529
REMARK  6 active torsions:
REMARK  status: ('A' for Active; 'I' for Inactive)
REMARK    1  A    between atoms: C_7  and  S_8 
REMARK    2  A    between atoms: S_8  and  C_9 
REMARK    3  A    between atoms: C_9  and  C_10 
REMARK    4  A    between atoms: C_18  and  C_19 
REMARK    5  A    between atoms: C_27  and  C_28 
REMARK    6  A    between atoms: C_28  and  O_29 
ROOT
HETATM    1  C   UNL     1      44.403 -20.200   2.610  1.00  0.00     0.070 C 
HETATM    2  C   UNL     1      43.467 -19.098   3.040  1.00  0.00     0.037 A 
HETATM    3  N   UNL     1      42.663 -18.569   2.036  1.00  0.00    -0.192 N 
HETATM    4  C   UNL     1      41.776 -17.579   2.240  1.00  0.00     0.726 A 
HETATM    5  N   UNL     1      41.678 -17.013   3.481  1.00  0.00    -0.082 N 
HETATM    6  N   UNL     1      40.709 -16.076   3.517  1.00  0.00    -0.128 NA
HETATM    7  C   UNL     1      40.290 -16.099   2.246  1.00  0.00     0.226 A 
HETATM    8  N   UNL     1      40.919 -17.010   1.432  1.00  0.00    -0.035 NA
HETATM    9  C   UNL     1      42.472 -17.432   4.645  1.00  0.00     0.208 A 
HETATM   10  C   UNL     1      43.391 -18.600   4.300  1.00  0.00     0.070 A 
HETATM   11  H   UNL     1      42.737 -18.977   1.108  1.00  0.00     0.184 HD
ENDROOT
BRANCH   7  12
HETATM   12  S   UNL     1      39.029 -15.031   1.698  1.00  0.00    -0.083 SA
BRANCH  12  13
HETATM   13  C   UNL     1      40.001 -13.920   0.644  1.00  0.00     0.123 C 
BRANCH  13  14
HETATM   14  C   UNL     1      39.938 -14.327  -0.810  1.00  0.00    -0.027 A 
HETATM   15  C   UNL     1      38.903 -13.925  -1.669  1.00  0.00     0.041 A 
HETATM   16 CL   UNL     1      37.596 -12.933  -1.129  1.00  0.00    -0.084 Cl
HETATM   17  C   UNL     1      38.896 -14.326  -3.010  1.00  0.00     0.024 A 
HETATM   18  C   UNL     1      39.921 -15.127  -3.510  1.00  0.00     0.002 A 
HETATM   19  C   UNL     1      40.959 -15.526  -2.674  1.00  0.00     0.001 A 
HETATM   20  C   UNL     1      40.971 -15.127  -1.336  1.00  0.00     0.009 A 
ENDBRANCH  13  14
ENDBRANCH  12  13
ENDBRANCH   7  12
BRANCH   9  21
HETATM   21  C   UNL     1      43.140 -16.223   5.281  1.00  0.00     0.032 A 
HETATM   22  C   UNL     1      43.735 -15.165   4.575  1.00  0.00     0.045 A 
HETATM   23 CL   UNL     1      43.794 -15.109   2.850  1.00  0.00    -0.084 Cl
HETATM   24  C   UNL     1      44.319 -14.087   5.257  1.00  0.00     0.024 A 
HETATM   25  C   UNL     1      44.315 -14.040   6.649  1.00  0.00     0.005 A 
HETATM   26  C   UNL     1      43.728 -15.077   7.364  1.00  0.00     0.043 A 
HETATM   27  C   UNL     1      43.153 -16.146   6.682  1.00  0.00     0.126 A 
HETATM   28  F   UNL     1      42.604 -17.132   7.408  1.00  0.00    -0.205 F 
ENDBRANCH   9  21
BRANCH  10  29
HETATM   29  C   UNL     1      44.131 -19.178   5.441  1.00  0.00     0.293 C 
HETATM   30  O   UNL     1      45.284 -18.895   5.720  1.00  0.00    -0.259 OA
BRANCH  29  31
HETATM   31  O   UNL     1      43.316 -19.988   6.162  1.00  0.00    -0.323 OA
HETATM   32  C   UNL     1      43.971 -21.134   6.707  1.00  0.00     0.213 C 
ENDBRANCH  29  31
ENDBRANCH  10  29
TORSDOF 6
ENDMDL
MODEL 8
REMARK VINA RESULT:      -7.9      3.395      4.266
REMARK  6 active torsions:
REMARK  status: ('A' for Active; 'I' for Inactive)
REMARK    1  A    between atoms: C_7  and  S_8 
REMARK    2  A    between atoms: S_8  and  C_9 
REMARK    3  A    between atoms: C_9  and  C_10 
REMARK    4  A    between atoms: C_18  and  C_19 
REMARK    5  A    between atoms: C_27  and  C_28 
REMARK    6  A    between atoms: C_28  and  O_29 
ROOT
HETATM    1  C   UNL     1      41.277 -10.074   4.925  1.00  0.00     0.070 C 
HETATM    2  C   UNL     1      40.981 -11.481   4.470  1.00  0.00     0.037 A 
HETATM    3  N   UNL     1      41.651 -12.487   5.158  1.00  0.00    -0.192 N 
HETATM    4  C   UNL     1      41.509 -13.796   4.881  1.00  0.00     0.726 A 
HETATM    5  N   UNL     1      40.710 -14.177   3.839  1.00  0.00    -0.082 N 
HETATM    6  N   UNL     1      40.646 -15.520   3.738  1.00  0.00    -0.128 NA
HETATM    7  C   UNL     1      41.468 -15.887   4.729  1.00  0.00     0.226 A 
HETATM    8  N   UNL     1      42.015 -14.857   5.455  1.00  0.00    -0.035 NA
HETATM    9  C   UNL     1      39.955 -13.243   2.992  1.00  0.00     0.208 A 
HETATM   10  C   UNL     1      40.148 -11.800   3.446  1.00  0.00     0.070 A 
HETATM   11  H   UNL     1      42.255 -12.211   5.928  1.00  0.00     0.184 HD
ENDROOT
BRANCH   7  12
HETATM   12  S   UNL     1      41.796 -17.567   5.047  1.00  0.00    -0.083 SA
BRANCH  12  13
HETATM   13  C   UNL     1      43.494 -17.675   4.417  1.00  0.00     0.123 C 
BRANCH  13  14
HETATM   14  C   UNL     1      43.757 -18.998   3.736  1.00  0.00    -0.027 A 
HETATM   15  C   UNL     1      43.286 -19.298   2.447  1.00  0.00     0.041 A 
HETATM   16 CL   UNL     1      42.346 -18.176   1.530  1.00  0.00    -0.084 Cl
HETATM   17  C   UNL     1      43.563 -20.537   1.859  1.00  0.00     0.024 A 
HETATM   18  C   UNL     1      44.317 -21.488   2.545  1.00  0.00     0.002 A 
HETATM   19  C   UNL     1      44.799 -21.203   3.819  1.00  0.00     0.001 A 
HETATM   20  C   UNL     1      44.526 -19.967   4.408  1.00  0.00     0.009 A 
ENDBRANCH  13  14
ENDBRANCH  12  13
ENDBRANCH   7  12
BRANCH   9  21
HETATM   21  C   UNL     1      40.241 -13.525   1.526  1.00  0.00     0.032 A 
HETATM   22  C   UNL     1      39.293 -13.969   0.590  1.00  0.00     0.045 A 
HETATM   23 CL   UNL     1      37.643 -14.269   1.001  1.00  0.00    -0.084 Cl
HETATM   24  C   UNL     1      39.655 -14.191  -0.748  1.00  0.00     0.024 A 
HETATM   25  C   UNL     1      40.962 -13.972  -1.176  1.00  0.00     0.005 A 
HETATM   26  C   UNL     1      41.913 -13.530  -0.264  1.00  0.00     0.043 A 
HETATM   27  C   UNL     1      41.548 -13.313   1.062  1.00  0.00     0.126 A 
HETATM   28  F   UNL     1      42.497 -12.896   1.915  1.00  0.00    -0.205 F 
ENDBRANCH   9  21
BRANCH  10  29
HETATM   29  C   UNL     1      39.322 -10.800   2.739  1.00  0.00     0.293 C 
HETATM   30  O   UNL     1      39.777  -9.917   2.030  1.00  0.00    -0.259 OA
BRANCH  29  31
HETATM   31  O   UNL     1      38.005 -11.067   2.927  1.00  0.00    -0.323 OA
HETATM   32  C   UNL     1      37.182 -10.755   1.803  1.00  0.00     0.213 C 
ENDBRANCH  29  31
ENDBRANCH  10  29
TORSDOF 6
ENDMDL
MODEL 9
REMARK VINA RESULT:      -7.6      3.032      3.855
REMARK  6 active torsions:
REMARK  status: ('A' for Active; 'I' for Inactive)
REMARK    1  A    between atoms: C_7  and  S_8 
REMARK    2  A    between atoms: S_8  and  C_9 
REMARK    3  A    between atoms: C_9  and  C_10 
REMARK    4  A    between atoms: C_18  and  C_19 
REMARK    5  A    between atoms: C_27  and  C_28 
REMARK    6  A    between atoms: C_28  and  O_29 
ROOT
HETATM    1  C   UNL     1      40.347  -9.987   4.615  1.00  0.00     0.070 C 
HETATM    2  C   UNL     1      40.188 -11.392   4.089  1.00  0.00     0.037 A 
HETATM    3  N   UNL     1      40.942 -12.364   4.737  1.00  0.00    -0.192 N 
HETATM    4  C   UNL     1      40.926 -13.665   4.397  1.00  0.00     0.726 A 
HETATM    5  N   UNL     1      40.176 -14.068   3.327  1.00  0.00    -0.082 N 
HETATM    6  N   UNL     1      40.238 -15.404   3.161  1.00  0.00    -0.128 NA
HETATM    7  C   UNL     1      41.082 -15.741   4.144  1.00  0.00     0.226 A 
HETATM    8  N   UNL     1      41.524 -14.701   4.925  1.00  0.00    -0.035 NA
HETATM    9  C   UNL     1      39.345 -13.168   2.515  1.00  0.00     0.208 A 
HETATM   10  C   UNL     1      39.398 -11.737   3.040  1.00  0.00     0.070 A 
HETATM   11  H   UNL     1      41.511 -12.071   5.527  1.00  0.00     0.184 HD
ENDROOT
BRANCH   7  12
HETATM   12  S   UNL     1      41.563 -17.397   4.385  1.00  0.00    -0.083 SA
BRANCH  12  13
HETATM   13  C   UNL     1      43.002 -17.465   3.284  1.00  0.00     0.123 C 
BRANCH  13  14
HETATM   14  C   UNL     1      43.529 -18.873   3.133  1.00  0.00    -0.027 A 
HETATM   15  C   UNL     1      44.362 -19.480   4.087  1.00  0.00     0.041 A 
HETATM   16 CL   UNL     1      44.869 -18.656   5.518  1.00  0.00    -0.084 Cl
HETATM   17  C   UNL     1      44.817 -20.790   3.903  1.00  0.00     0.024 A 
HETATM   18  C   UNL     1      44.445 -21.512   2.770  1.00  0.00     0.002 A 
HETATM   19  C   UNL     1      43.612 -20.928   1.820  1.00  0.00     0.001 A 
HETATM   20  C   UNL     1      43.154 -19.621   2.001  1.00  0.00     0.009 A 
ENDBRANCH  13  14
ENDBRANCH  12  13
ENDBRANCH   7  12
BRANCH   9  21
HETATM   21  C   UNL     1      39.668 -13.350   1.041  1.00  0.00     0.032 A 
HETATM   22  C   UNL     1      40.915 -13.091   0.450  1.00  0.00     0.045 A 
HETATM   23 CL   UNL     1      42.270 -12.507   1.346  1.00  0.00    -0.084 Cl
HETATM   24  C   UNL     1      41.115 -13.301  -0.923  1.00  0.00     0.024 A 
HETATM   25  C   UNL     1      40.082 -13.776  -1.728  1.00  0.00     0.005 A 
HETATM   26  C   UNL     1      38.842 -14.041  -1.160  1.00  0.00     0.043 A 
HETATM   27  C   UNL     1      38.648 -13.828   0.203  1.00  0.00     0.126 A 
HETATM   28  F   UNL     1      37.434 -14.086   0.713  1.00  0.00    -0.205 F 
ENDBRANCH   9  21
BRANCH  10  29
HETATM   29  C   UNL     1      38.488 -10.785   2.370  1.00  0.00     0.293 C 
HETATM   30  O   UNL     1      37.341 -10.572   2.727  1.00  0.00    -0.259 OA
BRANCH  29  31
HETATM   31  O   UNL     1      39.142 -10.138   1.374  1.00  0.00    -0.323 OA
HETATM   32  C   UNL     1      38.953  -8.722   1.378  1.00  0.00     0.213 C 
ENDBRANCH  29  31
ENDBRANCH  10  29
TORSDOF 6
ENDMDL
MODEL 10
REMARK VINA RESULT:      -7.6      4.262      7.478
REMARK  6 active torsions:
REMARK  status: ('A' for Active; 'I' for Inactive)
REMARK    1  A    between atoms: C_7  and  S_8 
REMARK    2  A    between atoms: S_8  and  C_9 
REMARK    3  A    between atoms: C_9  and  C_10 
REMARK    4  A    between atoms: C_18  and  C_19 
REMARK    5  A    between atoms: C_27  and  C_28 
REMARK    6  A    between atoms: C_28  and  O_29 
ROOT
HETATM    1  C   UNL     1      39.532 -12.856   6.257  1.00  0.00     0.070 C 
HETATM    2  C   UNL     1      40.374 -12.920   5.007  1.00  0.00     0.037 A 
HETATM    3  N   UNL     1      40.150 -11.906   4.082  1.00  0.00    -0.192 N 
HETATM    4  C   UNL     1      40.808 -11.811   2.912  1.00  0.00     0.726 A 
HETATM    5  N   UNL     1      41.712 -12.780   2.571  1.00  0.00    -0.082 N 
HETATM    6  N   UNL     1      42.309 -12.499   1.396  1.00  0.00    -0.128 NA
HETATM    7  C   UNL     1      41.685 -11.364   1.060  1.00  0.00     0.226 A 
HETATM    8  N   UNL     1      40.758 -10.908   1.967  1.00  0.00    -0.035 NA
HETATM    9  C   UNL     1      42.045 -13.933   3.418  1.00  0.00     0.208 A 
HETATM   10  C   UNL     1      41.283 -13.892   4.739  1.00  0.00     0.070 A 
HETATM   11  H   UNL     1      39.473 -11.188   4.323  1.00  0.00     0.184 HD
ENDROOT
BRANCH   7  12
HETATM   12  S   UNL     1      42.050 -10.547  -0.433  1.00  0.00    -0.083 SA
BRANCH  12  13
HETATM   13  C   UNL     1      40.627 -11.071  -1.429  1.00  0.00     0.123 C 
BRANCH  13  14
HETATM   14  C   UNL     1      40.764 -12.502  -1.894  1.00  0.00    -0.027 A 
HETATM   15  C   UNL     1      41.555 -12.873  -2.994  1.00  0.00     0.041 A 
HETATM   16 CL   UNL     1      42.435 -11.712  -3.923  1.00  0.00    -0.084 Cl
HETATM   17  C   UNL     1      41.652 -14.214  -3.379  1.00  0.00     0.024 A 
HETATM   18  C   UNL     1      40.967 -15.201  -2.673  1.00  0.00     0.002 A 
HETATM   19  C   UNL     1      40.187 -14.851  -1.575  1.00  0.00     0.001 A 
HETATM   20  C   UNL     1      40.089 -13.514  -1.186  1.00  0.00     0.009 A 
ENDBRANCH  13  14
ENDBRANCH  12  13
ENDBRANCH   7  12
BRANCH   9  21
HETATM   21  C   UNL     1      41.922 -15.219   2.617  1.00  0.00     0.032 A 
HETATM   22  C   UNL     1      40.723 -15.741   2.106  1.00  0.00     0.045 A 
HETATM   23 CL   UNL     1      39.195 -14.972   2.341  1.00  0.00    -0.084 Cl
HETATM   24  C   UNL     1      40.716 -16.935   1.369  1.00  0.00     0.024 A 
HETATM   25  C   UNL     1      41.902 -17.625   1.123  1.00  0.00     0.005 A 
HETATM   26  C   UNL     1      43.098 -17.122   1.618  1.00  0.00     0.043 A 
HETATM   27  C   UNL     1      43.098 -15.938   2.352  1.00  0.00     0.126 A 
HETATM   28  F   UNL     1      44.272 -15.490   2.821  1.00  0.00    -0.205 F 
ENDBRANCH   9  21
BRANCH  10  29
HETATM   29  C   UNL     1      41.653 -14.939   5.714  1.00  0.00     0.293 C 
HETATM   30  O   UNL     1      40.929 -15.872   6.020  1.00  0.00    -0.259 OA
BRANCH  29  31
HETATM   31  O   UNL     1      42.928 -14.751   6.138  1.00  0.00    -0.323 OA
HETATM   32  C   UNL     1      43.635 -15.962   6.406  1.00  0.00     0.213 C 
ENDBRANCH  29  31
ENDBRANCH  10  29
TORSDOF 6
ENDMDL
