MODEL 1
REMARK VINA RESULT:      -7.9      0.000      0.000
REMARK  5 active torsions:
REMARK  status: ('A' for Active; 'I' for Inactive)
REMARK    1  A    between atoms: C_2  and  O_3 
REMARK    2  A    between atoms: O_3  and  C_4 
REMARK    3  A    between atoms: C_4  and  C_5 
REMARK    4  A    between atoms: C_6  and  C_7 
REMARK    5  A    between atoms: C_22  and  N_23 
ROOT
HETATM    1  C   UNL     1      43.109 -15.518   5.121  1.00  0.00     0.075 A 
HETATM    2  C   UNL     1      42.851 -16.419   4.056  1.00  0.00     0.008 A 
HETATM    3  C   UNL     1      43.396 -17.732   4.138  1.00  0.00     0.045 A 
HETATM    4  C   UNL     1      44.190 -17.998   5.268  1.00  0.00     0.143 A 
HETATM    5  N   UNL     1      44.872 -19.201   5.384  1.00  0.00    -0.306 N 
HETATM    6  C   UNL     1      44.885 -20.176   4.439  1.00  0.00     0.268 A 
HETATM    7  O   UNL     1      45.567 -21.186   4.567  1.00  0.00    -0.266 OA
HETATM    8  C   UNL     1      44.006 -19.958   3.271  1.00  0.00     0.120 A 
HETATM    9  C   UNL     1      43.952 -21.045   2.211  1.00  0.00     0.027 C 
HETATM   10  N   UNL     1      43.909 -21.949   1.332  1.00  0.00    -0.096 N 
HETATM   11  C   UNL     1      43.250 -18.843   3.129  1.00  0.00     0.046 A 
HETATM   12  N   UNL     1      44.416 -17.146   6.289  1.00  0.00    -0.234 NA
HETATM   13  C   UNL     1      43.878 -15.911   6.212  1.00  0.00     0.050 A 
HETATM   14  C   UNL     1      44.184 -14.984   7.353  1.00  0.00     0.071 C 
HETATM   15  H   UNL     1      45.460 -19.315   6.199  1.00  0.00     0.170 HD
ENDROOT
BRANCH  11  16
HETATM   16  N   UNL     1      42.349 -18.672   2.086  1.00  0.00    -0.301 NA
HETATM   17  H   UNL     1      41.429 -18.305   2.331  1.00  0.00     0.124 HD
HETATM   18  H   UNL     1      42.718 -18.175   1.280  1.00  0.00     0.124 HD
ENDBRANCH  11  16
BRANCH   2  19
HETATM   19  C   UNL     1      42.071 -15.926   2.903  1.00  0.00    -0.024 A 
HETATM   20  C   UNL     1      40.671 -16.037   2.883  1.00  0.00     0.014 A 
HETATM   21  C   UNL     1      39.930 -15.562   1.798  1.00  0.00     0.024 A 
HETATM   22  C   UNL     1      40.584 -14.982   0.714  1.00  0.00     0.034 A 
HETATM   23 CL   UNL     1      39.673 -14.390  -0.619  1.00  0.00    -0.084 Cl
HETATM   24  C   UNL     1      41.973 -14.876   0.704  1.00  0.00     0.024 A 
HETATM   25  C   UNL     1      42.713 -15.347   1.793  1.00  0.00     0.014 A 
ENDBRANCH   2  19
BRANCH   1  26
HETATM   26  C   UNL     1      42.645 -14.123   5.061  1.00  0.00     0.296 C 
HETATM   27  O   UNL     1      43.294 -13.220   4.568  1.00  0.00    -0.259 OA
BRANCH  26  28
HETATM   28  O   UNL     1      41.444 -14.054   5.680  1.00  0.00    -0.318 OA
BRANCH  28  29
HETATM   29  C   UNL     1      40.766 -12.791   5.607  1.00  0.00     0.174 C 
HETATM   30  C   UNL     1      39.774 -12.834   4.461  1.00  0.00     0.034 C 
ENDBRANCH  28  29
ENDBRANCH  26  28
ENDBRANCH   1  26
TORSDOF 5
ENDMDL
MODEL 2
REMARK VINA RESULT:      -7.3      3.940      7.409
REMARK  5 active torsions:
REMARK  status: ('A' for Active; 'I' for Inactive)
REMARK    1  A    between atoms: C_2  and  O_3 
REMARK    2  A    between atoms: O_3  and  C_4 
REMARK    3  A    between atoms: C_4  and  C_5 
REMARK    4  A    between atoms: C_6  and  C_7 
REMARK    5  A    between atoms: C_22  and  N_23 
ROOT
HETATM    1  C   UNL     1      40.887 -15.526   2.083  1.00  0.00     0.075 A 
HETATM    2  C   UNL     1      40.861 -15.314   3.485  1.00  0.00     0.008 A 
HETATM    3  C   UNL     1      40.145 -14.188   3.984  1.00  0.00     0.045 A 
HETATM    4  C   UNL     1      39.558 -13.356   3.014  1.00  0.00     0.143 A 
HETATM    5  N   UNL     1      38.947 -12.165   3.382  1.00  0.00    -0.306 N 
HETATM    6  C   UNL     1      38.902 -11.680   4.650  1.00  0.00     0.268 A 
HETATM    7  O   UNL     1      38.413 -10.586   4.902  1.00  0.00    -0.266 OA
HETATM    8  C   UNL     1      39.447 -12.564   5.701  1.00  0.00     0.120 A 
HETATM    9  C   UNL     1      39.374 -12.082   7.141  1.00  0.00     0.027 C 
HETATM   10  N   UNL     1      39.311 -11.681   8.335  1.00  0.00    -0.096 N 
HETATM   11  C   UNL     1      39.987 -13.775   5.426  1.00  0.00     0.046 A 
HETATM   12  N   UNL     1      39.567 -13.571   1.682  1.00  0.00    -0.234 NA
HETATM   13  C   UNL     1      40.231 -14.652   1.222  1.00  0.00     0.050 A 
HETATM   14  C   UNL     1      40.244 -14.834  -0.269  1.00  0.00     0.071 C 
HETATM   15  H   UNL     1      38.583 -11.589   2.635  1.00  0.00     0.170 HD
ENDROOT
BRANCH  11  16
HETATM   16  N   UNL     1      40.413 -14.653   6.413  1.00  0.00    -0.301 NA
HETATM   17  H   UNL     1      41.244 -14.383   6.939  1.00  0.00     0.124 HD
HETATM   18  H   UNL     1      39.685 -14.964   7.051  1.00  0.00     0.124 HD
ENDBRANCH  11  16
BRANCH   2  19
HETATM   19  C   UNL     1      41.619 -16.248   4.343  1.00  0.00    -0.024 A 
HETATM   20  C   UNL     1      41.095 -17.511   4.667  1.00  0.00     0.014 A 
HETATM   21  C   UNL     1      41.815 -18.400   5.469  1.00  0.00     0.024 A 
HETATM   22  C   UNL     1      43.061 -18.030   5.967  1.00  0.00     0.034 A 
HETATM   23 CL   UNL     1      43.952 -19.125   6.949  1.00  0.00    -0.084 Cl
HETATM   24  C   UNL     1      43.593 -16.776   5.673  1.00  0.00     0.024 A 
HETATM   25  C   UNL     1      42.875 -15.889   4.866  1.00  0.00     0.014 A 
ENDBRANCH   2  19
BRANCH   1  26
HETATM   26  C   UNL     1      41.675 -16.622   1.497  1.00  0.00     0.296 C 
HETATM   27  O   UNL     1      41.190 -17.672   1.122  1.00  0.00    -0.259 OA
BRANCH  26  28
HETATM   28  O   UNL     1      42.978 -16.255   1.515  1.00  0.00    -0.318 OA
BRANCH  28  29
HETATM   29  C   UNL     1      43.926 -17.273   1.160  1.00  0.00     0.174 C 
HETATM   30  C   UNL     1      44.064 -18.238   2.321  1.00  0.00     0.034 C 
ENDBRANCH  28  29
ENDBRANCH  26  28
ENDBRANCH   1  26
TORSDOF 5
ENDMDL
MODEL 3
REMARK VINA RESULT:      -7.0      3.648      6.257
REMARK  5 active torsions:
REMARK  status: ('A' for Active; 'I' for Inactive)
REMARK    1  A    between atoms: C_2  and  O_3 
REMARK    2  A    between atoms: O_3  and  C_4 
REMARK    3  A    between atoms: C_4  and  C_5 
REMARK    4  A    between atoms: C_6  and  C_7 
REMARK    5  A    between atoms: C_22  and  N_23 
ROOT
HETATM    1  C   UNL     1      42.077 -14.165   3.175  1.00  0.00     0.075 A 
HETATM    2  C   UNL     1      41.938 -14.878   1.957  1.00  0.00     0.008 A 
HETATM    3  C   UNL     1      41.332 -14.214   0.853  1.00  0.00     0.045 A 
HETATM    4  C   UNL     1      40.882 -12.904   1.096  1.00  0.00     0.143 A 
HETATM    5  N   UNL     1      40.164 -12.213   0.130  1.00  0.00    -0.306 N 
HETATM    6  C   UNL     1      39.795 -12.727  -1.073  1.00  0.00     0.268 A 
HETATM    7  O   UNL     1      39.098 -12.092  -1.855  1.00  0.00    -0.266 OA
HETATM    8  C   UNL     1      40.312 -14.075  -1.388  1.00  0.00     0.120 A 
HETATM    9  C   UNL     1      39.964 -14.669  -2.742  1.00  0.00     0.027 C 
HETATM   10  N   UNL     1      39.675 -15.161  -3.867  1.00  0.00    -0.096 N 
HETATM   11  C   UNL     1      41.085 -14.776  -0.525  1.00  0.00     0.046 A 
HETATM   12  N   UNL     1      41.034 -12.220   2.249  1.00  0.00    -0.234 NA
HETATM   13  C   UNL     1      41.628 -12.852   3.284  1.00  0.00     0.050 A 
HETATM   14  C   UNL     1      41.745 -12.067   4.558  1.00  0.00     0.071 C 
HETATM   15  H   UNL     1      39.830 -11.292   0.380  1.00  0.00     0.170 HD
ENDROOT
BRANCH  11  16
HETATM   16  N   UNL     1      41.656 -16.001  -0.848  1.00  0.00    -0.301 NA
HETATM   17  H   UNL     1      42.610 -15.981  -1.208  1.00  0.00     0.124 HD
HETATM   18  H   UNL     1      41.569 -16.715  -0.130  1.00  0.00     0.124 HD
ENDBRANCH  11  16
BRANCH   2  19
HETATM   19  C   UNL     1      42.388 -16.285   1.921  1.00  0.00    -0.024 A 
HETATM   20  C   UNL     1      43.743 -16.600   1.729  1.00  0.00     0.014 A 
HETATM   21  C   UNL     1      44.172 -17.930   1.705  1.00  0.00     0.024 A 
HETATM   22  C   UNL     1      43.247 -18.958   1.860  1.00  0.00     0.034 A 
HETATM   23 CL   UNL     1      43.775 -20.595   1.837  1.00  0.00    -0.084 Cl
HETATM   24  C   UNL     1      41.896 -18.670   2.035  1.00  0.00     0.024 A 
HETATM   25  C   UNL     1      41.467 -17.340   2.064  1.00  0.00     0.014 A 
ENDBRANCH   2  19
BRANCH   1  26
HETATM   26  C   UNL     1      42.619 -14.818   4.378  1.00  0.00     0.296 C 
HETATM   27  O   UNL     1      43.790 -14.765   4.700  1.00  0.00    -0.259 OA
BRANCH  26  28
HETATM   28  O   UNL     1      41.610 -15.489   4.979  1.00  0.00    -0.318 OA
BRANCH  28  29
HETATM   29  C   UNL     1      41.974 -16.301   6.106  1.00  0.00     0.174 C 
HETATM   30  C   UNL     1      42.219 -17.718   5.629  1.00  0.00     0.034 C 
ENDBRANCH  28  29
ENDBRANCH  26  28
ENDBRANCH   1  26
TORSDOF 5
ENDMDL
MODEL 4
REMARK VINA RESULT:      -6.8      3.255      5.859
REMARK  5 active torsions:
REMARK  status: ('A' for Active; 'I' for Inactive)
REMARK    1  A    between atoms: C_2  and  O_3 
REMARK    2  A    between atoms: O_3  and  C_4 
REMARK    3  A    between atoms: C_4  and  C_5 
REMARK    4  A    between atoms: C_6  and  C_7 
REMARK    5  A    between atoms: C_22  and  N_23 
ROOT
HETATM    1  C   UNL     1      42.044 -16.552   4.131  1.00  0.00     0.075 A 
HETATM    2  C   UNL     1      41.383 -15.423   3.583  1.00  0.00     0.008 A 
HETATM    3  C   UNL     1      41.094 -15.422   2.189  1.00  0.00     0.045 A 
HETATM    4  C   UNL     1      41.541 -16.544   1.468  1.00  0.00     0.143 A 
HETATM    5  N   UNL     1      41.426 -16.588   0.086  1.00  0.00    -0.306 N 
HETATM    6  C   UNL     1      40.941 -15.577  -0.681  1.00  0.00     0.268 A 
HETATM    7  O   UNL     1      40.933 -15.647  -1.904  1.00  0.00    -0.266 OA
HETATM    8  C   UNL     1      40.398 -14.413   0.050  1.00  0.00     0.120 A 
HETATM    9  C   UNL     1      39.801 -13.279  -0.767  1.00  0.00     0.027 C 
HETATM   10  N   UNL     1      39.305 -12.339  -1.447  1.00  0.00    -0.096 N 
HETATM   11  C   UNL     1      40.404 -14.336   1.402  1.00  0.00     0.046 A 
HETATM   12  N   UNL     1      42.152 -17.626   1.996  1.00  0.00    -0.234 NA
HETATM   13  C   UNL     1      42.402 -17.626   3.322  1.00  0.00     0.050 A 
HETATM   14  C   UNL     1      43.113 -18.833   3.860  1.00  0.00     0.071 C 
HETATM   15  H   UNL     1      41.805 -17.402  -0.378  1.00  0.00     0.170 HD
ENDROOT
BRANCH  11  16
HETATM   16  N   UNL     1      39.810 -13.293   2.100  1.00  0.00    -0.301 NA
HETATM   17  H   UNL     1      39.908 -12.360   1.701  1.00  0.00     0.124 HD
HETATM   18  H   UNL     1      38.843 -13.455   2.370  1.00  0.00     0.124 HD
ENDBRANCH  11  16
BRANCH   2  19
HETATM   19  C   UNL     1      41.074 -14.293   4.484  1.00  0.00    -0.024 A 
HETATM   20  C   UNL     1      39.882 -14.273   5.226  1.00  0.00     0.014 A 
HETATM   21  C   UNL     1      39.593 -13.210   6.087  1.00  0.00     0.024 A 
HETATM   22  C   UNL     1      40.489 -12.151   6.205  1.00  0.00     0.034 A 
HETATM   23 CL   UNL     1      40.139 -10.846   7.269  1.00  0.00    -0.084 Cl
HETATM   24  C   UNL     1      41.670 -12.143   5.466  1.00  0.00     0.024 A 
HETATM   25  C   UNL     1      41.961 -13.208   4.608  1.00  0.00     0.014 A 
ENDBRANCH   2  19
BRANCH   1  26
HETATM   26  C   UNL     1      42.444 -16.581   5.547  1.00  0.00     0.296 C 
HETATM   27  O   UNL     1      41.726 -16.990   6.440  1.00  0.00    -0.259 OA
BRANCH  26  28
HETATM   28  O   UNL     1      43.682 -16.043   5.642  1.00  0.00    -0.318 OA
BRANCH  28  29
HETATM   29  C   UNL     1      44.113 -15.680   6.963  1.00  0.00     0.174 C 
HETATM   30  C   UNL     1      44.645 -14.261   6.931  1.00  0.00     0.034 C 
ENDBRANCH  28  29
ENDBRANCH  26  28
ENDBRANCH   1  26
TORSDOF 5
ENDMDL
MODEL 5
REMARK VINA RESULT:      -6.7      2.644      4.737
REMARK  5 active torsions:
REMARK  status: ('A' for Active; 'I' for Inactive)
REMARK    1  A    between atoms: C_2  and  O_3 
REMARK    2  A    between atoms: O_3  and  C_4 
REMARK    3  A    between atoms: C_4  and  C_5 
REMARK    4  A    between atoms: C_6  and  C_7 
REMARK    5  A    between atoms: C_22  and  N_23 
ROOT
HETATM    1  C   UNL     1      41.504 -15.412   2.475  1.00  0.00     0.075 A 
HETATM    2  C   UNL     1      41.830 -15.429   3.855  1.00  0.00     0.008 A 
HETATM    3  C   UNL     1      42.563 -16.540   4.362  1.00  0.00     0.045 A 
HETATM    4  C   UNL     1      42.860 -17.554   3.434  1.00  0.00     0.143 A 
HETATM    5  N   UNL     1      43.457 -18.736   3.847  1.00  0.00    -0.306 N 
HETATM    6  C   UNL     1      43.753 -19.042   5.137  1.00  0.00     0.268 A 
HETATM    7  O   UNL     1      44.213 -20.134   5.449  1.00  0.00    -0.266 OA
HETATM    8  C   UNL     1      43.519 -17.971   6.127  1.00  0.00     0.120 A 
HETATM    9  C   UNL     1      43.881 -18.252   7.576  1.00  0.00     0.027 C 
HETATM   10  N   UNL     1      44.183 -18.487   8.778  1.00  0.00    -0.096 N 
HETATM   11  C   UNL     1      43.013 -16.762   5.784  1.00  0.00     0.046 A 
HETATM   12  N   UNL     1      42.566 -17.526   2.117  1.00  0.00    -0.234 NA
HETATM   13  C   UNL     1      41.889 -16.459   1.643  1.00  0.00     0.050 A 
HETATM   14  C   UNL     1      41.555 -16.486   0.180  1.00  0.00     0.071 C 
HETATM   15  H   UNL     1      43.605 -19.444   3.141  1.00  0.00     0.170 HD
ENDROOT
BRANCH  11  16
HETATM   16  N   UNL     1      42.879 -15.717   6.689  1.00  0.00    -0.301 NA
HETATM   17  H   UNL     1      42.531 -14.833   6.319  1.00  0.00     0.124 HD
HETATM   18  H   UNL     1      42.386 -15.953   7.545  1.00  0.00     0.124 HD
ENDBRANCH  11  16
BRANCH   2  19
HETATM   19  C   UNL     1      41.348 -14.313   4.696  1.00  0.00    -0.024 A 
HETATM   20  C   UNL     1      42.110 -13.142   4.839  1.00  0.00     0.014 A 
HETATM   21  C   UNL     1      41.651 -12.081   5.625  1.00  0.00     0.024 A 
HETATM   22  C   UNL     1      40.431 -12.187   6.286  1.00  0.00     0.034 A 
HETATM   23 CL   UNL     1      39.861 -10.880   7.249  1.00  0.00    -0.084 Cl
HETATM   24  C   UNL     1      39.666 -13.346   6.172  1.00  0.00     0.024 A 
HETATM   25  C   UNL     1      40.123 -14.405   5.382  1.00  0.00     0.014 A 
ENDBRANCH   2  19
BRANCH   1  26
HETATM   26  C   UNL     1      40.679 -14.336   1.904  1.00  0.00     0.296 C 
HETATM   27  O   UNL     1      41.138 -13.298   1.467  1.00  0.00    -0.259 OA
BRANCH  26  28
HETATM   28  O   UNL     1      39.381 -14.702   2.013  1.00  0.00    -0.318 OA
BRANCH  28  29
HETATM   29  C   UNL     1      38.411 -13.672   1.767  1.00  0.00     0.174 C 
HETATM   30  C   UNL     1      37.684 -13.986   0.474  1.00  0.00     0.034 C 
ENDBRANCH  28  29
ENDBRANCH  26  28
ENDBRANCH   1  26
TORSDOF 5
ENDMDL
MODEL 6
REMARK VINA RESULT:      -6.6      2.658      4.758
REMARK  5 active torsions:
REMARK  status: ('A' for Active; 'I' for Inactive)
REMARK    1  A    between atoms: C_2  and  O_3 
REMARK    2  A    between atoms: O_3  and  C_4 
REMARK    3  A    between atoms: C_4  and  C_5 
REMARK    4  A    between atoms: C_6  and  C_7 
REMARK    5  A    between atoms: C_22  and  N_23 
ROOT
HETATM    1  C   UNL     1      41.216 -14.842   1.209  1.00  0.00     0.075 A 
HETATM    2  C   UNL     1      41.712 -15.098   2.513  1.00  0.00     0.008 A 
HETATM    3  C   UNL     1      42.550 -16.234   2.705  1.00  0.00     0.045 A 
HETATM    4  C   UNL     1      42.772 -17.031   1.568  1.00  0.00     0.143 A 
HETATM    5  N   UNL     1      43.466 -18.229   1.670  1.00  0.00    -0.306 N 
HETATM    6  C   UNL     1      43.935 -18.753   2.832  1.00  0.00     0.268 A 
HETATM    7  O   UNL     1      44.476 -19.851   2.869  1.00  0.00    -0.266 OA
HETATM    8  C   UNL     1      43.780 -17.907   4.033  1.00  0.00     0.120 A 
HETATM    9  C   UNL     1      44.332 -18.433   5.348  1.00  0.00     0.027 C 
HETATM   10  N   UNL     1      44.792 -18.871   6.438  1.00  0.00    -0.096 N 
HETATM   11  C   UNL     1      43.183 -16.691   3.995  1.00  0.00     0.046 A 
HETATM   12  N   UNL     1      42.315 -16.774   0.324  1.00  0.00    -0.234 NA
HETATM   13  C   UNL     1      41.539 -15.684   0.150  1.00  0.00     0.050 A 
HETATM   14  C   UNL     1      41.025 -15.455  -1.242  1.00  0.00     0.071 C 
HETATM   15  H   UNL     1      43.555 -18.778   0.826  1.00  0.00     0.170 HD
ENDROOT
BRANCH  11  16
HETATM   16  N   UNL     1      43.119 -15.848   5.096  1.00  0.00    -0.301 NA
HETATM   17  H   UNL     1      42.900 -14.869   4.911  1.00  0.00     0.124 HD
HETATM   18  H   UNL     1      42.550 -16.192   5.865  1.00  0.00     0.124 HD
ENDBRANCH  11  16
BRANCH   2  19
HETATM   19  C   UNL     1      41.292 -14.196   3.606  1.00  0.00    -0.024 A 
HETATM   20  C   UNL     1      40.171 -14.501   4.396  1.00  0.00     0.014 A 
HETATM   21  C   UNL     1      39.779 -13.654   5.437  1.00  0.00     0.024 A 
HETATM   22  C   UNL     1      40.496 -12.488   5.689  1.00  0.00     0.034 A 
HETATM   23 CL   UNL     1      40.019 -11.449   6.974  1.00  0.00    -0.084 Cl
HETATM   24  C   UNL     1      41.601 -12.158   4.908  1.00  0.00     0.024 A 
HETATM   25  C   UNL     1      41.996 -13.007   3.869  1.00  0.00     0.014 A 
ENDBRANCH   2  19
BRANCH   1  26
HETATM   26  C   UNL     1      40.280 -13.734   0.959  1.00  0.00     0.296 C 
HETATM   27  O   UNL     1      40.635 -12.612   0.650  1.00  0.00    -0.259 OA
BRANCH  26  28
HETATM   28  O   UNL     1      39.026 -14.188   1.184  1.00  0.00    -0.318 OA
BRANCH  28  29
HETATM   29  C   UNL     1      38.049 -13.871   0.181  1.00  0.00     0.174 C 
HETATM   30  C   UNL     1      37.158 -12.760   0.699  1.00  0.00     0.034 C 
ENDBRANCH  28  29
ENDBRANCH  26  28
ENDBRANCH   1  26
TORSDOF 5
ENDMDL
MODEL 7
REMARK VINA RESULT:      -6.5      3.712      6.418
REMARK  5 active torsions:
REMARK  status: ('A' for Active; 'I' for Inactive)
REMARK    1  A    between atoms: C_2  and  O_3 
REMARK    2  A    between atoms: O_3  and  C_4 
REMARK    3  A    between atoms: C_4  and  C_5 
REMARK    4  A    between atoms: C_6  and  C_7 
REMARK    5  A    between atoms: C_22  and  N_23 
ROOT
HETATM    1  C   UNL     1      40.801 -14.000   4.577  1.00  0.00     0.075 A 
HETATM    2  C   UNL     1      40.718 -14.480   3.245  1.00  0.00     0.008 A 
HETATM    3  C   UNL     1      39.841 -13.814   2.342  1.00  0.00     0.045 A 
HETATM    4  C   UNL     1      39.095 -12.751   2.882  1.00  0.00     0.143 A 
HETATM    5  N   UNL     1      38.119 -12.117   2.125  1.00  0.00    -0.306 N 
HETATM    6  C   UNL     1      37.766 -12.476   0.863  1.00  0.00     0.268 A 
HETATM    7  O   UNL     1      36.845 -11.925   0.273  1.00  0.00    -0.266 OA
HETATM    8  C   UNL     1      38.578 -13.543   0.242  1.00  0.00     0.120 A 
HETATM    9  C   UNL     1      38.249 -13.943  -1.187  1.00  0.00     0.027 C 
HETATM   10  N   UNL     1      37.975 -14.274  -2.373  1.00  0.00    -0.096 N 
HETATM   11  C   UNL     1      39.598 -14.152   0.892  1.00  0.00     0.046 A 
HETATM   12  N   UNL     1      39.191 -12.283   4.144  1.00  0.00    -0.234 NA
HETATM   13  C   UNL     1      40.040 -12.909   4.986  1.00  0.00     0.050 A 
HETATM   14  C   UNL     1      40.089 -12.377   6.389  1.00  0.00     0.071 C 
HETATM   15  H   UNL     1      37.587 -11.390   2.583  1.00  0.00     0.170 HD
ENDROOT
BRANCH  11  16
HETATM   16  N   UNL     1      40.428 -15.086   0.285  1.00  0.00    -0.301 NA
HETATM   17  H   UNL     1      40.894 -15.753   0.900  1.00  0.00     0.124 HD
HETATM   18  H   UNL     1      40.017 -15.571  -0.507  1.00  0.00     0.124 HD
ENDBRANCH  11  16
BRANCH   2  19
HETATM   19  C   UNL     1      41.512 -15.673   2.886  1.00  0.00    -0.024 A 
HETATM   20  C   UNL     1      40.975 -16.963   3.031  1.00  0.00     0.014 A 
HETATM   21  C   UNL     1      41.721 -18.092   2.682  1.00  0.00     0.024 A 
HETATM   22  C   UNL     1      43.017 -17.942   2.197  1.00  0.00     0.034 A 
HETATM   23 CL   UNL     1      43.934 -19.330   1.760  1.00  0.00    -0.084 Cl
HETATM   24  C   UNL     1      43.576 -16.674   2.060  1.00  0.00     0.024 A 
HETATM   25  C   UNL     1      42.828 -15.544   2.405  1.00  0.00     0.014 A 
ENDBRANCH   2  19
BRANCH   1  26
HETATM   26  C   UNL     1      41.624 -14.692   5.582  1.00  0.00     0.296 C 
HETATM   27  O   UNL     1      41.210 -15.596   6.281  1.00  0.00    -0.259 OA
BRANCH  26  28
HETATM   28  O   UNL     1      42.844 -14.107   5.597  1.00  0.00    -0.318 OA
BRANCH  28  29
HETATM   29  C   UNL     1      43.883 -14.831   6.274  1.00  0.00     0.174 C 
HETATM   30  C   UNL     1      44.596 -13.888   7.223  1.00  0.00     0.034 C 
ENDBRANCH  28  29
ENDBRANCH  26  28
ENDBRANCH   1  26
TORSDOF 5
ENDMDL
MODEL 8
REMARK VINA RESULT:      -6.5      3.322      5.994
REMARK  5 active torsions:
REMARK  status: ('A' for Active; 'I' for Inactive)
REMARK    1  A    between atoms: C_2  and  O_3 
REMARK    2  A    between atoms: O_3  and  C_4 
REMARK    3  A    between atoms: C_4  and  C_5 
REMARK    4  A    between atoms: C_6  and  C_7 
REMARK    5  A    between atoms: C_22  and  N_23 
ROOT
HETATM    1  C   UNL     1      42.486 -16.149   3.805  1.00  0.00     0.075 A 
HETATM    2  C   UNL     1      41.623 -15.150   3.286  1.00  0.00     0.008 A 
HETATM    3  C   UNL     1      41.308 -15.186   1.897  1.00  0.00     0.045 A 
HETATM    4  C   UNL     1      41.931 -16.204   1.153  1.00  0.00     0.143 A 
HETATM    5  N   UNL     1      41.796 -16.254  -0.227  1.00  0.00    -0.306 N 
HETATM    6  C   UNL     1      41.123 -15.337  -0.970  1.00  0.00     0.268 A 
HETATM    7  O   UNL     1      41.101 -15.394  -2.194  1.00  0.00    -0.266 OA
HETATM    8  C   UNL     1      40.398 -14.295  -0.214  1.00  0.00     0.120 A 
HETATM    9  C   UNL     1      39.592 -13.277  -1.003  1.00  0.00     0.027 C 
HETATM   10  N   UNL     1      38.923 -12.433  -1.659  1.00  0.00    -0.096 N 
HETATM   11  C   UNL     1      40.420 -14.232   1.139  1.00  0.00     0.046 A 
HETATM   12  N   UNL     1      42.735 -17.166   1.653  1.00  0.00    -0.234 NA
HETATM   13  C   UNL     1      43.011 -17.134   2.974  1.00  0.00     0.050 A 
HETATM   14  C   UNL     1      43.936 -18.202   3.482  1.00  0.00     0.071 C 
HETATM   15  H   UNL     1      42.303 -16.983  -0.710  1.00  0.00     0.170 HD
ENDROOT
BRANCH  11  16
HETATM   16  N   UNL     1      39.666 -13.318   1.863  1.00  0.00    -0.301 NA
HETATM   17  H   UNL     1      39.206 -12.579   1.331  1.00  0.00     0.124 HD
HETATM   18  H   UNL     1      39.011 -13.730   2.522  1.00  0.00     0.124 HD
ENDBRANCH  11  16
BRANCH   2  19
HETATM   19  C   UNL     1      41.139 -14.102   4.208  1.00  0.00    -0.024 A 
HETATM   20  C   UNL     1      41.839 -12.893   4.352  1.00  0.00     0.014 A 
HETATM   21  C   UNL     1      41.377 -11.897   5.216  1.00  0.00     0.024 A 
HETATM   22  C   UNL     1      40.216 -12.105   5.955  1.00  0.00     0.034 A 
HETATM   23 CL   UNL     1      39.642 -10.877   7.014  1.00  0.00    -0.084 Cl
HETATM   24  C   UNL     1      39.514 -13.303   5.841  1.00  0.00     0.024 A 
HETATM   25  C   UNL     1      39.974 -14.298   4.973  1.00  0.00     0.014 A 
ENDBRANCH   2  19
BRANCH   1  26
HETATM   26  C   UNL     1      42.916 -16.121   5.212  1.00  0.00     0.296 C 
HETATM   27  O   UNL     1      43.870 -15.480   5.610  1.00  0.00    -0.259 OA
BRANCH  26  28
HETATM   28  O   UNL     1      42.108 -16.950   5.913  1.00  0.00    -0.318 OA
BRANCH  28  29
HETATM   29  C   UNL     1      42.512 -17.236   7.260  1.00  0.00     0.174 C 
HETATM   30  C   UNL     1      43.400 -18.464   7.254  1.00  0.00     0.034 C 
ENDBRANCH  28  29
ENDBRANCH  26  28
ENDBRANCH   1  26
TORSDOF 5
ENDMDL
MODEL 9
REMARK VINA RESULT:      -6.4      3.997      7.672
REMARK  5 active torsions:
REMARK  status: ('A' for Active; 'I' for Inactive)
REMARK    1  A    between atoms: C_2  and  O_3 
REMARK    2  A    between atoms: O_3  and  C_4 
REMARK    3  A    between atoms: C_4  and  C_5 
REMARK    4  A    between atoms: C_6  and  C_7 
REMARK    5  A    between atoms: C_22  and  N_23 
ROOT
HETATM    1  C   UNL     1      41.663 -14.913   2.546  1.00  0.00     0.075 A 
HETATM    2  C   UNL     1      41.727 -14.283   3.815  1.00  0.00     0.008 A 
HETATM    3  C   UNL     1      41.418 -12.895   3.894  1.00  0.00     0.045 A 
HETATM    4  C   UNL     1      41.115 -12.263   2.675  1.00  0.00     0.143 A 
HETATM    5  N   UNL     1      40.924 -10.889   2.620  1.00  0.00    -0.306 N 
HETATM    6  C   UNL     1      41.056 -10.048   3.679  1.00  0.00     0.268 A 
HETATM    7  O   UNL     1      40.947  -8.834   3.551  1.00  0.00    -0.266 OA
HETATM    8  C   UNL     1      41.303 -10.688   4.987  1.00  0.00     0.120 A 
HETATM    9  C   UNL     1      41.410  -9.788   6.207  1.00  0.00     0.027 C 
HETATM   10  N   UNL     1      41.497  -9.040   7.219  1.00  0.00    -0.096 N 
HETATM   11  C   UNL     1      41.422 -12.029   5.130  1.00  0.00     0.046 A 
HETATM   12  N   UNL     1      41.035 -12.869   1.472  1.00  0.00    -0.234 NA
HETATM   13  C   UNL     1      41.310 -14.189   1.411  1.00  0.00     0.050 A 
HETATM   14  C   UNL     1      41.242 -14.816   0.049  1.00  0.00     0.071 C 
HETATM   15  H   UNL     1      40.753 -10.488   1.708  1.00  0.00     0.170 HD
ENDROOT
BRANCH  11  16
HETATM   16  N   UNL     1      41.558 -12.647   6.366  1.00  0.00    -0.301 NA
HETATM   17  H   UNL     1      41.842 -12.054   7.146  1.00  0.00     0.124 HD
HETATM   18  H   UNL     1      40.771 -13.230   6.641  1.00  0.00     0.124 HD
ENDBRANCH  11  16
BRANCH   2  19
HETATM   19  C   UNL     1      42.157 -15.093   4.973  1.00  0.00    -0.024 A 
HETATM   20  C   UNL     1      41.249 -15.934   5.637  1.00  0.00     0.014 A 
HETATM   21  C   UNL     1      41.657 -16.710   6.726  1.00  0.00     0.024 A 
HETATM   22  C   UNL     1      42.975 -16.642   7.169  1.00  0.00     0.034 A 
HETATM   23 CL   UNL     1      43.480 -17.601   8.504  1.00  0.00    -0.084 Cl
HETATM   24  C   UNL     1      43.889 -15.803   6.536  1.00  0.00     0.024 A 
HETATM   25  C   UNL     1      43.482 -15.030   5.444  1.00  0.00     0.014 A 
ENDBRANCH   2  19
BRANCH   1  26
HETATM   26  C   UNL     1      42.049 -16.324   2.381  1.00  0.00     0.296 C 
HETATM   27  O   UNL     1      41.255 -17.245   2.406  1.00  0.00    -0.259 OA
BRANCH  26  28
HETATM   28  O   UNL     1      43.396 -16.376   2.258  1.00  0.00    -0.318 OA
BRANCH  28  29
HETATM   29  C   UNL     1      43.979 -17.688   2.249  1.00  0.00     0.174 C 
HETATM   30  C   UNL     1      44.035 -18.208   3.671  1.00  0.00     0.034 C 
ENDBRANCH  28  29
ENDBRANCH  26  28
ENDBRANCH   1  26
TORSDOF 5
ENDMDL
MODEL 10
REMARK VINA RESULT:      -6.3      4.499      8.141
REMARK  5 active torsions:
REMARK  status: ('A' for Active; 'I' for Inactive)
REMARK    1  A    between atoms: C_2  and  O_3 
REMARK    2  A    between atoms: O_3  and  C_4 
REMARK    3  A    between atoms: C_4  and  C_5 
REMARK    4  A    between atoms: C_6  and  C_7 
REMARK    5  A    between atoms: C_22  and  N_23 
ROOT
HETATM    1  C   UNL     1      39.803 -14.380   2.566  1.00  0.00     0.075 A 
HETATM    2  C   UNL     1      40.159 -13.901   3.853  1.00  0.00     0.008 A 
HETATM    3  C   UNL     1      39.600 -12.666   4.291  1.00  0.00     0.045 A 
HETATM    4  C   UNL     1      38.768 -12.007   3.368  1.00  0.00     0.143 A 
HETATM    5  N   UNL     1      38.274 -10.740   3.641  1.00  0.00    -0.306 N 
HETATM    6  C   UNL     1      38.573 -10.018   4.753  1.00  0.00     0.268 A 
HETATM    7  O   UNL     1      38.165  -8.872   4.903  1.00  0.00    -0.266 OA
HETATM    8  C   UNL     1      39.387 -10.708   5.774  1.00  0.00     0.120 A 
HETATM    9  C   UNL     1      39.705  -9.955   7.055  1.00  0.00     0.027 C 
HETATM   10  N   UNL     1      39.968  -9.329   8.118  1.00  0.00    -0.096 N 
HETATM   11  C   UNL     1      39.837 -11.975   5.610  1.00  0.00     0.046 A 
HETATM   12  N   UNL     1      38.415 -12.475   2.152  1.00  0.00    -0.234 NA
HETATM   13  C   UNL     1      38.934 -13.656   1.756  1.00  0.00     0.050 A 
HETATM   14  C   UNL     1      38.543 -14.123   0.383  1.00  0.00     0.071 C 
HETATM   15  H   UNL     1      37.718 -10.301   2.920  1.00  0.00     0.170 HD
ENDROOT
BRANCH  11  16
HETATM   16  N   UNL     1      40.519 -12.667   6.603  1.00  0.00    -0.301 NA
HETATM   17  H   UNL     1      40.961 -13.544   6.329  1.00  0.00     0.124 HD
HETATM   18  H   UNL     1      41.170 -12.104   7.145  1.00  0.00     0.124 HD
ENDBRANCH  11  16
BRANCH   2  19
HETATM   19  C   UNL     1      41.125 -14.689   4.646  1.00  0.00    -0.024 A 
HETATM   20  C   UNL     1      42.499 -14.404   4.590  1.00  0.00     0.014 A 
HETATM   21  C   UNL     1      43.414 -15.141   5.347  1.00  0.00     0.024 A 
HETATM   22  C   UNL     1      42.964 -16.180   6.157  1.00  0.00     0.034 A 
HETATM   23 CL   UNL     1      44.087 -17.084   7.095  1.00  0.00    -0.084 Cl
HETATM   24  C   UNL     1      41.607 -16.491   6.216  1.00  0.00     0.024 A 
HETATM   25  C   UNL     1      40.692 -15.750   5.461  1.00  0.00     0.014 A 
ENDBRANCH   2  19
BRANCH   1  26
HETATM   26  C   UNL     1      40.408 -15.605   2.021  1.00  0.00     0.296 C 
HETATM   27  O   UNL     1      39.924 -16.712   2.160  1.00  0.00    -0.259 OA
BRANCH  26  28
HETATM   28  O   UNL     1      41.571 -15.265   1.418  1.00  0.00    -0.318 OA
BRANCH  28  29
HETATM   29  C   UNL     1      42.332 -16.346   0.857  1.00  0.00     0.174 C 
HETATM   30  C   UNL     1      43.421 -16.737   1.835  1.00  0.00     0.034 C 
ENDBRANCH  28  29
ENDBRANCH  26  28
ENDBRANCH   1  26
TORSDOF 5
ENDMDL
