MODEL 1
REMARK VINA RESULT:      -8.5      0.000      0.000
REMARK  4 active torsions:
REMARK  status: ('A' for Active; 'I' for Inactive)
REMARK    1  A    between atoms: O_1  and  C_2 
REMARK    2  A    between atoms: C_2  and  C_3 
REMARK    3  A    between atoms: N_5  and  C_17 
REMARK    4  A    between atoms: C_20  and  C_23 
ROOT
HETATM    1  C   UNL     1      42.747 -13.097   3.355  1.00  0.00     0.060 C 
HETATM    2  C   UNL     1      43.665 -14.320   3.392  1.00  0.00     0.141 C 
HETATM    3  N   UNL     1      42.876 -15.373   3.998  1.00  0.00    -0.316 N 
HETATM    4  C   UNL     1      41.759 -14.835   4.656  1.00  0.00     0.248 C 
HETATM    5  O   UNL     1      40.832 -15.414   5.208  1.00  0.00    -0.271 OA
HETATM    6  C   UNL     1      41.875 -13.304   4.601  1.00  0.00     0.108 A 
HETATM    7  C   UNL     1      42.563 -12.803   5.900  1.00  0.00     0.076 A 
HETATM    8  C   UNL     1      41.595 -11.777   6.375  1.00  0.00    -0.035 A 
HETATM    9  C   UNL     1      41.683 -10.965   7.494  1.00  0.00     0.009 A 
HETATM   10  C   UNL     1      40.615 -10.108   7.775  1.00  0.00     0.001 A 
HETATM   11  C   UNL     1      39.485 -10.083   6.944  1.00  0.00     0.002 A 
HETATM   12  C   UNL     1      39.413 -10.911   5.821  1.00  0.00     0.024 A 
HETATM   13  C   UNL     1      40.482 -11.744   5.544  1.00  0.00     0.015 A 
HETATM   14  N   UNL     1      40.528 -12.668   4.470  1.00  0.00    -0.274 NA
HETATM   15  H   UNL     1      39.797 -13.366   4.649  1.00  0.00     0.129 HD
ENDROOT
BRANCH   3  16
HETATM   16  C   UNL     1      43.248 -16.746   3.948  1.00  0.00     0.037 A 
HETATM   17  C   UNL     1      43.678 -17.438   5.086  1.00  0.00     0.030 A 
HETATM   18  C   UNL     1      44.049 -18.790   5.027  1.00  0.00     0.014 A 
HETATM   19  C   UNL     1      43.994 -19.496   3.824  1.00  0.00    -0.023 A 
HETATM   20  C   UNL     1      43.567 -18.817   2.680  1.00  0.00     0.014 A 
HETATM   21  C   UNL     1      43.208 -17.461   2.741  1.00  0.00     0.030 A 
BRANCH  19  22
HETATM   22  C   UNL     1      44.359 -20.899   3.754  1.00  0.00     0.010 A 
HETATM   23  C   UNL     1      44.408 -21.790   2.657  1.00  0.00     0.152 A 
HETATM   24  N   UNL     1      44.813 -23.015   3.002  1.00  0.00    -0.187 NA
HETATM   25  N   UNL     1      45.025 -22.915   4.323  1.00  0.00    -0.289 N 
HETATM   26  H   UNL     1      45.347 -23.737   4.823  1.00  0.00     0.188 HD
HETATM   27  C   UNL     1      44.770 -21.669   4.821  1.00  0.00     0.123 A 
ENDBRANCH  19  22
ENDBRANCH   3  16
BRANCH   1  28
HETATM   28  C   UNL     1      41.954 -13.042   2.046  1.00  0.00     0.172 C 
BRANCH  28  29
HETATM   29  O   UNL     1      42.517 -12.038   1.204  1.00  0.00    -0.400 OA
HETATM   30  H   UNL     1      42.965 -12.504   0.475  1.00  0.00     0.209 HD
ENDBRANCH  28  29
ENDBRANCH   1  28
TORSDOF 4
ENDMDL
MODEL 2
REMARK VINA RESULT:      -8.1      3.938      5.224
REMARK  4 active torsions:
REMARK  status: ('A' for Active; 'I' for Inactive)
REMARK    1  A    between atoms: O_1  and  C_2 
REMARK    2  A    between atoms: C_2  and  C_3 
REMARK    3  A    between atoms: N_5  and  C_17 
REMARK    4  A    between atoms: C_20  and  C_23 
ROOT
HETATM    1  C   UNL     1      40.303 -14.123  -0.841  1.00  0.00     0.060 C 
HETATM    2  C   UNL     1      40.978 -15.468  -0.561  1.00  0.00     0.141 C 
HETATM    3  N   UNL     1      41.780 -15.253   0.626  1.00  0.00    -0.316 N 
HETATM    4  C   UNL     1      41.957 -13.881   0.859  1.00  0.00     0.248 C 
HETATM    5  O   UNL     1      42.503 -13.319   1.801  1.00  0.00    -0.271 OA
HETATM    6  C   UNL     1      41.343 -13.120  -0.326  1.00  0.00     0.108 A 
HETATM    7  C   UNL     1      42.457 -12.827  -1.368  1.00  0.00     0.076 A 
HETATM    8  C   UNL     1      42.310 -11.359  -1.559  1.00  0.00    -0.035 A 
HETATM    9  C   UNL     1      43.028 -10.525  -2.401  1.00  0.00     0.009 A 
HETATM   10  C   UNL     1      42.752  -9.155  -2.368  1.00  0.00     0.001 A 
HETATM   11  C   UNL     1      41.777  -8.646  -1.498  1.00  0.00     0.002 A 
HETATM   12  C   UNL     1      41.065  -9.502  -0.654  1.00  0.00     0.024 A 
HETATM   13  C   UNL     1      41.335 -10.858  -0.705  1.00  0.00     0.015 A 
HETATM   14  N   UNL     1      40.726 -11.834   0.122  1.00  0.00    -0.274 NA
HETATM   15  H   UNL     1      41.017 -11.628   1.086  1.00  0.00     0.129 HD
ENDROOT
BRANCH   3  16
HETATM   16  C   UNL     1      42.330 -16.320   1.392  1.00  0.00     0.037 A 
HETATM   17  C   UNL     1      41.788 -16.701   2.625  1.00  0.00     0.030 A 
HETATM   18  C   UNL     1      42.339 -17.750   3.376  1.00  0.00     0.014 A 
HETATM   19  C   UNL     1      43.450 -18.456   2.912  1.00  0.00    -0.023 A 
HETATM   20  C   UNL     1      44.001 -18.085   1.684  1.00  0.00     0.014 A 
HETATM   21  C   UNL     1      43.454 -17.028   0.940  1.00  0.00     0.030 A 
BRANCH  19  22
HETATM   22  C   UNL     1      44.019 -19.553   3.674  1.00  0.00     0.010 A 
HETATM   23  C   UNL     1      44.230 -19.704   5.064  1.00  0.00     0.152 A 
HETATM   24  N   UNL     1      44.773 -20.883   5.381  1.00  0.00    -0.187 NA
HETATM   25  N   UNL     1      44.912 -21.493   4.194  1.00  0.00    -0.289 N 
HETATM   26  H   UNL     1      45.312 -22.425   4.176  1.00  0.00     0.188 HD
HETATM   27  C   UNL     1      44.475 -20.741   3.142  1.00  0.00     0.123 A 
ENDBRANCH  19  22
ENDBRANCH   3  16
BRANCH   1  28
HETATM   28  C   UNL     1      38.948 -14.030  -0.134  1.00  0.00     0.172 C 
BRANCH  28  29
HETATM   29  O   UNL     1      37.920 -14.410  -1.047  1.00  0.00    -0.400 OA
HETATM   30  H   UNL     1      38.235 -15.212  -1.502  1.00  0.00     0.209 HD
ENDBRANCH  28  29
ENDBRANCH   1  28
TORSDOF 4
ENDMDL
MODEL 3
REMARK VINA RESULT:      -8.0      3.897      8.358
REMARK  4 active torsions:
REMARK  status: ('A' for Active; 'I' for Inactive)
REMARK    1  A    between atoms: O_1  and  C_2 
REMARK    2  A    between atoms: C_2  and  C_3 
REMARK    3  A    between atoms: N_5  and  C_17 
REMARK    4  A    between atoms: C_20  and  C_23 
ROOT
HETATM    1  C   UNL     1      43.338 -15.357   3.639  1.00  0.00     0.060 C 
HETATM    2  C   UNL     1      42.956 -14.797   2.268  1.00  0.00     0.141 C 
HETATM    3  N   UNL     1      41.709 -15.448   1.922  1.00  0.00    -0.316 N 
HETATM    4  C   UNL     1      41.505 -16.579   2.727  1.00  0.00     0.248 C 
HETATM    5  O   UNL     1      40.536 -17.327   2.780  1.00  0.00    -0.271 OA
HETATM    6  C   UNL     1      42.764 -16.779   3.584  1.00  0.00     0.108 A 
HETATM    7  C   UNL     1      43.711 -17.777   2.864  1.00  0.00     0.076 A 
HETATM    8  C   UNL     1      43.960 -18.780   3.935  1.00  0.00    -0.035 A 
HETATM    9  C   UNL     1      44.761 -19.910   3.886  1.00  0.00     0.009 A 
HETATM   10  C   UNL     1      44.797 -20.744   5.006  1.00  0.00     0.001 A 
HETATM   11  C   UNL     1      44.034 -20.441   6.144  1.00  0.00     0.002 A 
HETATM   12  C   UNL     1      43.230 -19.299   6.174  1.00  0.00     0.024 A 
HETATM   13  C   UNL     1      43.213 -18.472   5.065  1.00  0.00     0.015 A 
HETATM   14  N   UNL     1      42.414 -17.309   4.938  1.00  0.00    -0.274 NA
HETATM   15  H   UNL     1      41.435 -17.621   4.945  1.00  0.00     0.129 HD
ENDROOT
BRANCH   3  16
HETATM   16  C   UNL     1      40.864 -14.993   0.871  1.00  0.00     0.037 A 
HETATM   17  C   UNL     1      39.620 -14.404   1.125  1.00  0.00     0.030 A 
HETATM   18  C   UNL     1      38.790 -13.963   0.083  1.00  0.00     0.014 A 
HETATM   19  C   UNL     1      39.184 -14.093  -1.250  1.00  0.00    -0.023 A 
HETATM   20  C   UNL     1      40.423 -14.680  -1.517  1.00  0.00     0.014 A 
HETATM   21  C   UNL     1      41.245 -15.130  -0.473  1.00  0.00     0.030 A 
BRANCH  19  22
HETATM   22  C   UNL     1      38.340 -13.625  -2.335  1.00  0.00     0.010 A 
HETATM   23  C   UNL     1      37.758 -12.359  -2.575  1.00  0.00     0.152 A 
HETATM   24  N   UNL     1      37.049 -12.321  -3.707  1.00  0.00    -0.187 NA
HETATM   25  N   UNL     1      37.174 -13.564  -4.196  1.00  0.00    -0.289 N 
HETATM   26  H   UNL     1      36.712 -13.785  -5.072  1.00  0.00     0.188 HD
HETATM   27  C   UNL     1      37.937 -14.382  -3.414  1.00  0.00     0.123 A 
ENDBRANCH  19  22
ENDBRANCH   3  16
BRANCH   1  28
HETATM   28  C   UNL     1      42.758 -14.498   4.767  1.00  0.00     0.172 C 
BRANCH  28  29
HETATM   29  O   UNL     1      43.515 -14.718   5.955  1.00  0.00    -0.400 OA
HETATM   30  H   UNL     1      43.200 -15.558   6.334  1.00  0.00     0.209 HD
ENDBRANCH  28  29
ENDBRANCH   1  28
TORSDOF 4
ENDMDL
MODEL 4
REMARK VINA RESULT:      -7.9      4.297      8.404
REMARK  4 active torsions:
REMARK  status: ('A' for Active; 'I' for Inactive)
REMARK    1  A    between atoms: O_1  and  C_2 
REMARK    2  A    between atoms: C_2  and  C_3 
REMARK    3  A    between atoms: N_5  and  C_17 
REMARK    4  A    between atoms: C_20  and  C_23 
ROOT
HETATM    1  C   UNL     1      43.195 -15.080   2.971  1.00  0.00     0.060 C 
HETATM    2  C   UNL     1      42.795 -14.659   1.556  1.00  0.00     0.141 C 
HETATM    3  N   UNL     1      41.535 -15.327   1.300  1.00  0.00    -0.316 N 
HETATM    4  C   UNL     1      41.333 -16.367   2.220  1.00  0.00     0.248 C 
HETATM    5  O   UNL     1      40.357 -17.092   2.367  1.00  0.00    -0.271 OA
HETATM    6  C   UNL     1      42.605 -16.493   3.072  1.00  0.00     0.108 A 
HETATM    7  C   UNL     1      43.528 -17.572   2.442  1.00  0.00     0.076 A 
HETATM    8  C   UNL     1      43.786 -18.462   3.607  1.00  0.00    -0.035 A 
HETATM    9  C   UNL     1      44.573 -19.601   3.661  1.00  0.00     0.009 A 
HETATM   10  C   UNL     1      44.620 -20.316   4.861  1.00  0.00     0.001 A 
HETATM   11  C   UNL     1      43.882 -19.889   5.974  1.00  0.00     0.002 A 
HETATM   12  C   UNL     1      43.091 -18.739   5.900  1.00  0.00     0.024 A 
HETATM   13  C   UNL     1      43.063 -18.030   4.712  1.00  0.00     0.015 A 
HETATM   14  N   UNL     1      42.274 -16.877   4.479  1.00  0.00    -0.274 NA
HETATM   15  H   UNL     1      41.292 -17.174   4.535  1.00  0.00     0.129 HD
ENDROOT
BRANCH   3  16
HETATM   16  C   UNL     1      40.676 -14.971   0.222  1.00  0.00     0.037 A 
HETATM   17  C   UNL     1      40.993 -15.276  -1.107  1.00  0.00     0.030 A 
HETATM   18  C   UNL     1      40.143 -14.917  -2.165  1.00  0.00     0.014 A 
HETATM   19  C   UNL     1      38.944 -14.246  -1.924  1.00  0.00    -0.023 A 
HETATM   20  C   UNL     1      38.616 -13.936  -0.602  1.00  0.00     0.014 A 
HETATM   21  C   UNL     1      39.473 -14.286   0.452  1.00  0.00     0.030 A 
BRANCH  19  22
HETATM   22  C   UNL     1      38.050 -13.885  -3.009  1.00  0.00     0.010 A 
HETATM   23  C   UNL     1      37.154 -14.671  -3.771  1.00  0.00     0.152 A 
HETATM   24  N   UNL     1      36.487 -13.958  -4.684  1.00  0.00    -0.187 NA
HETATM   25  N   UNL     1      36.954 -12.712  -4.510  1.00  0.00    -0.289 N 
HETATM   26  H   UNL     1      36.588 -11.974  -5.102  1.00  0.00     0.188 HD
HETATM   27  C   UNL     1      37.889 -12.614  -3.520  1.00  0.00     0.123 A 
ENDBRANCH  19  22
ENDBRANCH   3  16
BRANCH   1  28
HETATM   28  C   UNL     1      42.645 -14.103   4.014  1.00  0.00     0.172 C 
BRANCH  28  29
HETATM   29  O   UNL     1      43.065 -12.781   3.678  1.00  0.00    -0.400 OA
HETATM   30  H   UNL     1      42.273 -12.216   3.729  1.00  0.00     0.209 HD
ENDBRANCH  28  29
ENDBRANCH   1  28
TORSDOF 4
ENDMDL
MODEL 5
REMARK VINA RESULT:      -7.8      4.180      8.120
REMARK  4 active torsions:
REMARK  status: ('A' for Active; 'I' for Inactive)
REMARK    1  A    between atoms: O_1  and  C_2 
REMARK    2  A    between atoms: C_2  and  C_3 
REMARK    3  A    between atoms: N_5  and  C_17 
REMARK    4  A    between atoms: C_20  and  C_23 
ROOT
HETATM    1  C   UNL     1      42.216 -18.463   2.386  1.00  0.00     0.060 C 
HETATM    2  C   UNL     1      41.327 -17.695   1.407  1.00  0.00     0.141 C 
HETATM    3  N   UNL     1      41.934 -16.384   1.287  1.00  0.00    -0.316 N 
HETATM    4  C   UNL     1      42.835 -16.161   2.340  1.00  0.00     0.248 C 
HETATM    5  O   UNL     1      43.586 -15.213   2.529  1.00  0.00    -0.271 OA
HETATM    6  C   UNL     1      42.729 -17.349   3.308  1.00  0.00     0.108 A 
HETATM    7  C   UNL     1      41.720 -16.994   4.434  1.00  0.00     0.076 A 
HETATM    8  C   UNL     1      42.522 -17.276   5.656  1.00  0.00    -0.035 A 
HETATM    9  C   UNL     1      42.138 -17.165   6.982  1.00  0.00     0.009 A 
HETATM   10  C   UNL     1      43.088 -17.431   7.971  1.00  0.00     0.001 A 
HETATM   11  C   UNL     1      44.397 -17.794   7.621  1.00  0.00     0.002 A 
HETATM   12  C   UNL     1      44.768 -17.899   6.278  1.00  0.00     0.024 A 
HETATM   13  C   UNL     1      43.815 -17.648   5.307  1.00  0.00     0.015 A 
HETATM   14  N   UNL     1      44.059 -17.671   3.911  1.00  0.00    -0.274 NA
HETATM   15  H   UNL     1      44.721 -16.912   3.714  1.00  0.00     0.129 HD
ENDROOT
BRANCH   3  16
HETATM   16  C   UNL     1      41.597 -15.466   0.254  1.00  0.00     0.037 A 
HETATM   17  C   UNL     1      41.526 -14.087   0.484  1.00  0.00     0.030 A 
HETATM   18  C   UNL     1      41.187 -13.189  -0.540  1.00  0.00     0.014 A 
HETATM   19  C   UNL     1      40.913 -13.644  -1.831  1.00  0.00    -0.023 A 
HETATM   20  C   UNL     1      40.979 -15.018  -2.073  1.00  0.00     0.014 A 
HETATM   21  C   UNL     1      41.308 -15.914  -1.045  1.00  0.00     0.030 A 
BRANCH  19  22
HETATM   22  C   UNL     1      40.577 -12.722  -2.900  1.00  0.00     0.010 A 
HETATM   23  C   UNL     1      41.390 -11.844  -3.656  1.00  0.00     0.152 A 
HETATM   24  N   UNL     1      40.701 -11.161  -4.574  1.00  0.00    -0.187 NA
HETATM   25  N   UNL     1      39.442 -11.598  -4.410  1.00  0.00    -0.289 N 
HETATM   26  H   UNL     1      38.718 -11.215  -5.009  1.00  0.00     0.188 HD
HETATM   27  C   UNL     1      39.316 -12.533  -3.423  1.00  0.00     0.123 A 
ENDBRANCH  19  22
ENDBRANCH   3  16
BRANCH   1  28
HETATM   28  C   UNL     1      43.325 -19.218   1.648  1.00  0.00     0.172 C 
BRANCH  28  29
HETATM   29  O   UNL     1      43.750 -20.319   2.449  1.00  0.00    -0.400 OA
HETATM   30  H   UNL     1      44.027 -21.021   1.832  1.00  0.00     0.209 HD
ENDBRANCH  28  29
ENDBRANCH   1  28
TORSDOF 4
ENDMDL
MODEL 6
REMARK VINA RESULT:      -7.8      2.726      3.476
REMARK  4 active torsions:
REMARK  status: ('A' for Active; 'I' for Inactive)
REMARK    1  A    between atoms: O_1  and  C_2 
REMARK    2  A    between atoms: C_2  and  C_3 
REMARK    3  A    between atoms: N_5  and  C_17 
REMARK    4  A    between atoms: C_20  and  C_23 
ROOT
HETATM    1  C   UNL     1      43.360 -13.350   5.799  1.00  0.00     0.060 C 
HETATM    2  C   UNL     1      43.857 -14.506   4.930  1.00  0.00     0.141 C 
HETATM    3  N   UNL     1      43.983 -15.635   5.830  1.00  0.00    -0.316 N 
HETATM    4  C   UNL     1      43.984 -15.202   7.165  1.00  0.00     0.248 C 
HETATM    5  O   UNL     1      43.992 -15.866   8.194  1.00  0.00    -0.271 OA
HETATM    6  C   UNL     1      43.994 -13.666   7.160  1.00  0.00     0.108 A 
HETATM    7  C   UNL     1      45.462 -13.170   7.264  1.00  0.00     0.076 A 
HETATM    8  C   UNL     1      45.381 -12.234   8.418  1.00  0.00    -0.035 A 
HETATM    9  C   UNL     1      46.390 -11.462   8.972  1.00  0.00     0.009 A 
HETATM   10  C   UNL     1      46.091 -10.694  10.100  1.00  0.00     0.001 A 
HETATM   11  C   UNL     1      44.803 -10.714  10.655  1.00  0.00     0.002 A 
HETATM   12  C   UNL     1      43.798 -11.500  10.084  1.00  0.00     0.024 A 
HETATM   13  C   UNL     1      44.101 -12.246   8.958  1.00  0.00     0.015 A 
HETATM   14  N   UNL     1      43.199 -13.120   8.303  1.00  0.00    -0.274 NA
HETATM   15  H   UNL     1      42.984 -13.874   8.967  1.00  0.00     0.129 HD
ENDROOT
BRANCH   3  16
HETATM   16  C   UNL     1      44.128 -16.975   5.375  1.00  0.00     0.037 A 
HETATM   17  C   UNL     1      44.799 -17.944   6.131  1.00  0.00     0.030 A 
HETATM   18  C   UNL     1      44.944 -19.263   5.672  1.00  0.00     0.014 A 
HETATM   19  C   UNL     1      44.414 -19.655   4.442  1.00  0.00    -0.023 A 
HETATM   20  C   UNL     1      43.744 -18.698   3.677  1.00  0.00     0.014 A 
HETATM   21  C   UNL     1      43.611 -17.377   4.134  1.00  0.00     0.030 A 
BRANCH  19  22
HETATM   22  C   UNL     1      44.544 -21.020   3.965  1.00  0.00     0.010 A 
HETATM   23  C   UNL     1      44.420 -21.562   2.665  1.00  0.00     0.152 A 
HETATM   24  N   UNL     1      44.628 -22.882   2.632  1.00  0.00    -0.187 NA
HETATM   25  N   UNL     1      44.886 -23.190   3.912  1.00  0.00    -0.289 N 
HETATM   26  H   UNL     1      45.080 -24.159   4.144  1.00  0.00     0.188 HD
HETATM   27  C   UNL     1      44.849 -22.112   4.749  1.00  0.00     0.123 A 
ENDBRANCH  19  22
ENDBRANCH   3  16
BRANCH   1  28
HETATM   28  C   UNL     1      41.829 -13.298   5.825  1.00  0.00     0.172 C 
BRANCH  28  29
HETATM   29  O   UNL     1      41.416 -12.078   6.436  1.00  0.00    -0.400 OA
HETATM   30  H   UNL     1      42.019 -11.923   7.184  1.00  0.00     0.209 HD
ENDBRANCH  28  29
ENDBRANCH   1  28
TORSDOF 4
ENDMDL
MODEL 7
REMARK VINA RESULT:      -7.7      3.036      8.592
REMARK  4 active torsions:
REMARK  status: ('A' for Active; 'I' for Inactive)
REMARK    1  A    between atoms: O_1  and  C_2 
REMARK    2  A    between atoms: C_2  and  C_3 
REMARK    3  A    between atoms: N_5  and  C_17 
REMARK    4  A    between atoms: C_20  and  C_23 
ROOT
HETATM    1  C   UNL     1      43.832 -15.977   5.331  1.00  0.00     0.060 C 
HETATM    2  C   UNL     1      43.220 -15.000   4.325  1.00  0.00     0.141 C 
HETATM    3  N   UNL     1      41.860 -15.458   4.125  1.00  0.00    -0.316 N 
HETATM    4  C   UNL     1      41.712 -16.776   4.586  1.00  0.00     0.248 C 
HETATM    5  O   UNL     1      40.700 -17.462   4.656  1.00  0.00    -0.271 OA
HETATM    6  C   UNL     1      43.099 -17.285   5.004  1.00  0.00     0.108 A 
HETATM    7  C   UNL     1      43.738 -18.045   3.810  1.00  0.00     0.076 A 
HETATM    8  C   UNL     1      44.104 -19.343   4.442  1.00  0.00    -0.035 A 
HETATM    9  C   UNL     1      44.736 -20.432   3.865  1.00  0.00     0.009 A 
HETATM   10  C   UNL     1      44.926 -21.576   4.645  1.00  0.00     0.001 A 
HETATM   11  C   UNL     1      44.478 -21.614   5.974  1.00  0.00     0.002 A 
HETATM   12  C   UNL     1      43.839 -20.507   6.538  1.00  0.00     0.024 A 
HETATM   13  C   UNL     1      43.670 -19.374   5.762  1.00  0.00     0.015 A 
HETATM   14  N   UNL     1      43.002 -18.198   6.185  1.00  0.00    -0.274 NA
HETATM   15  H   UNL     1      42.021 -18.456   6.343  1.00  0.00     0.129 HD
ENDROOT
BRANCH   3  16
HETATM   16  C   UNL     1      40.859 -14.663   3.499  1.00  0.00     0.037 A 
HETATM   17  C   UNL     1      40.513 -13.396   3.983  1.00  0.00     0.030 A 
HETATM   18  C   UNL     1      39.521 -12.620   3.364  1.00  0.00     0.014 A 
HETATM   19  C   UNL     1      38.848 -13.087   2.234  1.00  0.00    -0.023 A 
HETATM   20  C   UNL     1      39.184 -14.350   1.741  1.00  0.00     0.014 A 
HETATM   21  C   UNL     1      40.168 -15.128   2.370  1.00  0.00     0.030 A 
BRANCH  19  22
HETATM   22  C   UNL     1      37.832 -12.286   1.576  1.00  0.00     0.010 A 
HETATM   23  C   UNL     1      37.406 -10.957   1.808  1.00  0.00     0.152 A 
HETATM   24  N   UNL     1      36.441 -10.567   0.970  1.00  0.00    -0.187 NA
HETATM   25  N   UNL     1      36.244 -11.646   0.197  1.00  0.00    -0.289 N 
HETATM   26  H   UNL     1      35.542 -11.593  -0.533  1.00  0.00     0.188 HD
HETATM   27  C   UNL     1      37.052 -12.700   0.517  1.00  0.00     0.123 A 
ENDBRANCH  19  22
ENDBRANCH   3  16
BRANCH   1  28
HETATM   28  C   UNL     1      43.623 -15.491   6.768  1.00  0.00     0.172 C 
BRANCH  28  29
HETATM   29  O   UNL     1      44.738 -14.691   7.154  1.00  0.00    -0.400 OA
HETATM   30  H   UNL     1      44.897 -14.064   6.425  1.00  0.00     0.209 HD
ENDBRANCH  28  29
ENDBRANCH   1  28
TORSDOF 4
ENDMDL
MODEL 8
REMARK VINA RESULT:      -7.7      2.606      4.498
REMARK  4 active torsions:
REMARK  status: ('A' for Active; 'I' for Inactive)
REMARK    1  A    between atoms: O_1  and  C_2 
REMARK    2  A    between atoms: C_2  and  C_3 
REMARK    3  A    between atoms: N_5  and  C_17 
REMARK    4  A    between atoms: C_20  and  C_23 
ROOT
HETATM    1  C   UNL     1      40.916 -13.815   3.106  1.00  0.00     0.060 C 
HETATM    2  C   UNL     1      41.108 -15.194   3.740  1.00  0.00     0.141 C 
HETATM    3  N   UNL     1      41.774 -15.991   2.729  1.00  0.00    -0.316 N 
HETATM    4  C   UNL     1      41.662 -15.382   1.470  1.00  0.00     0.248 C 
HETATM    5  O   UNL     1      42.161 -15.715   0.402  1.00  0.00    -0.271 OA
HETATM    6  C   UNL     1      40.746 -14.159   1.620  1.00  0.00     0.108 A 
HETATM    7  C   UNL     1      39.291 -14.572   1.267  1.00  0.00     0.076 A 
HETATM    8  C   UNL     1      38.927 -13.549   0.249  1.00  0.00    -0.035 A 
HETATM    9  C   UNL     1      37.725 -13.393  -0.423  1.00  0.00     0.009 A 
HETATM   10  C   UNL     1      37.633 -12.386  -1.387  1.00  0.00     0.001 A 
HETATM   11  C   UNL     1      38.734 -11.564  -1.667  1.00  0.00     0.002 A 
HETATM   12  C   UNL     1      39.939 -11.738  -0.981  1.00  0.00     0.024 A 
HETATM   13  C   UNL     1      40.016 -12.727  -0.018  1.00  0.00     0.015 A 
HETATM   14  N   UNL     1      41.182 -13.046   0.721  1.00  0.00    -0.274 NA
HETATM   15  H   UNL     1      41.873 -13.397   0.046  1.00  0.00     0.129 HD
ENDROOT
BRANCH   3  16
HETATM   16  C   UNL     1      42.401 -17.236   3.015  1.00  0.00     0.037 A 
HETATM   17  C   UNL     1      42.561 -18.224   2.036  1.00  0.00     0.030 A 
HETATM   18  C   UNL     1      43.175 -19.452   2.327  1.00  0.00     0.014 A 
HETATM   19  C   UNL     1      43.655 -19.728   3.609  1.00  0.00    -0.023 A 
HETATM   20  C   UNL     1      43.500 -18.750   4.595  1.00  0.00     0.014 A 
HETATM   21  C   UNL     1      42.875 -17.528   4.303  1.00  0.00     0.030 A 
BRANCH  19  22
HETATM   22  C   UNL     1      44.306 -20.988   3.916  1.00  0.00     0.010 A 
HETATM   23  C   UNL     1      44.972 -21.425   5.085  1.00  0.00     0.152 A 
HETATM   24  N   UNL     1      45.432 -22.675   4.983  1.00  0.00    -0.187 NA
HETATM   25  N   UNL     1      45.063 -23.044   3.746  1.00  0.00    -0.289 N 
HETATM   26  H   UNL     1      45.306 -23.977   3.430  1.00  0.00     0.188 HD
HETATM   27  C   UNL     1      44.386 -22.072   3.068  1.00  0.00     0.123 A 
ENDBRANCH  19  22
ENDBRANCH   3  16
BRANCH   1  28
HETATM   28  C   UNL     1      42.112 -12.903   3.398  1.00  0.00     0.172 C 
BRANCH  28  29
HETATM   29  O   UNL     1      41.730 -11.548   3.165  1.00  0.00    -0.400 OA
HETATM   30  H   UNL     1      42.476 -10.995   3.458  1.00  0.00     0.209 HD
ENDBRANCH  28  29
ENDBRANCH   1  28
TORSDOF 4
ENDMDL
MODEL 9
REMARK VINA RESULT:      -7.6      1.666      2.209
REMARK  4 active torsions:
REMARK  status: ('A' for Active; 'I' for Inactive)
REMARK    1  A    between atoms: O_1  and  C_2 
REMARK    2  A    between atoms: C_2  and  C_3 
REMARK    3  A    between atoms: N_5  and  C_17 
REMARK    4  A    between atoms: C_20  and  C_23 
ROOT
HETATM    1  C   UNL     1      41.327 -13.889   1.343  1.00  0.00     0.060 C 
HETATM    2  C   UNL     1      42.406 -14.965   1.478  1.00  0.00     0.141 C 
HETATM    3  N   UNL     1      42.023 -15.748   2.635  1.00  0.00    -0.316 N 
HETATM    4  C   UNL     1      41.080 -15.054   3.409  1.00  0.00     0.248 C 
HETATM    5  O   UNL     1      40.471 -15.426   4.405  1.00  0.00    -0.271 OA
HETATM    6  C   UNL     1      40.915 -13.653   2.803  1.00  0.00     0.108 A 
HETATM    7  C   UNL     1      41.865 -12.669   3.539  1.00  0.00     0.076 A 
HETATM    8  C   UNL     1      40.925 -11.586   3.937  1.00  0.00    -0.035 A 
HETATM    9  C   UNL     1      41.205 -10.410   4.614  1.00  0.00     0.009 A 
HETATM   10  C   UNL     1      40.142  -9.561   4.932  1.00  0.00     0.001 A 
HETATM   11  C   UNL     1      38.829  -9.901   4.578  1.00  0.00     0.002 A 
HETATM   12  C   UNL     1      38.565 -11.093   3.898  1.00  0.00     0.024 A 
HETATM   13  C   UNL     1      39.626 -11.919   3.574  1.00  0.00     0.015 A 
HETATM   14  N   UNL     1      39.503 -13.175   2.929  1.00  0.00    -0.274 NA
HETATM   15  H   UNL     1      38.987 -13.788   3.572  1.00  0.00     0.129 HD
ENDROOT
BRANCH   3  16
HETATM   16  C   UNL     1      42.588 -17.021   2.930  1.00  0.00     0.037 A 
HETATM   17  C   UNL     1      42.519 -18.087   2.026  1.00  0.00     0.030 A 
HETATM   18  C   UNL     1      43.073 -19.341   2.326  1.00  0.00     0.014 A 
HETATM   19  C   UNL     1      43.722 -19.565   3.542  1.00  0.00    -0.023 A 
HETATM   20  C   UNL     1      43.797 -18.509   4.453  1.00  0.00     0.014 A 
HETATM   21  C   UNL     1      43.231 -17.260   4.154  1.00  0.00     0.030 A 
BRANCH  19  22
HETATM   22  C   UNL     1      44.313 -20.852   3.856  1.00  0.00     0.010 A 
HETATM   23  C   UNL     1      44.914 -21.330   5.044  1.00  0.00     0.152 A 
HETATM   24  N   UNL     1      45.332 -22.595   4.941  1.00  0.00    -0.187 NA
HETATM   25  N   UNL     1      45.000 -22.933   3.685  1.00  0.00    -0.289 N 
HETATM   26  H   UNL     1      45.221 -23.870   3.364  1.00  0.00     0.188 HD
HETATM   27  C   UNL     1      44.387 -21.927   2.995  1.00  0.00     0.123 A 
ENDBRANCH  19  22
ENDBRANCH   3  16
BRANCH   1  28
HETATM   28  C   UNL     1      40.182 -14.366   0.445  1.00  0.00     0.172 C 
BRANCH  28  29
HETATM   29  O   UNL     1      39.490 -13.230  -0.070  1.00  0.00    -0.400 OA
HETATM   30  H   UNL     1      40.109 -12.479  -0.013  1.00  0.00     0.209 HD
ENDBRANCH  28  29
ENDBRANCH   1  28
TORSDOF 4
ENDMDL
MODEL 10
REMARK VINA RESULT:      -7.6      2.332      3.586
REMARK  4 active torsions:
REMARK  status: ('A' for Active; 'I' for Inactive)
REMARK    1  A    between atoms: O_1  and  C_2 
REMARK    2  A    between atoms: C_2  and  C_3 
REMARK    3  A    between atoms: N_5  and  C_17 
REMARK    4  A    between atoms: C_20  and  C_23 
ROOT
HETATM    1  C   UNL     1      40.034 -13.308   4.421  1.00  0.00     0.060 C 
HETATM    2  C   UNL     1      40.113 -14.813   4.160  1.00  0.00     0.141 C 
HETATM    3  N   UNL     1      41.355 -15.012   3.441  1.00  0.00    -0.316 N 
HETATM    4  C   UNL     1      41.825 -13.795   2.923  1.00  0.00     0.248 C 
HETATM    5  O   UNL     1      42.872 -13.556   2.334  1.00  0.00    -0.271 OA
HETATM    6  C   UNL     1      40.758 -12.725   3.200  1.00  0.00     0.108 A 
HETATM    7  C   UNL     1      39.832 -12.603   1.960  1.00  0.00     0.076 A 
HETATM    8  C   UNL     1      39.885 -11.140   1.688  1.00  0.00    -0.035 A 
HETATM    9  C   UNL     1      39.230 -10.424   0.700  1.00  0.00     0.009 A 
HETATM   10  C   UNL     1      39.480  -9.053   0.600  1.00  0.00     0.001 A 
HETATM   11  C   UNL     1      40.379  -8.428   1.477  1.00  0.00     0.002 A 
HETATM   12  C   UNL     1      41.033  -9.166   2.466  1.00  0.00     0.024 A 
HETATM   13  C   UNL     1      40.766 -10.520   2.566  1.00  0.00     0.015 A 
HETATM   14  N   UNL     1      41.388 -11.399   3.487  1.00  0.00    -0.274 NA
HETATM   15  H   UNL     1      42.385 -11.429   3.240  1.00  0.00     0.129 HD
ENDROOT
BRANCH   3  16
HETATM   16  C   UNL     1      41.954 -16.292   3.269  1.00  0.00     0.037 A 
HETATM   17  C   UNL     1      42.645 -16.930   4.306  1.00  0.00     0.030 A 
HETATM   18  C   UNL     1      43.237 -18.190   4.127  1.00  0.00     0.014 A 
HETATM   19  C   UNL     1      43.151 -18.854   2.903  1.00  0.00    -0.023 A 
HETATM   20  C   UNL     1      42.465 -18.228   1.859  1.00  0.00     0.014 A 
HETATM   21  C   UNL     1      41.884 -16.963   2.038  1.00  0.00     0.030 A 
BRANCH  19  22
HETATM   22  C   UNL     1      43.746 -20.164   2.711  1.00  0.00     0.010 A 
HETATM   23  C   UNL     1      43.567 -21.122   1.686  1.00  0.00     0.152 A 
HETATM   24  N   UNL     1      44.315 -22.215   1.861  1.00  0.00    -0.187 NA
HETATM   25  N   UNL     1      44.977 -21.962   3.001  1.00  0.00    -0.289 N 
HETATM   26  H   UNL     1      45.623 -22.663   3.348  1.00  0.00     0.188 HD
HETATM   27  C   UNL     1      44.673 -20.748   3.548  1.00  0.00     0.123 A 
ENDBRANCH  19  22
ENDBRANCH   3  16
BRANCH   1  28
HETATM   28  C   UNL     1      40.685 -12.946   5.760  1.00  0.00     0.172 C 
BRANCH  28  29
HETATM   29  O   UNL     1      39.885 -13.466   6.820  1.00  0.00    -0.400 OA
HETATM   30  H   UNL     1      40.497 -13.692   7.544  1.00  0.00     0.209 HD
ENDBRANCH  28  29
ENDBRANCH   1  28
TORSDOF 4
ENDMDL
