MODEL 1
REMARK VINA RESULT:      -8.4      0.000      0.000
REMARK  11 active torsions:
REMARK  status: ('A' for Active; 'I' for Inactive)
REMARK    1  A    between atoms: C_2  and  O_3 
REMARK    2  A    between atoms: O_3  and  C_4 
REMARK    3  A    between atoms: C_4  and  C_5 
REMARK    4  A    between atoms: C_6  and  N_7 
REMARK       I    between atoms: N_7  and  C_8 
REMARK    5  A    between atoms: C_8  and  C_9 
REMARK    6  A    between atoms: C_10  and  N_11 
REMARK    7  A    between atoms: N_11  and  C_12 
REMARK    8  A    between atoms: C_12  and  C_13 
REMARK    9  A    between atoms: C_13  and  C_14 
REMARK   10  A    between atoms: C_14  and  N_15 
REMARK   11  A    between atoms: C_24  and  N_25 
ROOT
HETATM    1  C   UNL     1      40.764 -13.181   3.789  1.00  0.00     0.061 A 
HETATM    2  C   UNL     1      39.765 -12.790   2.858  1.00  0.00     0.043 A 
HETATM    3  C   UNL     1      38.824 -11.846   3.306  1.00  0.00     0.032 A 
HETATM    4  C   UNL     1      38.882 -11.294   4.594  1.00  0.00     0.038 A 
HETATM    5  C   UNL     1      39.880 -11.702   5.482  1.00  0.00     0.104 A 
HETATM    6  C   UNL     1      40.824 -12.648   5.087  1.00  0.00     0.055 A 
ENDROOT
BRANCH   1   7
HETATM    7  C   UNL     1      41.796 -14.198   3.465  1.00  0.00     0.258 C 
HETATM    8  N   UNL     1      41.518 -15.458   3.962  1.00  0.00    -0.316 N 
HETATM    9  H   UNL     1      40.675 -15.583   4.516  1.00  0.00     0.169 HD
HETATM   10  O   UNL     1      42.769 -13.829   2.823  1.00  0.00    -0.267 OA
BRANCH   8  11
HETATM   11  C   UNL     1      42.265 -16.612   3.761  1.00  0.00     0.094 A 
HETATM   12  C   UNL     1      42.938 -17.342   4.737  1.00  0.00     0.080 A 
HETATM   13  C   UNL     1      43.527 -18.539   4.163  1.00  0.00    -0.026 A 
HETATM   14  C   UNL     1      43.244 -18.644   2.814  1.00  0.00    -0.008 A 
HETATM   15  C   UNL     1      44.323 -19.605   4.869  1.00  0.00     0.041 C 
HETATM   16  S   UNL     1      42.373 -17.319   2.223  1.00  0.00    -0.075 SA
HETATM   17  C   UNL     1      43.670 -19.762   1.912  1.00  0.00     0.047 C 
HETATM   18  C   UNL     1      44.119 -20.975   2.737  1.00  0.00     0.005 C 
HETATM   19  C   UNL     1      45.036 -20.553   3.890  1.00  0.00     0.005 C 
BRANCH  12  20
HETATM   20  C   UNL     1      43.014 -16.879   6.126  1.00  0.00     0.296 C 
HETATM   21  O   UNL     1      42.045 -16.905   6.884  1.00  0.00    -0.259 OA
BRANCH  20  22
HETATM   22  O   UNL     1      44.241 -16.404   6.471  1.00  0.00    -0.318 OA
BRANCH  22  23
HETATM   23  C   UNL     1      44.287 -15.134   7.138  1.00  0.00     0.174 C 
HETATM   24  C   UNL     1      44.325 -14.017   6.115  1.00  0.00     0.034 C 
ENDBRANCH  22  23
ENDBRANCH  20  22
ENDBRANCH  12  20
ENDBRANCH   8  11
ENDBRANCH   1   7
BRANCH   2  25
HETATM   25  N   UNL     1      39.622 -13.457   1.628  1.00  0.00    -0.389 N 
HETATM   26  H   UNL     1      39.637 -12.808   0.839  1.00  0.00     0.159 HD
BRANCH  25  27
HETATM   27  C   UNL     1      38.648 -14.527   1.459  1.00  0.00     0.121 C 
BRANCH  27  28
HETATM   28  C   UNL     1      37.572 -14.072   0.467  1.00  0.00     0.047 C 
BRANCH  28  29
HETATM   29  C   UNL     1      38.205 -13.502  -0.800  1.00  0.00     0.236 C 
BRANCH  29  30
HETATM   30  N   UNL     1      38.649 -14.612  -1.734  1.00  0.00    -0.067 N 
HETATM   31  H   UNL     1      38.450 -15.512  -1.280  1.00  0.00     0.280 HD
HETATM   32  C   UNL     1      37.936 -14.598  -3.086  1.00  0.00     0.261 C 
HETATM   33  C   UNL     1      38.472 -15.736  -3.963  1.00  0.00     0.195 C 
HETATM   34  O   UNL     1      39.887 -15.627  -4.141  1.00  0.00    -0.388 OA
HETATM   35  C   UNL     1      40.588 -15.694  -2.895  1.00  0.00     0.195 C 
HETATM   36  C   UNL     1      40.164 -14.554  -1.965  1.00  0.00     0.261 C 
ENDBRANCH  29  30
ENDBRANCH  28  29
ENDBRANCH  27  28
ENDBRANCH  25  27
ENDBRANCH   2  25
BRANCH   5  37
HETATM   37  N   UNL     1      39.928 -11.139   6.836  1.00  0.00    -0.116 N 
HETATM   38  O   UNL     1      40.989 -11.254   7.464  1.00  0.00    -0.532 OA
HETATM   39  O   UNL     1      38.905 -10.592   7.265  1.00  0.00    -0.532 OA
ENDBRANCH   5  37
TORSDOF 11
ENDMDL
MODEL 2
REMARK VINA RESULT:      -8.1      3.228      9.125
REMARK  11 active torsions:
REMARK  status: ('A' for Active; 'I' for Inactive)
REMARK    1  A    between atoms: C_2  and  O_3 
REMARK    2  A    between atoms: O_3  and  C_4 
REMARK    3  A    between atoms: C_4  and  C_5 
REMARK    4  A    between atoms: C_6  and  N_7 
REMARK       I    between atoms: N_7  and  C_8 
REMARK    5  A    between atoms: C_8  and  C_9 
REMARK    6  A    between atoms: C_10  and  N_11 
REMARK    7  A    between atoms: N_11  and  C_12 
REMARK    8  A    between atoms: C_12  and  C_13 
REMARK    9  A    between atoms: C_13  and  C_14 
REMARK   10  A    between atoms: C_14  and  N_15 
REMARK   11  A    between atoms: C_24  and  N_25 
ROOT
HETATM    1  C   UNL     1      43.961 -18.398   2.964  1.00  0.00     0.061 A 
HETATM    2  C   UNL     1      44.007 -18.146   4.361  1.00  0.00     0.043 A 
HETATM    3  C   UNL     1      44.204 -19.260   5.195  1.00  0.00     0.032 A 
HETATM    4  C   UNL     1      44.374 -20.553   4.678  1.00  0.00     0.038 A 
HETATM    5  C   UNL     1      44.323 -20.763   3.298  1.00  0.00     0.104 A 
HETATM    6  C   UNL     1      44.113 -19.690   2.434  1.00  0.00     0.055 A 
ENDROOT
BRANCH   1   7
HETATM    7  C   UNL     1      43.720 -17.322   1.970  1.00  0.00     0.258 C 
HETATM    8  N   UNL     1      42.395 -16.941   1.865  1.00  0.00    -0.316 N 
HETATM    9  H   UNL     1      41.706 -17.428   2.432  1.00  0.00     0.169 HD
HETATM   10  O   UNL     1      44.686 -16.901   1.350  1.00  0.00    -0.267 OA
BRANCH   8  11
HETATM   11  C   UNL     1      41.886 -15.921   1.071  1.00  0.00     0.094 A 
HETATM   12  C   UNL     1      41.835 -14.568   1.395  1.00  0.00     0.080 A 
HETATM   13  C   UNL     1      41.323 -13.795   0.277  1.00  0.00    -0.026 A 
HETATM   14  C   UNL     1      41.048 -14.602  -0.812  1.00  0.00    -0.008 A 
HETATM   15  C   UNL     1      41.123 -12.304   0.201  1.00  0.00     0.041 C 
HETATM   16  S   UNL     1      41.310 -16.243  -0.491  1.00  0.00    -0.075 SA
HETATM   17  C   UNL     1      40.532 -14.139  -2.140  1.00  0.00     0.047 C 
HETATM   18  C   UNL     1      40.719 -12.623  -2.288  1.00  0.00     0.005 C 
HETATM   19  C   UNL     1      40.285 -11.884  -1.018  1.00  0.00     0.005 C 
BRANCH  12  20
HETATM   20  C   UNL     1      42.237 -14.079   2.718  1.00  0.00     0.296 C 
HETATM   21  O   UNL     1      43.139 -13.256   2.870  1.00  0.00    -0.259 OA
BRANCH  20  22
HETATM   22  O   UNL     1      41.537 -14.643   3.738  1.00  0.00    -0.318 OA
BRANCH  22  23
HETATM   23  C   UNL     1      41.387 -13.868   4.936  1.00  0.00     0.174 C 
HETATM   24  C   UNL     1      39.932 -13.489   5.124  1.00  0.00     0.034 C 
ENDBRANCH  22  23
ENDBRANCH  20  22
ENDBRANCH  12  20
ENDBRANCH   8  11
ENDBRANCH   1   7
BRANCH   2  25
HETATM   25  N   UNL     1      43.686 -16.877   4.878  1.00  0.00    -0.389 N 
HETATM   26  H   UNL     1      44.184 -16.130   4.391  1.00  0.00     0.159 HD
BRANCH  25  27
HETATM   27  C   UNL     1      43.593 -16.651   6.314  1.00  0.00     0.121 C 
BRANCH  27  28
HETATM   28  C   UNL     1      44.687 -15.665   6.737  1.00  0.00     0.047 C 
BRANCH  28  29
HETATM   29  C   UNL     1      44.080 -14.344   7.203  1.00  0.00     0.236 C 
BRANCH  29  30
HETATM   30  N   UNL     1      45.105 -13.505   7.943  1.00  0.00    -0.067 N 
HETATM   31  H   UNL     1      45.531 -14.089   8.674  1.00  0.00     0.280 HD
HETATM   32  C   UNL     1      46.227 -12.977   7.049  1.00  0.00     0.261 C 
HETATM   33  C   UNL     1      47.190 -12.123   7.882  1.00  0.00     0.195 C 
HETATM   34  O   UNL     1      46.503 -11.040   8.516  1.00  0.00    -0.388 OA
HETATM   35  C   UNL     1      45.483 -11.505   9.406  1.00  0.00     0.195 C 
HETATM   36  C   UNL     1      44.430 -12.324   8.652  1.00  0.00     0.261 C 
ENDBRANCH  29  30
ENDBRANCH  28  29
ENDBRANCH  27  28
ENDBRANCH  25  27
ENDBRANCH   2  25
BRANCH   5  37
HETATM   37  N   UNL     1      44.480 -22.119   2.760  1.00  0.00    -0.116 N 
HETATM   38  O   UNL     1      44.355 -22.264   1.536  1.00  0.00    -0.532 OA
HETATM   39  O   UNL     1      44.721 -23.030   3.562  1.00  0.00    -0.532 OA
ENDBRANCH   5  37
TORSDOF 11
ENDMDL
MODEL 3
REMARK VINA RESULT:      -8.1      1.800      2.398
REMARK  11 active torsions:
REMARK  status: ('A' for Active; 'I' for Inactive)
REMARK    1  A    between atoms: C_2  and  O_3 
REMARK    2  A    between atoms: O_3  and  C_4 
REMARK    3  A    between atoms: C_4  and  C_5 
REMARK    4  A    between atoms: C_6  and  N_7 
REMARK       I    between atoms: N_7  and  C_8 
REMARK    5  A    between atoms: C_8  and  C_9 
REMARK    6  A    between atoms: C_10  and  N_11 
REMARK    7  A    between atoms: N_11  and  C_12 
REMARK    8  A    between atoms: C_12  and  C_13 
REMARK    9  A    between atoms: C_13  and  C_14 
REMARK   10  A    between atoms: C_14  and  N_15 
REMARK   11  A    between atoms: C_24  and  N_25 
ROOT
HETATM    1  C   UNL     1      40.138 -14.874   2.288  1.00  0.00     0.061 A 
HETATM    2  C   UNL     1      39.856 -14.227   1.056  1.00  0.00     0.043 A 
HETATM    3  C   UNL     1      39.320 -12.929   1.135  1.00  0.00     0.032 A 
HETATM    4  C   UNL     1      39.098 -12.292   2.365  1.00  0.00     0.038 A 
HETATM    5  C   UNL     1      39.388 -12.960   3.557  1.00  0.00     0.104 A 
HETATM    6  C   UNL     1      39.905 -14.254   3.527  1.00  0.00     0.055 A 
ENDROOT
BRANCH   1   7
HETATM    7  C   UNL     1      40.669 -16.259   2.355  1.00  0.00     0.258 C 
HETATM    8  N   UNL     1      41.965 -16.341   2.828  1.00  0.00    -0.316 N 
HETATM    9  H   UNL     1      42.451 -15.478   3.057  1.00  0.00     0.169 HD
HETATM   10  O   UNL     1      39.934 -17.163   1.983  1.00  0.00    -0.267 OA
BRANCH   8  11
HETATM   11  C   UNL     1      42.692 -17.502   3.059  1.00  0.00     0.094 A 
HETATM   12  C   UNL     1      43.138 -17.967   4.293  1.00  0.00     0.080 A 
HETATM   13  C   UNL     1      43.779 -19.262   4.149  1.00  0.00    -0.026 A 
HETATM   14  C   UNL     1      43.753 -19.695   2.836  1.00  0.00    -0.008 A 
HETATM   15  C   UNL     1      44.384 -20.118   5.231  1.00  0.00     0.041 C 
HETATM   16  S   UNL     1      43.062 -18.561   1.787  1.00  0.00    -0.075 SA
HETATM   17  C   UNL     1      44.300 -20.995   2.329  1.00  0.00     0.047 C 
HETATM   18  C   UNL     1      44.536 -21.967   3.493  1.00  0.00     0.005 C 
HETATM   19  C   UNL     1      45.233 -21.269   4.666  1.00  0.00     0.005 C 
BRANCH  12  20
HETATM   20  C   UNL     1      42.966 -17.179   5.518  1.00  0.00     0.296 C 
HETATM   21  O   UNL     1      42.257 -17.556   6.450  1.00  0.00    -0.259 OA
BRANCH  20  22
HETATM   22  O   UNL     1      43.643 -16.000   5.502  1.00  0.00    -0.318 OA
BRANCH  22  23
HETATM   23  C   UNL     1      42.957 -14.845   6.006  1.00  0.00     0.174 C 
HETATM   24  C   UNL     1      43.164 -13.673   5.068  1.00  0.00     0.034 C 
ENDBRANCH  22  23
ENDBRANCH  20  22
ENDBRANCH  12  20
ENDBRANCH   8  11
ENDBRANCH   1   7
BRANCH   2  25
HETATM   25  N   UNL     1      39.938 -14.925  -0.163  1.00  0.00    -0.389 N 
HETATM   26  H   UNL     1      39.502 -15.847  -0.104  1.00  0.00     0.159 HD
BRANCH  25  27
HETATM   27  C   UNL     1      41.166 -14.931  -0.946  1.00  0.00     0.121 C 
BRANCH  27  28
HETATM   28  C   UNL     1      40.878 -15.538  -2.323  1.00  0.00     0.047 C 
BRANCH  28  29
HETATM   29  C   UNL     1      40.967 -14.475  -3.417  1.00  0.00     0.236 C 
BRANCH  29  30
HETATM   30  N   UNL     1      39.586 -14.058  -3.886  1.00  0.00    -0.067 N 
HETATM   31  H   UNL     1      39.627 -13.891  -4.899  1.00  0.00     0.280 HD
HETATM   32  C   UNL     1      38.506 -15.108  -3.624  1.00  0.00     0.261 C 
HETATM   33  C   UNL     1      37.149 -14.582  -4.106  1.00  0.00     0.195 C 
HETATM   34  O   UNL     1      36.815 -13.349  -3.463  1.00  0.00    -0.388 OA
HETATM   35  C   UNL     1      37.779 -12.327  -3.736  1.00  0.00     0.195 C 
HETATM   36  C   UNL     1      39.168 -12.735  -3.232  1.00  0.00     0.261 C 
ENDBRANCH  29  30
ENDBRANCH  28  29
ENDBRANCH  27  28
ENDBRANCH  25  27
ENDBRANCH   2  25
BRANCH   5  37
HETATM   37  N   UNL     1      39.136 -12.300   4.843  1.00  0.00    -0.116 N 
HETATM   38  O   UNL     1      39.696 -12.769   5.843  1.00  0.00    -0.532 OA
HETATM   39  O   UNL     1      38.377 -11.324   4.847  1.00  0.00    -0.532 OA
ENDBRANCH   5  37
TORSDOF 11
ENDMDL
MODEL 4
REMARK VINA RESULT:      -7.9      1.856      2.985
REMARK  11 active torsions:
REMARK  status: ('A' for Active; 'I' for Inactive)
REMARK    1  A    between atoms: C_2  and  O_3 
REMARK    2  A    between atoms: O_3  and  C_4 
REMARK    3  A    between atoms: C_4  and  C_5 
REMARK    4  A    between atoms: C_6  and  N_7 
REMARK       I    between atoms: N_7  and  C_8 
REMARK    5  A    between atoms: C_8  and  C_9 
REMARK    6  A    between atoms: C_10  and  N_11 
REMARK    7  A    between atoms: N_11  and  C_12 
REMARK    8  A    between atoms: C_12  and  C_13 
REMARK    9  A    between atoms: C_13  and  C_14 
REMARK   10  A    between atoms: C_14  and  N_15 
REMARK   11  A    between atoms: C_24  and  N_25 
ROOT
HETATM    1  C   UNL     1      41.928 -12.882   4.327  1.00  0.00     0.061 A 
HETATM    2  C   UNL     1      41.639 -11.917   3.326  1.00  0.00     0.043 A 
HETATM    3  C   UNL     1      40.809 -10.848   3.704  1.00  0.00     0.032 A 
HETATM    4  C   UNL     1      40.312 -10.720   5.009  1.00  0.00     0.038 A 
HETATM    5  C   UNL     1      40.618 -11.689   5.968  1.00  0.00     0.104 A 
HETATM    6  C   UNL     1      41.423 -12.775   5.634  1.00  0.00     0.055 A 
ENDROOT
BRANCH   1   7
HETATM    7  C   UNL     1      42.758 -14.083   4.057  1.00  0.00     0.258 C 
HETATM    8  N   UNL     1      42.101 -15.280   4.273  1.00  0.00    -0.316 N 
HETATM    9  H   UNL     1      41.144 -15.251   4.617  1.00  0.00     0.169 HD
HETATM   10  O   UNL     1      43.912 -13.901   3.695  1.00  0.00    -0.267 OA
BRANCH   8  11
HETATM   11  C   UNL     1      42.602 -16.555   4.042  1.00  0.00     0.094 A 
HETATM   12  C   UNL     1      42.574 -17.248   2.834  1.00  0.00     0.080 A 
HETATM   13  C   UNL     1      43.278 -18.512   2.956  1.00  0.00    -0.026 A 
HETATM   14  C   UNL     1      43.806 -18.677   4.223  1.00  0.00    -0.008 A 
HETATM   15  C   UNL     1      43.496 -19.553   1.889  1.00  0.00     0.041 C 
HETATM   16  S   UNL     1      43.407 -17.407   5.268  1.00  0.00    -0.075 SA
HETATM   17  C   UNL     1      44.613 -19.849   4.693  1.00  0.00     0.047 C 
HETATM   18  C   UNL     1      45.125 -20.661   3.496  1.00  0.00     0.005 C 
HETATM   19  C   UNL     1      44.017 -20.882   2.461  1.00  0.00     0.005 C 
BRANCH  12  20
HETATM   20  C   UNL     1      41.882 -16.713   1.658  1.00  0.00     0.296 C 
HETATM   21  O   UNL     1      42.443 -16.567   0.573  1.00  0.00    -0.259 OA
BRANCH  20  22
HETATM   22  O   UNL     1      40.586 -16.378   1.899  1.00  0.00    -0.318 OA
BRANCH  22  23
HETATM   23  C   UNL     1      40.087 -15.192   1.264  1.00  0.00     0.174 C 
HETATM   24  C   UNL     1      39.165 -14.451   2.212  1.00  0.00     0.034 C 
ENDBRANCH  22  23
ENDBRANCH  20  22
ENDBRANCH  12  20
ENDBRANCH   8  11
ENDBRANCH   1   7
BRANCH   2  25
HETATM   25  N   UNL     1      42.014 -12.131   1.987  1.00  0.00    -0.389 N 
HETATM   26  H   UNL     1      43.027 -12.088   1.863  1.00  0.00     0.159 HD
BRANCH  25  27
HETATM   27  C   UNL     1      41.286 -11.504   0.892  1.00  0.00     0.121 C 
BRANCH  27  28
HETATM   28  C   UNL     1      41.623 -12.231  -0.414  1.00  0.00     0.047 C 
BRANCH  28  29
HETATM   29  C   UNL     1      40.474 -12.116  -1.414  1.00  0.00     0.236 C 
BRANCH  29  30
HETATM   30  N   UNL     1      40.093 -13.477  -1.966  1.00  0.00    -0.067 N 
HETATM   31  H   UNL     1      39.569 -13.982  -1.241  1.00  0.00     0.280 HD
HETATM   32  C   UNL     1      39.220 -13.408  -3.219  1.00  0.00     0.261 C 
HETATM   33  C   UNL     1      38.916 -14.828  -3.712  1.00  0.00     0.195 C 
HETATM   34  O   UNL     1      40.120 -15.551  -3.979  1.00  0.00    -0.388 OA
HETATM   35  C   UNL     1      40.934 -15.682  -2.809  1.00  0.00     0.195 C 
HETATM   36  C   UNL     1      41.346 -14.308  -2.271  1.00  0.00     0.261 C 
ENDBRANCH  29  30
ENDBRANCH  28  29
ENDBRANCH  27  28
ENDBRANCH  25  27
ENDBRANCH   2  25
BRANCH   5  37
HETATM   37  N   UNL     1      40.080 -11.565   7.328  1.00  0.00    -0.116 N 
HETATM   38  O   UNL     1      39.022 -12.158   7.579  1.00  0.00    -0.532 OA
HETATM   39  O   UNL     1      40.713 -10.872   8.134  1.00  0.00    -0.532 OA
ENDBRANCH   5  37
TORSDOF 11
ENDMDL
MODEL 5
REMARK VINA RESULT:      -7.8      3.001      7.694
REMARK  11 active torsions:
REMARK  status: ('A' for Active; 'I' for Inactive)
REMARK    1  A    between atoms: C_2  and  O_3 
REMARK    2  A    between atoms: O_3  and  C_4 
REMARK    3  A    between atoms: C_4  and  C_5 
REMARK    4  A    between atoms: C_6  and  N_7 
REMARK       I    between atoms: N_7  and  C_8 
REMARK    5  A    between atoms: C_8  and  C_9 
REMARK    6  A    between atoms: C_10  and  N_11 
REMARK    7  A    between atoms: N_11  and  C_12 
REMARK    8  A    between atoms: C_12  and  C_13 
REMARK    9  A    between atoms: C_13  and  C_14 
REMARK   10  A    between atoms: C_14  and  N_15 
REMARK   11  A    between atoms: C_24  and  N_25 
ROOT
HETATM    1  C   UNL     1      42.748 -14.567   5.199  1.00  0.00     0.061 A 
HETATM    2  C   UNL     1      42.450 -15.871   5.674  1.00  0.00     0.043 A 
HETATM    3  C   UNL     1      43.177 -16.313   6.794  1.00  0.00     0.032 A 
HETATM    4  C   UNL     1      44.128 -15.501   7.429  1.00  0.00     0.038 A 
HETATM    5  C   UNL     1      44.393 -14.222   6.933  1.00  0.00     0.104 A 
HETATM    6  C   UNL     1      43.709 -13.749   5.815  1.00  0.00     0.055 A 
ENDROOT
BRANCH   1   7
HETATM    7  C   UNL     1      42.086 -13.987   4.002  1.00  0.00     0.258 C 
HETATM    8  N   UNL     1      40.710 -13.907   4.105  1.00  0.00    -0.316 N 
HETATM    9  H   UNL     1      40.267 -14.264   4.948  1.00  0.00     0.169 HD
HETATM   10  O   UNL     1      42.801 -13.661   3.066  1.00  0.00    -0.267 OA
BRANCH   8  11
HETATM   11  C   UNL     1      39.840 -13.351   3.175  1.00  0.00     0.094 A 
HETATM   12  C   UNL     1      39.414 -13.940   1.988  1.00  0.00     0.080 A 
HETATM   13  C   UNL     1      38.433 -13.098   1.325  1.00  0.00    -0.026 A 
HETATM   14  C   UNL     1      38.169 -11.956   2.059  1.00  0.00    -0.008 A 
HETATM   15  C   UNL     1      37.711 -13.366   0.031  1.00  0.00     0.041 C 
HETATM   16  S   UNL     1      39.118 -11.843   3.455  1.00  0.00    -0.075 SA
HETATM   17  C   UNL     1      37.193 -10.881   1.690  1.00  0.00     0.047 C 
HETATM   18  C   UNL     1      36.230 -11.381   0.604  1.00  0.00     0.005 C 
HETATM   19  C   UNL     1      36.982 -12.122  -0.506  1.00  0.00     0.005 C 
BRANCH  12  20
HETATM   20  C   UNL     1      39.953 -15.224   1.529  1.00  0.00     0.296 C 
HETATM   21  O   UNL     1      39.737 -16.279   2.122  1.00  0.00    -0.259 OA
BRANCH  20  22
HETATM   22  O   UNL     1      40.725 -15.119   0.414  1.00  0.00    -0.318 OA
BRANCH  22  23
HETATM   23  C   UNL     1      41.360 -16.315  -0.057  1.00  0.00     0.174 C 
HETATM   24  C   UNL     1      42.629 -16.569   0.732  1.00  0.00     0.034 C 
ENDBRANCH  22  23
ENDBRANCH  20  22
ENDBRANCH  12  20
ENDBRANCH   8  11
ENDBRANCH   1   7
BRANCH   2  25
HETATM   25  N   UNL     1      41.611 -16.733   4.945  1.00  0.00    -0.389 N 
HETATM   26  H   UNL     1      40.666 -16.762   5.332  1.00  0.00     0.159 HD
BRANCH  25  27
HETATM   27  C   UNL     1      42.077 -18.039   4.498  1.00  0.00     0.121 C 
BRANCH  27  28
HETATM   28  C   UNL     1      43.477 -17.890   3.893  1.00  0.00     0.047 C 
BRANCH  28  29
HETATM   29  C   UNL     1      44.417 -18.970   4.423  1.00  0.00     0.236 C 
BRANCH  29  30
HETATM   30  N   UNL     1      44.086 -20.324   3.822  1.00  0.00    -0.067 N 
HETATM   31  H   UNL     1      43.103 -20.535   4.031  1.00  0.00     0.280 HD
HETATM   32  C   UNL     1      44.269 -20.383   2.306  1.00  0.00     0.261 C 
HETATM   33  C   UNL     1      43.938 -21.793   1.803  1.00  0.00     0.195 C 
HETATM   34  O   UNL     1      44.755 -22.776   2.445  1.00  0.00    -0.388 OA
HETATM   35  C   UNL     1      44.562 -22.784   3.864  1.00  0.00     0.195 C 
HETATM   36  C   UNL     1      44.929 -21.427   4.474  1.00  0.00     0.261 C 
ENDBRANCH  29  30
ENDBRANCH  28  29
ENDBRANCH  27  28
ENDBRANCH  25  27
ENDBRANCH   2  25
BRANCH   5  37
HETATM   37  N   UNL     1      45.403 -13.381   7.586  1.00  0.00    -0.116 N 
HETATM   38  O   UNL     1      45.229 -13.106   8.781  1.00  0.00    -0.532 OA
HETATM   39  O   UNL     1      46.357 -12.994   6.900  1.00  0.00    -0.532 OA
ENDBRANCH   5  37
TORSDOF 11
ENDMDL
MODEL 6
REMARK VINA RESULT:      -7.7      2.405      3.031
REMARK  11 active torsions:
REMARK  status: ('A' for Active; 'I' for Inactive)
REMARK    1  A    between atoms: C_2  and  O_3 
REMARK    2  A    between atoms: O_3  and  C_4 
REMARK    3  A    between atoms: C_4  and  C_5 
REMARK    4  A    between atoms: C_6  and  N_7 
REMARK       I    between atoms: N_7  and  C_8 
REMARK    5  A    between atoms: C_8  and  C_9 
REMARK    6  A    between atoms: C_10  and  N_11 
REMARK    7  A    between atoms: N_11  and  C_12 
REMARK    8  A    between atoms: C_12  and  C_13 
REMARK    9  A    between atoms: C_13  and  C_14 
REMARK   10  A    between atoms: C_14  and  N_15 
REMARK   11  A    between atoms: C_24  and  N_25 
ROOT
HETATM    1  C   UNL     1      40.059 -14.674   2.352  1.00  0.00     0.061 A 
HETATM    2  C   UNL     1      39.660 -14.085   1.123  1.00  0.00     0.043 A 
HETATM    3  C   UNL     1      39.136 -12.782   1.191  1.00  0.00     0.032 A 
HETATM    4  C   UNL     1      39.038 -12.085   2.404  1.00  0.00     0.038 A 
HETATM    5  C   UNL     1      39.441 -12.696   3.593  1.00  0.00     0.104 A 
HETATM    6  C   UNL     1      39.950 -13.992   3.576  1.00  0.00     0.055 A 
ENDROOT
BRANCH   1   7
HETATM    7  C   UNL     1      40.592 -16.057   2.435  1.00  0.00     0.258 C 
HETATM    8  N   UNL     1      41.905 -16.129   2.863  1.00  0.00    -0.316 N 
HETATM    9  H   UNL     1      42.399 -15.261   3.054  1.00  0.00     0.169 HD
HETATM   10  O   UNL     1      39.844 -16.969   2.112  1.00  0.00    -0.267 OA
BRANCH   8  11
HETATM   11  C   UNL     1      42.638 -17.286   3.097  1.00  0.00     0.094 A 
HETATM   12  C   UNL     1      43.031 -17.779   4.338  1.00  0.00     0.080 A 
HETATM   13  C   UNL     1      43.700 -19.060   4.189  1.00  0.00    -0.026 A 
HETATM   14  C   UNL     1      43.746 -19.454   2.865  1.00  0.00    -0.008 A 
HETATM   15  C   UNL     1      44.265 -19.937   5.275  1.00  0.00     0.041 C 
HETATM   16  S   UNL     1      43.089 -18.301   1.816  1.00  0.00    -0.075 SA
HETATM   17  C   UNL     1      44.339 -20.730   2.349  1.00  0.00     0.047 C 
HETATM   18  C   UNL     1      44.534 -21.732   3.495  1.00  0.00     0.005 C 
HETATM   19  C   UNL     1      45.160 -21.058   4.720  1.00  0.00     0.005 C 
BRANCH  12  20
HETATM   20  C   UNL     1      42.786 -17.030   5.575  1.00  0.00     0.296 C 
HETATM   21  O   UNL     1      41.976 -17.404   6.423  1.00  0.00    -0.259 OA
BRANCH  20  22
HETATM   22  O   UNL     1      43.517 -15.888   5.669  1.00  0.00    -0.318 OA
BRANCH  22  23
HETATM   23  C   UNL     1      44.061 -15.563   6.956  1.00  0.00     0.174 C 
HETATM   24  C   UNL     1      44.874 -14.286   6.864  1.00  0.00     0.034 C 
ENDBRANCH  22  23
ENDBRANCH  20  22
ENDBRANCH  12  20
ENDBRANCH   8  11
ENDBRANCH   1   7
BRANCH   2  25
HETATM   25  N   UNL     1      39.620 -14.842  -0.062  1.00  0.00    -0.389 N 
HETATM   26  H   UNL     1      40.190 -15.687   0.006  1.00  0.00     0.159 HD
BRANCH  25  27
HETATM   27  C   UNL     1      39.714 -14.203  -1.367  1.00  0.00     0.121 C 
BRANCH  27  28
HETATM   28  C   UNL     1      40.988 -14.685  -2.070  1.00  0.00     0.047 C 
BRANCH  28  29
HETATM   29  C   UNL     1      41.342 -13.772  -3.243  1.00  0.00     0.236 C 
BRANCH  29  30
HETATM   30  N   UNL     1      41.654 -12.367  -2.764  1.00  0.00    -0.067 N 
HETATM   31  H   UNL     1      40.800 -11.971  -2.352  1.00  0.00     0.280 HD
HETATM   32  C   UNL     1      42.758 -12.310  -1.708  1.00  0.00     0.261 C 
HETATM   33  C   UNL     1      43.017 -10.851  -1.313  1.00  0.00     0.195 C 
HETATM   34  O   UNL     1      43.372 -10.063  -2.452  1.00  0.00    -0.388 OA
HETATM   35  C   UNL     1      42.332 -10.050  -3.436  1.00  0.00     0.195 C 
HETATM   36  C   UNL     1      42.041 -11.465  -3.943  1.00  0.00     0.261 C 
ENDBRANCH  29  30
ENDBRANCH  28  29
ENDBRANCH  27  28
ENDBRANCH  25  27
ENDBRANCH   2  25
BRANCH   5  37
HETATM   37  N   UNL     1      39.318 -11.972   4.864  1.00  0.00    -0.116 N 
HETATM   38  O   UNL     1      39.879 -10.872   4.950  1.00  0.00    -0.532 OA
HETATM   39  O   UNL     1      38.669 -12.511   5.769  1.00  0.00    -0.532 OA
ENDBRANCH   5  37
TORSDOF 11
ENDMDL
MODEL 7
REMARK VINA RESULT:      -7.7      4.614      8.618
REMARK  11 active torsions:
REMARK  status: ('A' for Active; 'I' for Inactive)
REMARK    1  A    between atoms: C_2  and  O_3 
REMARK    2  A    between atoms: O_3  and  C_4 
REMARK    3  A    between atoms: C_4  and  C_5 
REMARK    4  A    between atoms: C_6  and  N_7 
REMARK       I    between atoms: N_7  and  C_8 
REMARK    5  A    between atoms: C_8  and  C_9 
REMARK    6  A    between atoms: C_10  and  N_11 
REMARK    7  A    between atoms: N_11  and  C_12 
REMARK    8  A    between atoms: C_12  and  C_13 
REMARK    9  A    between atoms: C_13  and  C_14 
REMARK   10  A    between atoms: C_14  and  N_15 
REMARK   11  A    between atoms: C_24  and  N_25 
ROOT
HETATM    1  C   UNL     1      41.263 -11.532   6.059  1.00  0.00     0.061 A 
HETATM    2  C   UNL     1      41.999 -12.718   5.796  1.00  0.00     0.043 A 
HETATM    3  C   UNL     1      41.583 -13.485   4.694  1.00  0.00     0.032 A 
HETATM    4  C   UNL     1      40.514 -13.089   3.876  1.00  0.00     0.038 A 
HETATM    5  C   UNL     1      39.814 -11.916   4.165  1.00  0.00     0.104 A 
HETATM    6  C   UNL     1      40.180 -11.133   5.257  1.00  0.00     0.055 A 
ENDROOT
BRANCH   1   7
HETATM    7  C   UNL     1      41.566 -10.647   7.212  1.00  0.00     0.258 C 
HETATM    8  N   UNL     1      41.369 -11.243   8.444  1.00  0.00    -0.316 N 
HETATM    9  H   UNL     1      41.015 -12.196   8.468  1.00  0.00     0.169 HD
HETATM   10  O   UNL     1      41.937  -9.508   6.966  1.00  0.00    -0.267 OA
BRANCH   8  11
HETATM   11  C   UNL     1      41.632 -10.683   9.688  1.00  0.00     0.094 A 
HETATM   12  C   UNL     1      42.788 -10.857  10.444  1.00  0.00     0.080 A 
HETATM   13  C   UNL     1      42.739 -10.038  11.643  1.00  0.00    -0.026 A 
HETATM   14  C   UNL     1      41.577  -9.292  11.699  1.00  0.00    -0.008 A 
HETATM   15  C   UNL     1      43.785  -9.917  12.721  1.00  0.00     0.041 C 
HETATM   16  S   UNL     1      40.531  -9.614  10.408  1.00  0.00    -0.075 SA
HETATM   17  C   UNL     1      41.207  -8.321  12.779  1.00  0.00     0.047 C 
HETATM   18  C   UNL     1      42.441  -7.953  13.614  1.00  0.00     0.005 C 
HETATM   19  C   UNL     1      43.259  -9.197  13.974  1.00  0.00     0.005 C 
BRANCH  12  20
HETATM   20  C   UNL     1      43.848 -11.781  10.028  1.00  0.00     0.296 C 
HETATM   21  O   UNL     1      44.092 -12.821  10.637  1.00  0.00    -0.259 OA
BRANCH  20  22
HETATM   22  O   UNL     1      44.534 -11.357   8.933  1.00  0.00    -0.318 OA
BRANCH  22  23
HETATM   23  C   UNL     1      45.948 -11.170   9.079  1.00  0.00     0.174 C 
HETATM   24  C   UNL     1      46.688 -12.030   8.073  1.00  0.00     0.034 C 
ENDBRANCH  22  23
ENDBRANCH  20  22
ENDBRANCH  12  20
ENDBRANCH   8  11
ENDBRANCH   1   7
BRANCH   2  25
HETATM   25  N   UNL     1      42.967 -13.184   6.704  1.00  0.00    -0.389 N 
HETATM   26  H   UNL     1      43.192 -12.485   7.414  1.00  0.00     0.159 HD
BRANCH  25  27
HETATM   27  C   UNL     1      44.138 -13.919   6.246  1.00  0.00     0.121 C 
BRANCH  27  28
HETATM   28  C   UNL     1      44.516 -14.966   7.299  1.00  0.00     0.047 C 
BRANCH  28  29
HETATM   29  C   UNL     1      44.463 -16.375   6.711  1.00  0.00     0.236 C 
BRANCH  29  30
HETATM   30  N   UNL     1      43.210 -16.570   5.877  1.00  0.00    -0.067 N 
HETATM   31  H   UNL     1      43.019 -15.694   5.376  1.00  0.00     0.280 HD
HETATM   32  C   UNL     1      43.331 -17.688   4.842  1.00  0.00     0.261 C 
HETATM   33  C   UNL     1      42.011 -17.824   4.074  1.00  0.00     0.195 C 
HETATM   34  O   UNL     1      40.921 -18.080   4.963  1.00  0.00    -0.388 OA
HETATM   35  C   UNL     1      40.746 -17.021   5.911  1.00  0.00     0.195 C 
HETATM   36  C   UNL     1      41.998 -16.846   6.775  1.00  0.00     0.261 C 
ENDBRANCH  29  30
ENDBRANCH  28  29
ENDBRANCH  27  28
ENDBRANCH  25  27
ENDBRANCH   2  25
BRANCH   5  37
HETATM   37  N   UNL     1      38.683 -11.514   3.320  1.00  0.00    -0.116 N 
HETATM   38  O   UNL     1      37.907 -10.663   3.775  1.00  0.00    -0.532 OA
HETATM   39  O   UNL     1      38.573 -12.056   2.214  1.00  0.00    -0.532 OA
ENDBRANCH   5  37
TORSDOF 11
ENDMDL
MODEL 8
REMARK VINA RESULT:      -7.7      2.351      6.360
REMARK  11 active torsions:
REMARK  status: ('A' for Active; 'I' for Inactive)
REMARK    1  A    between atoms: C_2  and  O_3 
REMARK    2  A    between atoms: O_3  and  C_4 
REMARK    3  A    between atoms: C_4  and  C_5 
REMARK    4  A    between atoms: C_6  and  N_7 
REMARK       I    between atoms: N_7  and  C_8 
REMARK    5  A    between atoms: C_8  and  C_9 
REMARK    6  A    between atoms: C_10  and  N_11 
REMARK    7  A    between atoms: N_11  and  C_12 
REMARK    8  A    between atoms: C_12  and  C_13 
REMARK    9  A    between atoms: C_13  and  C_14 
REMARK   10  A    between atoms: C_14  and  N_15 
REMARK   11  A    between atoms: C_24  and  N_25 
ROOT
HETATM    1  C   UNL     1      43.407 -17.578   3.085  1.00  0.00     0.061 A 
HETATM    2  C   UNL     1      43.363 -18.099   1.765  1.00  0.00     0.043 A 
HETATM    3  C   UNL     1      43.760 -19.438   1.603  1.00  0.00     0.032 A 
HETATM    4  C   UNL     1      44.153 -20.231   2.690  1.00  0.00     0.038 A 
HETATM    5  C   UNL     1      44.183 -19.685   3.975  1.00  0.00     0.104 A 
HETATM    6  C   UNL     1      43.814 -18.357   4.181  1.00  0.00     0.055 A 
ENDROOT
BRANCH   1   7
HETATM    7  C   UNL     1      43.053 -16.170   3.397  1.00  0.00     0.258 C 
HETATM    8  N   UNL     1      41.897 -16.033   4.142  1.00  0.00    -0.316 N 
HETATM    9  H   UNL     1      41.377 -16.872   4.386  1.00  0.00     0.169 HD
HETATM   10  O   UNL     1      43.791 -15.296   2.965  1.00  0.00    -0.267 OA
BRANCH   8  11
HETATM   11  C   UNL     1      41.362 -14.848   4.633  1.00  0.00     0.094 A 
HETATM   12  C   UNL     1      41.906 -14.050   5.636  1.00  0.00     0.080 A 
HETATM   13  C   UNL     1      41.115 -12.844   5.811  1.00  0.00    -0.026 A 
HETATM   14  C   UNL     1      40.055 -12.801   4.923  1.00  0.00    -0.008 A 
HETATM   15  C   UNL     1      41.360 -11.711   6.773  1.00  0.00     0.041 C 
HETATM   16  S   UNL     1      39.950 -14.191   3.964  1.00  0.00    -0.075 SA
HETATM   17  C   UNL     1      39.052 -11.694   4.807  1.00  0.00     0.047 C 
HETATM   18  C   UNL     1      39.564 -10.430   5.510  1.00  0.00     0.005 C 
HETATM   19  C   UNL     1      40.156 -10.762   6.885  1.00  0.00     0.005 C 
BRANCH  12  20
HETATM   20  C   UNL     1      43.100 -14.458   6.381  1.00  0.00     0.296 C 
HETATM   21  O   UNL     1      43.227 -15.586   6.856  1.00  0.00    -0.259 OA
BRANCH  20  22
HETATM   22  O   UNL     1      44.022 -13.467   6.510  1.00  0.00    -0.318 OA
BRANCH  22  23
HETATM   23  C   UNL     1      44.984 -13.601   7.566  1.00  0.00     0.174 C 
HETATM   24  C   UNL     1      44.749 -12.533   8.615  1.00  0.00     0.034 C 
ENDBRANCH  22  23
ENDBRANCH  20  22
ENDBRANCH  12  20
ENDBRANCH   8  11
ENDBRANCH   1   7
BRANCH   2  25
HETATM   25  N   UNL     1      43.115 -17.258   0.664  1.00  0.00    -0.389 N 
HETATM   26  H   UNL     1      43.798 -16.501   0.601  1.00  0.00     0.159 HD
BRANCH  25  27
HETATM   27  C   UNL     1      41.763 -16.826   0.336  1.00  0.00     0.121 C 
BRANCH  27  28
HETATM   28  C   UNL     1      41.765 -15.312   0.098  1.00  0.00     0.047 C 
BRANCH  28  29
HETATM   29  C   UNL     1      40.358 -14.736   0.240  1.00  0.00     0.236 C 
BRANCH  29  30
HETATM   30  N   UNL     1      39.646 -14.704  -1.100  1.00  0.00    -0.067 N 
HETATM   31  H   UNL     1      39.245 -15.634  -1.272  1.00  0.00     0.280 HD
HETATM   32  C   UNL     1      38.511 -13.682  -1.166  1.00  0.00     0.261 C 
HETATM   33  C   UNL     1      37.877 -13.708  -2.562  1.00  0.00     0.195 C 
HETATM   34  O   UNL     1      38.849 -13.443  -3.576  1.00  0.00    -0.388 OA
HETATM   35  C   UNL     1      39.898 -14.418  -3.576  1.00  0.00     0.195 C 
HETATM   36  C   UNL     1      40.638 -14.427  -2.236  1.00  0.00     0.261 C 
ENDBRANCH  29  30
ENDBRANCH  28  29
ENDBRANCH  27  28
ENDBRANCH  25  27
ENDBRANCH   2  25
BRANCH   5  37
HETATM   37  N   UNL     1      44.614 -20.511   5.110  1.00  0.00    -0.116 N 
HETATM   38  O   UNL     1      44.336 -20.107   6.247  1.00  0.00    -0.532 OA
HETATM   39  O   UNL     1      45.233 -21.552   4.858  1.00  0.00    -0.532 OA
ENDBRANCH   5  37
TORSDOF 11
ENDMDL
MODEL 9
REMARK VINA RESULT:      -7.7      3.410      9.234
REMARK  11 active torsions:
REMARK  status: ('A' for Active; 'I' for Inactive)
REMARK    1  A    between atoms: C_2  and  O_3 
REMARK    2  A    between atoms: O_3  and  C_4 
REMARK    3  A    between atoms: C_4  and  C_5 
REMARK    4  A    between atoms: C_6  and  N_7 
REMARK       I    between atoms: N_7  and  C_8 
REMARK    5  A    between atoms: C_8  and  C_9 
REMARK    6  A    between atoms: C_10  and  N_11 
REMARK    7  A    between atoms: N_11  and  C_12 
REMARK    8  A    between atoms: C_12  and  C_13 
REMARK    9  A    between atoms: C_13  and  C_14 
REMARK   10  A    between atoms: C_14  and  N_15 
REMARK   11  A    between atoms: C_24  and  N_25 
ROOT
HETATM    1  C   UNL     1      43.487 -16.978   5.920  1.00  0.00     0.061 A 
HETATM    2  C   UNL     1      43.659 -16.353   7.184  1.00  0.00     0.043 A 
HETATM    3  C   UNL     1      43.850 -17.206   8.286  1.00  0.00     0.032 A 
HETATM    4  C   UNL     1      43.897 -18.601   8.145  1.00  0.00     0.038 A 
HETATM    5  C   UNL     1      43.725 -19.179   6.885  1.00  0.00     0.104 A 
HETATM    6  C   UNL     1      43.516 -18.374   5.768  1.00  0.00     0.055 A 
ENDROOT
BRANCH   1   7
HETATM    7  C   UNL     1      43.237 -16.203   4.679  1.00  0.00     0.258 C 
HETATM    8  N   UNL     1      42.156 -16.652   3.944  1.00  0.00    -0.316 N 
HETATM    9  H   UNL     1      41.650 -17.467   4.280  1.00  0.00     0.169 HD
HETATM   10  O   UNL     1      43.999 -15.279   4.428  1.00  0.00    -0.267 OA
BRANCH   8  11
HETATM   11  C   UNL     1      41.649 -16.084   2.782  1.00  0.00     0.094 A 
HETATM   12  C   UNL     1      41.943 -16.471   1.477  1.00  0.00     0.080 A 
HETATM   13  C   UNL     1      41.150 -15.707   0.529  1.00  0.00    -0.026 A 
HETATM   14  C   UNL     1      40.304 -14.824   1.174  1.00  0.00    -0.008 A 
HETATM   15  C   UNL     1      41.147 -15.820  -0.973  1.00  0.00     0.041 C 
HETATM   16  S   UNL     1      40.502 -14.838   2.854  1.00  0.00    -0.075 SA
HETATM   17  C   UNL     1      39.329 -13.900   0.510  1.00  0.00     0.047 C 
HETATM   18  C   UNL     1      39.091 -14.326  -0.945  1.00  0.00     0.005 C 
HETATM   19  C   UNL     1      40.412 -14.652  -1.650  1.00  0.00     0.005 C 
BRANCH  12  20
HETATM   20  C   UNL     1      42.949 -17.498   1.188  1.00  0.00     0.296 C 
HETATM   21  O   UNL     1      43.994 -17.247   0.590  1.00  0.00    -0.259 OA
BRANCH  20  22
HETATM   22  O   UNL     1      42.594 -18.738   1.619  1.00  0.00    -0.318 OA
BRANCH  22  23
HETATM   23  C   UNL     1      43.615 -19.530   2.244  1.00  0.00     0.174 C 
HETATM   24  C   UNL     1      43.472 -20.978   1.822  1.00  0.00     0.034 C 
ENDBRANCH  22  23
ENDBRANCH  20  22
ENDBRANCH  12  20
ENDBRANCH   8  11
ENDBRANCH   1   7
BRANCH   2  25
HETATM   25  N   UNL     1      43.460 -14.970   7.340  1.00  0.00    -0.389 N 
HETATM   26  H   UNL     1      42.785 -14.603   6.667  1.00  0.00     0.159 HD
BRANCH  25  27
HETATM   27  C   UNL     1      44.582 -14.068   7.562  1.00  0.00     0.121 C 
BRANCH  27  28
HETATM   28  C   UNL     1      44.046 -12.696   7.984  1.00  0.00     0.047 C 
BRANCH  28  29
HETATM   29  C   UNL     1      44.513 -12.338   9.393  1.00  0.00     0.236 C 
BRANCH  29  30
HETATM   30  N   UNL     1      43.335 -12.007  10.290  1.00  0.00    -0.067 N 
HETATM   31  H   UNL     1      42.678 -12.797  10.262  1.00  0.00     0.280 HD
HETATM   32  C   UNL     1      43.723 -11.769  11.749  1.00  0.00     0.261 C 
HETATM   33  C   UNL     1      42.472 -11.416  12.563  1.00  0.00     0.195 C 
HETATM   34  O   UNL     1      41.814 -10.266  12.025  1.00  0.00    -0.388 OA
HETATM   35  C   UNL     1      41.386 -10.480  10.676  1.00  0.00     0.195 C 
HETATM   36  C   UNL     1      42.580 -10.780   9.764  1.00  0.00     0.261 C 
ENDBRANCH  29  30
ENDBRANCH  28  29
ENDBRANCH  27  28
ENDBRANCH  25  27
ENDBRANCH   2  25
BRANCH   5  37
HETATM   37  N   UNL     1      43.754 -20.640   6.742  1.00  0.00    -0.116 N 
HETATM   38  O   UNL     1      43.373 -21.315   7.708  1.00  0.00    -0.532 OA
HETATM   39  O   UNL     1      44.164 -21.102   5.670  1.00  0.00    -0.532 OA
ENDBRANCH   5  37
TORSDOF 11
ENDMDL
MODEL 10
REMARK VINA RESULT:      -7.7      3.080      9.341
REMARK  11 active torsions:
REMARK  status: ('A' for Active; 'I' for Inactive)
REMARK    1  A    between atoms: C_2  and  O_3 
REMARK    2  A    between atoms: O_3  and  C_4 
REMARK    3  A    between atoms: C_4  and  C_5 
REMARK    4  A    between atoms: C_6  and  N_7 
REMARK       I    between atoms: N_7  and  C_8 
REMARK    5  A    between atoms: C_8  and  C_9 
REMARK    6  A    between atoms: C_10  and  N_11 
REMARK    7  A    between atoms: N_11  and  C_12 
REMARK    8  A    between atoms: C_12  and  C_13 
REMARK    9  A    between atoms: C_13  and  C_14 
REMARK   10  A    between atoms: C_14  and  N_15 
REMARK   11  A    between atoms: C_24  and  N_25 
ROOT
HETATM    1  C   UNL     1      42.976 -17.122   5.358  1.00  0.00     0.061 A 
HETATM    2  C   UNL     1      43.930 -16.605   6.274  1.00  0.00     0.043 A 
HETATM    3  C   UNL     1      45.050 -17.414   6.538  1.00  0.00     0.032 A 
HETATM    4  C   UNL     1      45.233 -18.655   5.911  1.00  0.00     0.038 A 
HETATM    5  C   UNL     1      44.273 -19.130   5.014  1.00  0.00     0.104 A 
HETATM    6  C   UNL     1      43.139 -18.370   4.735  1.00  0.00     0.055 A 
ENDROOT
BRANCH   1   7
HETATM    7  C   UNL     1      41.728 -16.393   5.016  1.00  0.00     0.258 C 
HETATM    8  N   UNL     1      41.808 -15.656   3.850  1.00  0.00    -0.316 N 
HETATM    9  H   UNL     1      42.692 -15.643   3.347  1.00  0.00     0.169 HD
HETATM   10  O   UNL     1      40.783 -16.503   5.785  1.00  0.00    -0.267 OA
BRANCH   8  11
HETATM   11  C   UNL     1      40.783 -14.933   3.253  1.00  0.00     0.094 A 
HETATM   12  C   UNL     1      40.489 -13.589   3.464  1.00  0.00     0.080 A 
HETATM   13  C   UNL     1      39.408 -13.161   2.592  1.00  0.00    -0.026 A 
HETATM   14  C   UNL     1      38.981 -14.191   1.774  1.00  0.00    -0.008 A 
HETATM   15  C   UNL     1      38.794 -11.790   2.488  1.00  0.00     0.041 C 
HETATM   16  S   UNL     1      39.781 -15.649   2.088  1.00  0.00    -0.075 SA
HETATM   17  C   UNL     1      37.904 -14.100   0.737  1.00  0.00     0.047 C 
HETATM   18  C   UNL     1      37.600 -12.632   0.408  1.00  0.00     0.005 C 
HETATM   19  C   UNL     1      37.484 -11.791   1.684  1.00  0.00     0.005 C 
BRANCH  12  20
HETATM   20  C   UNL     1      41.202 -12.794   4.468  1.00  0.00     0.296 C 
HETATM   21  O   UNL     1      41.944 -11.860   4.165  1.00  0.00    -0.259 OA
BRANCH  20  22
HETATM   22  O   UNL     1      40.980 -13.209   5.744  1.00  0.00    -0.318 OA
BRANCH  22  23
HETATM   23  C   UNL     1      39.697 -12.917   6.313  1.00  0.00     0.174 C 
HETATM   24  C   UNL     1      39.680 -11.497   6.843  1.00  0.00     0.034 C 
ENDBRANCH  22  23
ENDBRANCH  20  22
ENDBRANCH  12  20
ENDBRANCH   8  11
ENDBRANCH   1   7
BRANCH   2  25
HETATM   25  N   UNL     1      43.667 -15.436   7.010  1.00  0.00    -0.389 N 
HETATM   26  H   UNL     1      42.688 -15.152   6.938  1.00  0.00     0.159 HD
BRANCH  25  27
HETATM   27  C   UNL     1      44.585 -14.305   6.982  1.00  0.00     0.121 C 
BRANCH  27  28
HETATM   28  C   UNL     1      43.913 -13.098   7.645  1.00  0.00     0.047 C 
BRANCH  28  29
HETATM   29  C   UNL     1      44.740 -12.595   8.826  1.00  0.00     0.236 C 
BRANCH  29  30
HETATM   30  N   UNL     1      43.867 -11.866   9.831  1.00  0.00    -0.067 N 
HETATM   31  H   UNL     1      43.268 -12.559  10.298  1.00  0.00     0.280 HD
HETATM   32  C   UNL     1      44.658 -11.125  10.908  1.00  0.00     0.261 C 
HETATM   33  C   UNL     1      43.691 -10.401  11.852  1.00  0.00     0.195 C 
HETATM   34  O   UNL     1      42.850  -9.494  11.134  1.00  0.00    -0.388 OA
HETATM   35  C   UNL     1      42.052 -10.169  10.155  1.00  0.00     0.195 C 
HETATM   36  C   UNL     1      42.934 -10.876   9.122  1.00  0.00     0.261 C 
ENDBRANCH  29  30
ENDBRANCH  28  29
ENDBRANCH  27  28
ENDBRANCH  25  27
ENDBRANCH   2  25
BRANCH   5  37
HETATM   37  N   UNL     1      44.455 -20.438   4.374  1.00  0.00    -0.116 N 
HETATM   38  O   UNL     1      44.261 -20.507   3.153  1.00  0.00    -0.532 OA
HETATM   39  O   UNL     1      44.784 -21.388   5.095  1.00  0.00    -0.532 OA
ENDBRANCH   5  37
TORSDOF 11
ENDMDL
