MODEL 1
REMARK VINA RESULT:      -8.7      0.000      0.000
REMARK  2 active torsions:
REMARK  status: ('A' for Active; 'I' for Inactive)
REMARK    1  A    between atoms: C_5  and  C_7 
REMARK    2  A    between atoms: C_5  and  O_6 
ROOT
HETATM    1  C   UNL     1      41.501 -12.196   6.214  1.00  0.00     0.050 C 
HETATM    2  C   UNL     1      41.967 -13.244   5.252  1.00  0.00    -0.035 A 
HETATM    3  C   UNL     1      41.652 -14.589   5.363  1.00  0.00     0.051 A 
HETATM    4  C   UNL     1      42.100 -15.545   4.441  1.00  0.00     0.018 A 
HETATM    5  C   UNL     1      41.534 -16.904   4.801  1.00  0.00     0.199 A 
HETATM    6  C   UNL     1      40.769 -16.580   6.130  1.00  0.00     0.266 A 
HETATM    7  O   UNL     1      40.129 -17.333   6.849  1.00  0.00    -0.269 OA
HETATM    8  N   UNL     1      40.877 -15.204   6.339  1.00  0.00    -0.323 N 
HETATM    9  C   UNL     1      42.885 -15.171   3.362  1.00  0.00     0.013 A 
HETATM   10  C   UNL     1      43.226 -13.826   3.230  1.00  0.00     0.001 A 
HETATM   11  C   UNL     1      42.773 -12.875   4.162  1.00  0.00     0.009 A 
HETATM   12  H   UNL     1      40.443 -14.751   7.129  1.00  0.00     0.169 HD
ENDROOT
BRANCH   5  13
HETATM   13  C   UNL     1      42.693 -17.857   4.982  1.00  0.00     0.025 A 
HETATM   14  C   UNL     1      43.220 -18.801   4.018  1.00  0.00     0.003 A 
HETATM   15  C   UNL     1      44.301 -19.455   4.610  1.00  0.00     0.043 A 
HETATM   16  C   UNL     1      42.885 -19.164   2.694  1.00  0.00     0.014 A 
HETATM   17  C   UNL     1      45.057 -20.437   3.957  1.00  0.00     0.030 A 
HETATM   18  N   UNL     1      44.438 -18.946   5.875  1.00  0.00    -0.359 N 
HETATM   19  C   UNL     1      44.701 -20.769   2.649  1.00  0.00     0.002 A 
HETATM   20  C   UNL     1      43.630 -20.143   2.024  1.00  0.00     0.001 A 
HETATM   21  H   UNL     1      45.156 -19.233   6.526  1.00  0.00     0.166 HD
HETATM   22  C   UNL     1      43.485 -17.994   6.124  1.00  0.00     0.016 A 
HETATM   23  C   UNL     1      43.443 -17.291   7.435  1.00  0.00     0.069 C 
ENDBRANCH   5  13
BRANCH   5  24
HETATM   24  O   UNL     1      40.617 -17.297   3.781  1.00  0.00    -0.371 OA
HETATM   25  H   UNL     1      40.992 -16.990   2.940  1.00  0.00     0.212 HD
ENDBRANCH   5  24
TORSDOF 2
ENDMDL
MODEL 2
REMARK VINA RESULT:      -8.1      3.035      3.896
REMARK  2 active torsions:
REMARK  status: ('A' for Active; 'I' for Inactive)
REMARK    1  A    between atoms: C_5  and  C_7 
REMARK    2  A    between atoms: C_5  and  O_6 
ROOT
HETATM    1  C   UNL     1      40.995 -12.442  -0.711  1.00  0.00     0.050 C 
HETATM    2  C   UNL     1      40.465 -13.285   0.406  1.00  0.00    -0.035 A 
HETATM    3  C   UNL     1      41.186 -13.595   1.549  1.00  0.00     0.051 A 
HETATM    4  C   UNL     1      40.658 -14.384   2.581  1.00  0.00     0.018 A 
HETATM    5  C   UNL     1      41.663 -14.483   3.711  1.00  0.00     0.199 A 
HETATM    6  C   UNL     1      42.882 -13.702   3.111  1.00  0.00     0.266 A 
HETATM    7  O   UNL     1      43.974 -13.483   3.614  1.00  0.00    -0.269 OA
HETATM    8  N   UNL     1      42.480 -13.203   1.871  1.00  0.00    -0.323 N 
HETATM    9  C   UNL     1      39.368 -14.886   2.496  1.00  0.00     0.013 A 
HETATM   10  C   UNL     1      38.623 -14.598   1.354  1.00  0.00     0.001 A 
HETATM   11  C   UNL     1      39.164 -13.808   0.323  1.00  0.00     0.009 A 
HETATM   12  H   UNL     1      43.093 -12.644   1.299  1.00  0.00     0.169 HD
ENDROOT
BRANCH   5  13
HETATM   13  C   UNL     1      41.940 -15.948   3.958  1.00  0.00     0.025 A 
HETATM   14  C   UNL     1      42.713 -16.853   3.132  1.00  0.00     0.003 A 
HETATM   15  C   UNL     1      42.717 -18.100   3.757  1.00  0.00     0.043 A 
HETATM   16  C   UNL     1      43.413 -16.734   1.910  1.00  0.00     0.014 A 
HETATM   17  C   UNL     1      43.379 -19.219   3.235  1.00  0.00     0.030 A 
HETATM   18  N   UNL     1      41.986 -17.978   4.910  1.00  0.00    -0.359 N 
HETATM   19  C   UNL     1      44.064 -19.067   2.029  1.00  0.00     0.002 A 
HETATM   20  C   UNL     1      44.082 -17.842   1.373  1.00  0.00     0.001 A 
HETATM   21  H   UNL     1      41.836 -18.731   5.568  1.00  0.00     0.166 HD
HETATM   22  C   UNL     1      41.505 -16.703   5.049  1.00  0.00     0.016 A 
HETATM   23  C   UNL     1      40.688 -16.329   6.236  1.00  0.00     0.069 C 
ENDBRANCH   5  13
BRANCH   5  24
HETATM   24  O   UNL     1      41.138 -13.794   4.845  1.00  0.00    -0.371 OA
HETATM   25  H   UNL     1      41.729 -13.041   5.008  1.00  0.00     0.212 HD
ENDBRANCH   5  24
TORSDOF 2
ENDMDL
MODEL 3
REMARK VINA RESULT:      -8.0      2.446      3.048
REMARK  2 active torsions:
REMARK  status: ('A' for Active; 'I' for Inactive)
REMARK    1  A    between atoms: C_5  and  C_7 
REMARK    2  A    between atoms: C_5  and  O_6 
ROOT
HETATM    1  C   UNL     1      41.725 -11.845   1.128  1.00  0.00     0.050 C 
HETATM    2  C   UNL     1      41.222 -12.989   1.951  1.00  0.00    -0.035 A 
HETATM    3  C   UNL     1      41.909 -13.528   3.027  1.00  0.00     0.051 A 
HETATM    4  C   UNL     1      41.407 -14.598   3.781  1.00  0.00     0.018 A 
HETATM    5  C   UNL     1      42.357 -14.908   4.920  1.00  0.00     0.199 A 
HETATM    6  C   UNL     1      43.525 -13.903   4.633  1.00  0.00     0.266 A 
HETATM    7  O   UNL     1      44.563 -13.737   5.255  1.00  0.00    -0.269 OA
HETATM    8  N   UNL     1      43.141 -13.132   3.534  1.00  0.00    -0.323 N 
HETATM    9  C   UNL     1      40.178 -15.162   3.475  1.00  0.00     0.013 A 
HETATM   10  C   UNL     1      39.468 -14.646   2.391  1.00  0.00     0.001 A 
HETATM   11  C   UNL     1      39.983 -13.574   1.640  1.00  0.00     0.009 A 
HETATM   12  H   UNL     1      43.727 -12.396   3.171  1.00  0.00     0.169 HD
ENDROOT
BRANCH   5  13
HETATM   13  C   UNL     1      42.761 -16.361   4.805  1.00  0.00     0.025 A 
HETATM   14  C   UNL     1      43.219 -17.060   3.622  1.00  0.00     0.003 A 
HETATM   15  C   UNL     1      43.497 -18.377   3.986  1.00  0.00     0.043 A 
HETATM   16  C   UNL     1      43.428 -16.700   2.271  1.00  0.00     0.014 A 
HETATM   17  C   UNL     1      43.969 -19.341   3.086  1.00  0.00     0.030 A 
HETATM   18  N   UNL     1      43.225 -18.492   5.325  1.00  0.00    -0.359 N 
HETATM   19  C   UNL     1      44.168 -18.952   1.761  1.00  0.00     0.002 A 
HETATM   20  C   UNL     1      43.901 -17.649   1.356  1.00  0.00     0.001 A 
HETATM   21  H   UNL     1      43.350 -19.342   5.858  1.00  0.00     0.166 HD
HETATM   22  C   UNL     1      42.778 -17.302   5.836  1.00  0.00     0.016 A 
HETATM   23  C   UNL     1      42.428 -17.183   7.278  1.00  0.00     0.069 C 
ENDBRANCH   5  13
BRANCH   5  24
HETATM   24  O   UNL     1      41.711 -14.584   6.150  1.00  0.00    -0.371 OA
HETATM   25  H   UNL     1      41.761 -15.378   6.706  1.00  0.00     0.212 HD
ENDBRANCH   5  24
TORSDOF 2
ENDMDL
MODEL 4
REMARK VINA RESULT:      -7.6      2.101      2.843
REMARK  2 active torsions:
REMARK  status: ('A' for Active; 'I' for Inactive)
REMARK    1  A    between atoms: C_5  and  C_7 
REMARK    2  A    between atoms: C_5  and  O_6 
ROOT
HETATM    1  C   UNL     1      41.618 -11.513   4.772  1.00  0.00     0.050 C 
HETATM    2  C   UNL     1      41.308 -12.953   5.038  1.00  0.00    -0.035 A 
HETATM    3  C   UNL     1      42.228 -13.863   5.532  1.00  0.00     0.051 A 
HETATM    4  C   UNL     1      41.904 -15.205   5.775  1.00  0.00     0.018 A 
HETATM    5  C   UNL     1      43.101 -15.919   6.371  1.00  0.00     0.199 A 
HETATM    6  C   UNL     1      44.185 -14.788   6.337  1.00  0.00     0.266 A 
HETATM    7  O   UNL     1      45.350 -14.833   6.701  1.00  0.00    -0.269 OA
HETATM    8  N   UNL     1      43.558 -13.633   5.864  1.00  0.00    -0.323 N 
HETATM    9  C   UNL     1      40.623 -15.676   5.532  1.00  0.00     0.013 A 
HETATM   10  C   UNL     1      39.677 -14.785   5.026  1.00  0.00     0.001 A 
HETATM   11  C   UNL     1      40.016 -13.441   4.783  1.00  0.00     0.009 A 
HETATM   12  H   UNL     1      44.053 -12.760   5.773  1.00  0.00     0.169 HD
ENDROOT
BRANCH   5  13
HETATM   13  C   UNL     1      43.424 -17.100   5.485  1.00  0.00     0.025 A 
HETATM   14  C   UNL     1      43.514 -17.122   4.039  1.00  0.00     0.003 A 
HETATM   15  C   UNL     1      43.855 -18.419   3.654  1.00  0.00     0.043 A 
HETATM   16  C   UNL     1      43.340 -16.163   3.015  1.00  0.00     0.014 A 
HETATM   17  C   UNL     1      44.033 -18.803   2.318  1.00  0.00     0.030 A 
HETATM   18  N   UNL     1      43.971 -19.164   4.798  1.00  0.00    -0.359 N 
HETATM   19  C   UNL     1      43.857 -17.831   1.333  1.00  0.00     0.002 A 
HETATM   20  C   UNL     1      43.514 -16.528   1.674  1.00  0.00     0.001 A 
HETATM   21  H   UNL     1      44.223 -20.143   4.814  1.00  0.00     0.166 HD
HETATM   22  C   UNL     1      43.712 -18.400   5.905  1.00  0.00     0.016 A 
HETATM   23  C   UNL     1      43.787 -18.995   7.268  1.00  0.00     0.069 C 
ENDBRANCH   5  13
BRANCH   5  24
HETATM   24  O   UNL     1      42.792 -16.274   7.718  1.00  0.00    -0.371 OA
HETATM   25  H   UNL     1      43.225 -15.614   8.283  1.00  0.00     0.212 HD
ENDBRANCH   5  24
TORSDOF 2
ENDMDL
MODEL 5
REMARK VINA RESULT:      -7.6      1.884      3.136
REMARK  2 active torsions:
REMARK  status: ('A' for Active; 'I' for Inactive)
REMARK    1  A    between atoms: C_5  and  C_7 
REMARK    2  A    between atoms: C_5  and  O_6 
ROOT
HETATM    1  C   UNL     1      39.403 -13.132   5.901  1.00  0.00     0.050 C 
HETATM    2  C   UNL     1      40.752 -13.541   5.400  1.00  0.00    -0.035 A 
HETATM    3  C   UNL     1      40.955 -14.512   4.432  1.00  0.00     0.051 A 
HETATM    4  C   UNL     1      42.233 -14.869   3.980  1.00  0.00     0.018 A 
HETATM    5  C   UNL     1      42.114 -15.906   2.881  1.00  0.00     0.199 A 
HETATM    6  C   UNL     1      40.566 -16.149   2.850  1.00  0.00     0.266 A 
HETATM    7  O   UNL     1      39.924 -16.905   2.137  1.00  0.00    -0.269 OA
HETATM    8  N   UNL     1      39.994 -15.263   3.766  1.00  0.00    -0.323 N 
HETATM    9  C   UNL     1      43.362 -14.245   4.490  1.00  0.00     0.013 A 
HETATM   10  C   UNL     1      43.189 -13.270   5.471  1.00  0.00     0.001 A 
HETATM   11  C   UNL     1      41.901 -12.923   5.920  1.00  0.00     0.009 A 
HETATM   12  H   UNL     1      38.997 -15.218   3.909  1.00  0.00     0.169 HD
ENDROOT
BRANCH   5  13
HETATM   13  C   UNL     1      42.913 -17.119   3.299  1.00  0.00     0.025 A 
HETATM   14  C   UNL     1      43.055 -17.667   4.633  1.00  0.00     0.003 A 
HETATM   15  C   UNL     1      43.867 -18.798   4.544  1.00  0.00     0.043 A 
HETATM   16  C   UNL     1      42.571 -17.312   5.912  1.00  0.00     0.014 A 
HETATM   17  C   UNL     1      44.212 -19.585   5.650  1.00  0.00     0.030 A 
HETATM   18  N   UNL     1      44.211 -18.946   3.226  1.00  0.00    -0.359 N 
HETATM   19  C   UNL     1      43.714 -19.209   6.897  1.00  0.00     0.002 A 
HETATM   20  C   UNL     1      42.904 -18.088   7.030  1.00  0.00     0.001 A 
HETATM   21  H   UNL     1      44.788 -19.697   2.871  1.00  0.00     0.166 HD
HETATM   22  C   UNL     1      43.659 -17.951   2.463  1.00  0.00     0.016 A 
HETATM   23  C   UNL     1      43.888 -17.911   0.992  1.00  0.00     0.069 C 
ENDBRANCH   5  13
BRANCH   5  24
HETATM   24  O   UNL     1      42.552 -15.320   1.656  1.00  0.00    -0.371 OA
HETATM   25  H   UNL     1      41.810 -15.394   1.034  1.00  0.00     0.212 HD
ENDBRANCH   5  24
TORSDOF 2
ENDMDL
MODEL 6
REMARK VINA RESULT:      -7.5      2.214      3.129
REMARK  2 active torsions:
REMARK  status: ('A' for Active; 'I' for Inactive)
REMARK    1  A    between atoms: C_5  and  C_7 
REMARK    2  A    between atoms: C_5  and  O_6 
ROOT
HETATM    1  C   UNL     1      41.427 -12.702   2.275  1.00  0.00     0.050 C 
HETATM    2  C   UNL     1      41.199 -14.160   2.529  1.00  0.00    -0.035 A 
HETATM    3  C   UNL     1      41.896 -14.898   3.472  1.00  0.00     0.051 A 
HETATM    4  C   UNL     1      41.655 -16.262   3.689  1.00  0.00     0.018 A 
HETATM    5  C   UNL     1      42.527 -16.759   4.824  1.00  0.00     0.199 A 
HETATM    6  C   UNL     1      43.370 -15.479   5.151  1.00  0.00     0.266 A 
HETATM    7  O   UNL     1      44.241 -15.331   5.996  1.00  0.00    -0.269 OA
HETATM    8  N   UNL     1      42.895 -14.455   4.330  1.00  0.00    -0.323 N 
HETATM    9  C   UNL     1      40.686 -16.932   2.958  1.00  0.00     0.013 A 
HETATM   10  C   UNL     1      39.975 -16.217   1.994  1.00  0.00     0.001 A 
HETATM   11  C   UNL     1      40.228 -14.849   1.783  1.00  0.00     0.009 A 
HETATM   12  H   UNL     1      43.273 -13.521   4.374  1.00  0.00     0.169 HD
ENDROOT
BRANCH   5  13
HETATM   13  C   UNL     1      43.351 -17.915   4.304  1.00  0.00     0.025 A 
HETATM   14  C   UNL     1      43.661 -19.156   4.984  1.00  0.00     0.003 A 
HETATM   15  C   UNL     1      44.430 -19.934   4.119  1.00  0.00     0.043 A 
HETATM   16  C   UNL     1      43.361 -19.697   6.255  1.00  0.00     0.014 A 
HETATM   17  C   UNL     1      44.906 -21.210   4.450  1.00  0.00     0.030 A 
HETATM   18  N   UNL     1      44.590 -19.217   2.963  1.00  0.00    -0.359 N 
HETATM   19  C   UNL     1      44.589 -21.716   5.711  1.00  0.00     0.002 A 
HETATM   20  C   UNL     1      43.827 -20.971   6.604  1.00  0.00     0.001 A 
HETATM   21  H   UNL     1      45.099 -19.549   2.155  1.00  0.00     0.166 HD
HETATM   22  C   UNL     1      43.960 -18.003   3.051  1.00  0.00     0.016 A 
HETATM   23  C   UNL     1      43.989 -17.052   1.906  1.00  0.00     0.069 C 
ENDBRANCH   5  13
BRANCH   5  24
HETATM   24  O   UNL     1      41.686 -17.098   5.926  1.00  0.00    -0.371 OA
HETATM   25  H   UNL     1      41.921 -18.004   6.184  1.00  0.00     0.212 HD
ENDBRANCH   5  24
TORSDOF 2
ENDMDL
MODEL 7
REMARK VINA RESULT:      -7.5      1.735      2.157
REMARK  2 active torsions:
REMARK  status: ('A' for Active; 'I' for Inactive)
REMARK    1  A    between atoms: C_5  and  C_7 
REMARK    2  A    between atoms: C_5  and  O_6 
ROOT
HETATM    1  C   UNL     1      39.501 -12.503   4.032  1.00  0.00     0.050 C 
HETATM    2  C   UNL     1      40.807 -13.232   4.067  1.00  0.00    -0.035 A 
HETATM    3  C   UNL     1      40.986 -14.521   3.589  1.00  0.00     0.051 A 
HETATM    4  C   UNL     1      42.225 -15.174   3.631  1.00  0.00     0.018 A 
HETATM    5  C   UNL     1      42.106 -16.536   2.976  1.00  0.00     0.199 A 
HETATM    6  C   UNL     1      40.576 -16.586   2.641  1.00  0.00     0.266 A 
HETATM    7  O   UNL     1      39.939 -17.479   2.103  1.00  0.00    -0.269 OA
HETATM    8  N   UNL     1      40.035 -15.353   3.009  1.00  0.00    -0.323 N 
HETATM    9  C   UNL     1      43.340 -14.539   4.156  1.00  0.00     0.013 A 
HETATM   10  C   UNL     1      43.189 -13.245   4.653  1.00  0.00     0.001 A 
HETATM   11  C   UNL     1      41.939 -12.601   4.608  1.00  0.00     0.009 A 
HETATM   12  H   UNL     1      39.060 -15.138   2.870  1.00  0.00     0.169 HD
ENDROOT
BRANCH   5  13
HETATM   13  C   UNL     1      42.544 -17.575   3.983  1.00  0.00     0.025 A 
HETATM   14  C   UNL     1      43.437 -18.695   3.765  1.00  0.00     0.003 A 
HETATM   15  C   UNL     1      43.570 -19.374   4.976  1.00  0.00     0.043 A 
HETATM   16  C   UNL     1      44.150 -19.200   2.654  1.00  0.00     0.014 A 
HETATM   17  C   UNL     1      44.370 -20.513   5.135  1.00  0.00     0.030 A 
HETATM   18  N   UNL     1      42.801 -18.713   5.898  1.00  0.00    -0.359 N 
HETATM   19  C   UNL     1      45.063 -20.983   4.019  1.00  0.00     0.002 A 
HETATM   20  C   UNL     1      44.955 -20.337   2.793  1.00  0.00     0.001 A 
HETATM   21  H   UNL     1      42.722 -18.983   6.869  1.00  0.00     0.166 HD
HETATM   22  C   UNL     1      42.173 -17.638   5.327  1.00  0.00     0.016 A 
HETATM   23  C   UNL     1      41.288 -16.760   6.141  1.00  0.00     0.069 C 
ENDBRANCH   5  13
BRANCH   5  24
HETATM   24  O   UNL     1      42.879 -16.531   1.777  1.00  0.00    -0.371 OA
HETATM   25  H   UNL     1      42.334 -16.955   1.095  1.00  0.00     0.212 HD
ENDBRANCH   5  24
TORSDOF 2
ENDMDL
MODEL 8
REMARK VINA RESULT:      -7.5      1.808      2.639
REMARK  2 active torsions:
REMARK  status: ('A' for Active; 'I' for Inactive)
REMARK    1  A    between atoms: C_5  and  C_7 
REMARK    2  A    between atoms: C_5  and  O_6 
ROOT
HETATM    1  C   UNL     1      44.073 -14.269   7.628  1.00  0.00     0.050 C 
HETATM    2  C   UNL     1      43.797 -14.493   6.174  1.00  0.00    -0.035 A 
HETATM    3  C   UNL     1      42.909 -15.442   5.694  1.00  0.00     0.051 A 
HETATM    4  C   UNL     1      42.669 -15.622   4.324  1.00  0.00     0.018 A 
HETATM    5  C   UNL     1      41.604 -16.683   4.129  1.00  0.00     0.199 A 
HETATM    6  C   UNL     1      41.349 -17.142   5.606  1.00  0.00     0.266 A 
HETATM    7  O   UNL     1      40.576 -17.992   6.021  1.00  0.00    -0.269 OA
HETATM    8  N   UNL     1      42.133 -16.331   6.428  1.00  0.00    -0.323 N 
HETATM    9  C   UNL     1      43.320 -14.838   3.384  1.00  0.00     0.013 A 
HETATM   10  C   UNL     1      44.226 -13.881   3.838  1.00  0.00     0.001 A 
HETATM   11  C   UNL     1      44.461 -13.711   5.215  1.00  0.00     0.009 A 
HETATM   12  H   UNL     1      42.123 -16.424   7.432  1.00  0.00     0.169 HD
ENDROOT
BRANCH   5  13
HETATM   13  C   UNL     1      42.184 -17.766   3.247  1.00  0.00     0.025 A 
HETATM   14  C   UNL     1      43.130 -18.797   3.620  1.00  0.00     0.003 A 
HETATM   15  C   UNL     1      43.368 -19.584   2.493  1.00  0.00     0.043 A 
HETATM   16  C   UNL     1      43.810 -19.142   4.810  1.00  0.00     0.014 A 
HETATM   17  C   UNL     1      44.234 -20.685   2.492  1.00  0.00     0.030 A 
HETATM   18  N   UNL     1      42.610 -19.069   1.473  1.00  0.00    -0.359 N 
HETATM   19  C   UNL     1      44.886 -21.000   3.684  1.00  0.00     0.002 A 
HETATM   20  C   UNL     1      44.679 -20.240   4.829  1.00  0.00     0.001 A 
HETATM   21  H   UNL     1      42.579 -19.455   0.539  1.00  0.00     0.166 HD
HETATM   22  C   UNL     1      41.899 -17.978   1.897  1.00  0.00     0.016 A 
HETATM   23  C   UNL     1      40.994 -17.256   0.961  1.00  0.00     0.069 C 
ENDBRANCH   5  13
BRANCH   5  24
HETATM   24  O   UNL     1      40.439 -16.061   3.591  1.00  0.00    -0.371 OA
HETATM   25  H   UNL     1      40.514 -15.114   3.792  1.00  0.00     0.212 HD
ENDBRANCH   5  24
TORSDOF 2
ENDMDL
MODEL 9
REMARK VINA RESULT:      -7.4      2.755      4.129
REMARK  2 active torsions:
REMARK  status: ('A' for Active; 'I' for Inactive)
REMARK    1  A    between atoms: C_5  and  C_7 
REMARK    2  A    between atoms: C_5  and  O_6 
ROOT
HETATM    1  C   UNL     1      40.816 -12.722  -0.084  1.00  0.00     0.050 C 
HETATM    2  C   UNL     1      40.602 -13.757   0.975  1.00  0.00    -0.035 A 
HETATM    3  C   UNL     1      41.501 -14.011   2.000  1.00  0.00     0.051 A 
HETATM    4  C   UNL     1      41.268 -14.985   2.981  1.00  0.00     0.018 A 
HETATM    5  C   UNL     1      42.399 -14.972   3.989  1.00  0.00     0.199 A 
HETATM    6  C   UNL     1      43.357 -13.899   3.368  1.00  0.00     0.266 A 
HETATM    7  O   UNL     1      44.435 -13.501   3.784  1.00  0.00    -0.269 OA
HETATM    8  N   UNL     1      42.719 -13.385   2.237  1.00  0.00    -0.323 N 
HETATM    9  C   UNL     1      40.105 -15.739   2.965  1.00  0.00     0.013 A 
HETATM   10  C   UNL     1      39.186 -15.512   1.940  1.00  0.00     0.001 A 
HETATM   11  C   UNL     1      39.432 -14.534   0.959  1.00  0.00     0.009 A 
HETATM   12  H   UNL     1      43.135 -12.658   1.677  1.00  0.00     0.169 HD
ENDROOT
BRANCH   5  13
HETATM   13  C   UNL     1      42.992 -16.362   4.039  1.00  0.00     0.025 A 
HETATM   14  C   UNL     1      43.175 -17.204   5.204  1.00  0.00     0.003 A 
HETATM   15  C   UNL     1      43.739 -18.405   4.776  1.00  0.00     0.043 A 
HETATM   16  C   UNL     1      42.913 -17.063   6.586  1.00  0.00     0.014 A 
HETATM   17  C   UNL     1      44.048 -19.461   5.643  1.00  0.00     0.030 A 
HETATM   18  N   UNL     1      43.900 -18.316   3.418  1.00  0.00    -0.359 N 
HETATM   19  C   UNL     1      43.774 -19.291   7.000  1.00  0.00     0.002 A 
HETATM   20  C   UNL     1      43.214 -18.108   7.468  1.00  0.00     0.001 A 
HETATM   21  H   UNL     1      44.278 -19.056   2.842  1.00  0.00     0.166 HD
HETATM   22  C   UNL     1      43.467 -17.102   2.955  1.00  0.00     0.016 A 
HETATM   23  C   UNL     1      43.534 -16.780   1.503  1.00  0.00     0.069 C 
ENDBRANCH   5  13
BRANCH   5  24
HETATM   24  O   UNL     1      41.885 -14.518   5.240  1.00  0.00    -0.371 OA
HETATM   25  H   UNL     1      42.626 -14.540   5.867  1.00  0.00     0.212 HD
ENDBRANCH   5  24
TORSDOF 2
ENDMDL
MODEL 10
REMARK VINA RESULT:      -7.2      3.654      4.585
REMARK  2 active torsions:
REMARK  status: ('A' for Active; 'I' for Inactive)
REMARK    1  A    between atoms: C_5  and  C_7 
REMARK    2  A    between atoms: C_5  and  O_6 
ROOT
HETATM    1  C   UNL     1      38.586 -10.627   1.542  1.00  0.00     0.050 C 
HETATM    2  C   UNL     1      38.637 -12.121   1.604  1.00  0.00    -0.035 A 
HETATM    3  C   UNL     1      39.635 -12.834   2.250  1.00  0.00     0.051 A 
HETATM    4  C   UNL     1      39.652 -14.235   2.293  1.00  0.00     0.018 A 
HETATM    5  C   UNL     1      40.828 -14.705   3.125  1.00  0.00     0.199 A 
HETATM    6  C   UNL     1      41.530 -13.346   3.466  1.00  0.00     0.266 A 
HETATM    7  O   UNL     1      42.543 -13.150   4.120  1.00  0.00    -0.269 OA
HETATM    8  N   UNL     1      40.733 -12.329   2.937  1.00  0.00    -0.323 N 
HETATM    9  C   UNL     1      38.647 -14.972   1.686  1.00  0.00     0.013 A 
HETATM   10  C   UNL     1      37.634 -14.282   1.020  1.00  0.00     0.001 A 
HETATM   11  C   UNL     1      37.630 -12.876   0.980  1.00  0.00     0.009 A 
HETATM   12  H   UNL     1      40.971 -11.356   3.048  1.00  0.00     0.169 HD
ENDROOT
BRANCH   5  13
HETATM   13  C   UNL     1      41.666 -15.625   2.266  1.00  0.00     0.025 A 
HETATM   14  C   UNL     1      42.265 -16.887   2.647  1.00  0.00     0.003 A 
HETATM   15  C   UNL     1      42.931 -17.396   1.531  1.00  0.00     0.043 A 
HETATM   16  C   UNL     1      42.306 -17.653   3.834  1.00  0.00     0.014 A 
HETATM   17  C   UNL     1      43.622 -18.614   1.538  1.00  0.00     0.030 A 
HETATM   18  N   UNL     1      42.756 -16.498   0.511  1.00  0.00    -0.359 N 
HETATM   19  C   UNL     1      43.640 -19.346   2.725  1.00  0.00     0.002 A 
HETATM   20  C   UNL     1      42.992 -18.874   3.860  1.00  0.00     0.001 A 
HETATM   21  H   UNL     1      43.124 -16.621  -0.422  1.00  0.00     0.166 HD
HETATM   22  C   UNL     1      42.009 -15.427   0.927  1.00  0.00     0.016 A 
HETATM   23  C   UNL     1      41.679 -14.323  -0.016  1.00  0.00     0.069 C 
ENDBRANCH   5  13
BRANCH   5  24
HETATM   24  O   UNL     1      40.328 -15.319   4.311  1.00  0.00    -0.371 OA
HETATM   25  H   UNL     1      40.756 -14.869   5.057  1.00  0.00     0.212 HD
ENDBRANCH   5  24
TORSDOF 2
ENDMDL
