MODEL 1
REMARK VINA RESULT:      -8.8      0.000      0.000
REMARK  5 active torsions:
REMARK  status: ('A' for Active; 'I' for Inactive)
REMARK    1  A    between atoms: C_6  and  S_7 
REMARK    2  A    between atoms: S_7  and  C_8 
REMARK    3  A    between atoms: C_8  and  C_9 
REMARK       I    between atoms: C_9  and  N_10 
REMARK    4  A    between atoms: N_10  and  C_11 
REMARK    5  A    between atoms: C_14  and  C_15 
ROOT
HETATM    1  C   UNL     1      44.589 -13.476   7.420  1.00  0.00     0.233 C 
HETATM    2  N   UNL     1      43.396 -13.942   6.911  1.00  0.00    -0.305 N 
HETATM    3  O   UNL     1      45.702 -13.635   6.923  1.00  0.00    -0.272 OA
HETATM    4  H   UNL     1      42.545 -13.839   7.443  1.00  0.00     0.171 HD
ENDROOT
BRANCH   2   5
HETATM    5  C   UNL     1      43.319 -14.614   5.725  1.00  0.00     0.173 A 
HETATM    6  S   UNL     1      42.923 -13.637   4.385  1.00  0.00    -0.061 SA
HETATM    7  C   UNL     1      43.039 -15.023   3.371  1.00  0.00     0.085 A 
HETATM    8  C   UNL     1      43.378 -16.134   4.123  1.00  0.00     0.076 A 
HETATM    9  N   UNL     1      43.527 -15.878   5.477  1.00  0.00    -0.223 NA
BRANCH   8  10
HETATM   10  C   UNL     1      43.573 -17.487   3.600  1.00  0.00    -0.007 A 
HETATM   11  C   UNL     1      43.340 -17.823   2.258  1.00  0.00     0.015 A 
HETATM   12  C   UNL     1      43.549 -19.130   1.801  1.00  0.00     0.020 A 
HETATM   13  C   UNL     1      43.995 -20.111   2.683  1.00  0.00     0.011 A 
HETATM   14 BR   UNL     1      44.282 -21.873   2.061  1.00  0.00    -0.051 Br
HETATM   15  C   UNL     1      44.235 -19.800   4.017  1.00  0.00     0.020 A 
HETATM   16  C   UNL     1      44.025 -18.494   4.469  1.00  0.00     0.015 A 
ENDBRANCH   8  10
ENDBRANCH   2   5
BRANCH   1  17
HETATM   17  C   UNL     1      44.434 -12.610   8.659  1.00  0.00     0.184 C 
BRANCH  17  18
HETATM   18  S   UNL     1      43.055 -11.435   8.507  1.00  0.00    -0.094 SA
BRANCH  18  19
HETATM   19  C   UNL     1      42.909 -10.932  10.180  1.00  0.00     0.136 A 
HETATM   20  S   UNL     1      44.205 -10.212  11.033  1.00  0.00    -0.061 SA
HETATM   21  C   UNL     1      43.211 -10.094  12.435  1.00  0.00     0.036 A 
HETATM   22  C   UNL     1      41.950 -10.620  12.141  1.00  0.00     0.075 A 
HETATM   23  C   UNL     1      43.519  -9.575  13.705  1.00  0.00     0.021 A 
HETATM   24  C   UNL     1      40.963 -10.622  13.147  1.00  0.00     0.033 A 
HETATM   25  N   UNL     1      41.796 -11.102  10.852  1.00  0.00    -0.233 NA
HETATM   26  C   UNL     1      41.261 -10.108  14.413  1.00  0.00     0.002 A 
HETATM   27  C   UNL     1      42.524  -9.592  14.686  1.00  0.00     0.002 A 
ENDBRANCH  18  19
ENDBRANCH  17  18
ENDBRANCH   1  17
TORSDOF 5
ENDMDL
MODEL 2
REMARK VINA RESULT:      -8.8      4.784      7.593
REMARK  5 active torsions:
REMARK  status: ('A' for Active; 'I' for Inactive)
REMARK    1  A    between atoms: C_6  and  S_7 
REMARK    2  A    between atoms: S_7  and  C_8 
REMARK    3  A    between atoms: C_8  and  C_9 
REMARK       I    between atoms: C_9  and  N_10 
REMARK    4  A    between atoms: N_10  and  C_11 
REMARK    5  A    between atoms: C_14  and  C_15 
ROOT
HETATM    1  C   UNL     1      42.284 -13.124   5.445  1.00  0.00     0.233 C 
HETATM    2  N   UNL     1      42.046 -14.274   6.166  1.00  0.00    -0.305 N 
HETATM    3  O   UNL     1      43.226 -12.930   4.679  1.00  0.00    -0.272 OA
HETATM    4  H   UNL     1      41.296 -14.302   6.840  1.00  0.00     0.171 HD
ENDROOT
BRANCH   2   5
HETATM    5  C   UNL     1      42.837 -15.382   6.059  1.00  0.00     0.173 A 
HETATM    6  S   UNL     1      43.960 -15.572   7.328  1.00  0.00    -0.061 SA
HETATM    7  C   UNL     1      44.501 -17.034   6.600  1.00  0.00     0.085 A 
HETATM    8  C   UNL     1      43.784 -17.280   5.443  1.00  0.00     0.076 A 
HETATM    9  N   UNL     1      42.836 -16.313   5.146  1.00  0.00    -0.223 NA
BRANCH   8  10
HETATM   10  C   UNL     1      43.962 -18.436   4.562  1.00  0.00    -0.007 A 
HETATM   11  C   UNL     1      44.564 -19.629   4.989  1.00  0.00     0.015 A 
HETATM   12  C   UNL     1      44.704 -20.712   4.112  1.00  0.00     0.020 A 
HETATM   13  C   UNL     1      44.241 -20.612   2.803  1.00  0.00     0.011 A 
HETATM   14 BR   UNL     1      44.427 -22.078   1.625  1.00  0.00    -0.051 Br
HETATM   15  C   UNL     1      43.638 -19.440   2.359  1.00  0.00     0.020 A 
HETATM   16  C   UNL     1      43.500 -18.360   3.237  1.00  0.00     0.015 A 
ENDBRANCH   8  10
ENDBRANCH   2   5
BRANCH   1  17
HETATM   17  C   UNL     1      41.193 -12.075   5.580  1.00  0.00     0.184 C 
BRANCH  17  18
HETATM   18  S   UNL     1      39.575 -12.693   5.027  1.00  0.00    -0.094 SA
BRANCH  18  19
HETATM   19  C   UNL     1      40.076 -13.622   3.627  1.00  0.00     0.136 A 
HETATM   20  S   UNL     1      40.610 -12.880   2.182  1.00  0.00    -0.061 SA
HETATM   21  C   UNL     1      40.844 -14.433   1.475  1.00  0.00     0.036 A 
HETATM   22  C   UNL     1      40.491 -15.412   2.409  1.00  0.00     0.075 A 
HETATM   23  C   UNL     1      41.305 -14.767   0.190  1.00  0.00     0.021 A 
HETATM   24  C   UNL     1      40.609 -16.769   2.047  1.00  0.00     0.033 A 
HETATM   25  N   UNL     1      40.047 -14.933   3.630  1.00  0.00    -0.233 NA
HETATM   26  C   UNL     1      41.066 -17.111   0.770  1.00  0.00     0.002 A 
HETATM   27  C   UNL     1      41.409 -16.120  -0.145  1.00  0.00     0.002 A 
ENDBRANCH  18  19
ENDBRANCH  17  18
ENDBRANCH   1  17
TORSDOF 5
ENDMDL
MODEL 3
REMARK VINA RESULT:      -8.7      4.125     11.093
REMARK  5 active torsions:
REMARK  status: ('A' for Active; 'I' for Inactive)
REMARK    1  A    between atoms: C_6  and  S_7 
REMARK    2  A    between atoms: S_7  and  C_8 
REMARK    3  A    between atoms: C_8  and  C_9 
REMARK       I    between atoms: C_9  and  N_10 
REMARK    4  A    between atoms: N_10  and  C_11 
REMARK    5  A    between atoms: C_14  and  C_15 
ROOT
HETATM    1  C   UNL     1      43.725 -14.271   6.505  1.00  0.00     0.233 C 
HETATM    2  N   UNL     1      44.565 -14.337   7.595  1.00  0.00    -0.305 N 
HETATM    3  O   UNL     1      43.037 -13.307   6.177  1.00  0.00    -0.272 OA
HETATM    4  H   UNL     1      45.018 -15.207   7.834  1.00  0.00     0.171 HD
ENDROOT
BRANCH   2   5
HETATM    5  C   UNL     1      44.767 -13.275   8.429  1.00  0.00     0.173 A 
HETATM    6  S   UNL     1      46.135 -12.330   8.051  1.00  0.00    -0.061 SA
HETATM    7  C   UNL     1      45.747 -11.286   9.362  1.00  0.00     0.085 A 
HETATM    8  C   UNL     1      44.598 -11.725   9.994  1.00  0.00     0.076 A 
HETATM    9  N   UNL     1      44.053 -12.876   9.446  1.00  0.00    -0.223 NA
BRANCH   8  10
HETATM   10  C   UNL     1      43.962 -11.083  11.146  1.00  0.00    -0.007 A 
HETATM   11  C   UNL     1      43.861  -9.689  11.278  1.00  0.00     0.015 A 
HETATM   12  C   UNL     1      43.235  -9.120  12.394  1.00  0.00     0.020 A 
HETATM   13  C   UNL     1      42.704  -9.940  13.386  1.00  0.00     0.011 A 
HETATM   14 BR   UNL     1      41.856  -9.168  14.888  1.00  0.00    -0.051 Br
HETATM   15  C   UNL     1      42.791 -11.323  13.275  1.00  0.00     0.020 A 
HETATM   16  C   UNL     1      43.416 -11.888  12.160  1.00  0.00     0.015 A 
ENDBRANCH   8  10
ENDBRANCH   2   5
BRANCH   1  17
HETATM   17  C   UNL     1      43.774 -15.501   5.614  1.00  0.00     0.184 C 
BRANCH  17  18
HETATM   18  S   UNL     1      44.432 -16.954   6.486  1.00  0.00    -0.094 SA
BRANCH  18  19
HETATM   19  C   UNL     1      44.278 -18.155   5.218  1.00  0.00     0.136 A 
HETATM   20  S   UNL     1      43.590 -17.791   3.695  1.00  0.00    -0.061 SA
HETATM   21  C   UNL     1      43.842 -19.421   3.196  1.00  0.00     0.036 A 
HETATM   22  C   UNL     1      44.439 -20.127   4.245  1.00  0.00     0.075 A 
HETATM   23  C   UNL     1      43.535 -20.035   1.970  1.00  0.00     0.021 A 
HETATM   24  C   UNL     1      44.745 -21.490   4.057  1.00  0.00     0.033 A 
HETATM   25  N   UNL     1      44.674 -19.392   5.395  1.00  0.00    -0.233 NA
HETATM   26  C   UNL     1      44.444 -22.109   2.840  1.00  0.00     0.002 A 
HETATM   27  C   UNL     1      43.846 -21.388   1.811  1.00  0.00     0.002 A 
ENDBRANCH  18  19
ENDBRANCH  17  18
ENDBRANCH   1  17
TORSDOF 5
ENDMDL
MODEL 4
REMARK VINA RESULT:      -8.6      2.123      2.703
REMARK  5 active torsions:
REMARK  status: ('A' for Active; 'I' for Inactive)
REMARK    1  A    between atoms: C_6  and  S_7 
REMARK    2  A    between atoms: S_7  and  C_8 
REMARK    3  A    between atoms: C_8  and  C_9 
REMARK       I    between atoms: C_9  and  N_10 
REMARK    4  A    between atoms: N_10  and  C_11 
REMARK    5  A    between atoms: C_14  and  C_15 
ROOT
HETATM    1  C   UNL     1      41.794 -12.987   5.534  1.00  0.00     0.233 C 
HETATM    2  N   UNL     1      41.793 -14.123   6.316  1.00  0.00    -0.305 N 
HETATM    3  O   UNL     1      42.557 -12.751   4.600  1.00  0.00    -0.272 OA
HETATM    4  H   UNL     1      41.186 -14.183   7.120  1.00  0.00     0.171 HD
ENDROOT
BRANCH   2   5
HETATM    5  C   UNL     1      42.643 -15.167   6.091  1.00  0.00     0.173 A 
HETATM    6  S   UNL     1      43.968 -15.241   7.160  1.00  0.00    -0.061 SA
HETATM    7  C   UNL     1      44.500 -16.672   6.366  1.00  0.00     0.085 A 
HETATM    8  C   UNL     1      43.626 -16.999   5.344  1.00  0.00     0.076 A 
HETATM    9  N   UNL     1      42.568 -16.115   5.197  1.00  0.00    -0.223 NA
BRANCH   8  10
HETATM   10  C   UNL     1      43.751 -18.156   4.455  1.00  0.00    -0.007 A 
HETATM   11  C   UNL     1      43.103 -18.232   3.213  1.00  0.00     0.015 A 
HETATM   12  C   UNL     1      43.260 -19.357   2.393  1.00  0.00     0.020 A 
HETATM   13  C   UNL     1      44.068 -20.412   2.808  1.00  0.00     0.011 A 
HETATM   14 BR   UNL     1      44.281 -21.925   1.695  1.00  0.00    -0.051 Br
HETATM   15  C   UNL     1      44.721 -20.356   4.034  1.00  0.00     0.020 A 
HETATM   16  C   UNL     1      44.563 -19.233   4.850  1.00  0.00     0.015 A 
ENDBRANCH   8  10
ENDBRANCH   2   5
BRANCH   1  17
HETATM   17  C   UNL     1      40.661 -12.024   5.845  1.00  0.00     0.184 C 
BRANCH  17  18
HETATM   18  S   UNL     1      41.262 -10.341   6.178  1.00  0.00    -0.094 SA
BRANCH  18  19
HETATM   19  C   UNL     1      41.605 -10.482   7.891  1.00  0.00     0.136 A 
HETATM   20  S   UNL     1      40.373 -10.730   9.052  1.00  0.00    -0.061 SA
HETATM   21  C   UNL     1      41.557 -10.729  10.303  1.00  0.00     0.036 A 
HETATM   22  C   UNL     1      42.818 -10.537   9.732  1.00  0.00     0.075 A 
HETATM   23  C   UNL     1      41.388 -10.885  11.689  1.00  0.00     0.021 A 
HETATM   24  C   UNL     1      43.947 -10.506  10.575  1.00  0.00     0.033 A 
HETATM   25  N   UNL     1      42.828 -10.390   8.355  1.00  0.00    -0.233 NA
HETATM   26  C   UNL     1      43.789 -10.661  11.955  1.00  0.00     0.002 A 
HETATM   27  C   UNL     1      42.523 -10.847  12.503  1.00  0.00     0.002 A 
ENDBRANCH  18  19
ENDBRANCH  17  18
ENDBRANCH   1  17
TORSDOF 5
ENDMDL
MODEL 5
REMARK VINA RESULT:      -8.4      2.314      3.121
REMARK  5 active torsions:
REMARK  status: ('A' for Active; 'I' for Inactive)
REMARK    1  A    between atoms: C_6  and  S_7 
REMARK    2  A    between atoms: S_7  and  C_8 
REMARK    3  A    between atoms: C_8  and  C_9 
REMARK       I    between atoms: C_9  and  N_10 
REMARK    4  A    between atoms: N_10  and  C_11 
REMARK    5  A    between atoms: C_14  and  C_15 
ROOT
HETATM    1  C   UNL     1      40.156 -12.947   5.752  1.00  0.00     0.233 C 
HETATM    2  N   UNL     1      41.363 -13.564   6.005  1.00  0.00    -0.305 N 
HETATM    3  O   UNL     1      39.585 -12.889   4.666  1.00  0.00    -0.272 OA
HETATM    4  H   UNL     1      41.795 -13.476   6.913  1.00  0.00     0.171 HD
ENDROOT
BRANCH   2   5
HETATM    5  C   UNL     1      42.051 -14.246   5.044  1.00  0.00     0.173 A 
HETATM    6  S   UNL     1      42.870 -13.254   3.924  1.00  0.00    -0.061 SA
HETATM    7  C   UNL     1      43.465 -14.667   3.143  1.00  0.00     0.085 A 
HETATM    8  C   UNL     1      43.005 -15.798   3.794  1.00  0.00     0.076 A 
HETATM    9  N   UNL     1      42.186 -15.533   4.881  1.00  0.00    -0.223 NA
BRANCH   8  10
HETATM   10  C   UNL     1      43.311 -17.180   3.418  1.00  0.00    -0.007 A 
HETATM   11  C   UNL     1      43.322 -17.619   2.085  1.00  0.00     0.015 A 
HETATM   12  C   UNL     1      43.631 -18.949   1.774  1.00  0.00     0.020 A 
HETATM   13  C   UNL     1      43.933 -19.849   2.792  1.00  0.00     0.011 A 
HETATM   14 BR   UNL     1      44.354 -21.642   2.366  1.00  0.00    -0.051 Br
HETATM   15  C   UNL     1      43.930 -19.435   4.119  1.00  0.00     0.020 A 
HETATM   16  C   UNL     1      43.622 -18.107   4.427  1.00  0.00     0.015 A 
ENDBRANCH   8  10
ENDBRANCH   2   5
BRANCH   1  17
HETATM   17  C   UNL     1      39.476 -12.392   6.993  1.00  0.00     0.184 C 
BRANCH  17  18
HETATM   18  S   UNL     1      39.756 -10.606   7.188  1.00  0.00    -0.094 SA
BRANCH  18  19
HETATM   19  C   UNL     1      41.118 -10.640   8.293  1.00  0.00     0.136 A 
HETATM   20  S   UNL     1      41.038  -9.960   9.860  1.00  0.00    -0.061 SA
HETATM   21  C   UNL     1      42.673 -10.426  10.141  1.00  0.00     0.036 A 
HETATM   22  C   UNL     1      43.160 -11.072   9.002  1.00  0.00     0.075 A 
HETATM   23  C   UNL     1      43.470 -10.235  11.282  1.00  0.00     0.021 A 
HETATM   24  C   UNL     1      44.486 -11.549   9.007  1.00  0.00     0.033 A 
HETATM   25  N   UNL     1      42.263 -11.180   7.953  1.00  0.00    -0.233 NA
HETATM   26  C   UNL     1      45.287 -11.364  10.138  1.00  0.00     0.002 A 
HETATM   27  C   UNL     1      44.783 -10.714  11.261  1.00  0.00     0.002 A 
ENDBRANCH  18  19
ENDBRANCH  17  18
ENDBRANCH   1  17
TORSDOF 5
ENDMDL
MODEL 6
REMARK VINA RESULT:      -8.4      2.139      2.627
REMARK  5 active torsions:
REMARK  status: ('A' for Active; 'I' for Inactive)
REMARK    1  A    between atoms: C_6  and  S_7 
REMARK    2  A    between atoms: S_7  and  C_8 
REMARK    3  A    between atoms: C_8  and  C_9 
REMARK       I    between atoms: C_9  and  N_10 
REMARK    4  A    between atoms: N_10  and  C_11 
REMARK    5  A    between atoms: C_14  and  C_15 
ROOT
HETATM    1  C   UNL     1      40.120 -13.125   5.848  1.00  0.00     0.233 C 
HETATM    2  N   UNL     1      41.396 -13.605   6.056  1.00  0.00    -0.305 N 
HETATM    3  O   UNL     1      39.475 -13.208   4.806  1.00  0.00    -0.272 OA
HETATM    4  H   UNL     1      41.878 -13.405   6.920  1.00  0.00     0.171 HD
ENDROOT
BRANCH   2   5
HETATM    5  C   UNL     1      42.083 -14.295   5.098  1.00  0.00     0.173 A 
HETATM    6  S   UNL     1      42.870 -13.312   3.949  1.00  0.00    -0.061 SA
HETATM    7  C   UNL     1      43.478 -14.730   3.187  1.00  0.00     0.085 A 
HETATM    8  C   UNL     1      43.045 -15.855   3.866  1.00  0.00     0.076 A 
HETATM    9  N   UNL     1      42.237 -15.582   4.958  1.00  0.00    -0.223 NA
BRANCH   8  10
HETATM   10  C   UNL     1      43.369 -17.239   3.513  1.00  0.00    -0.007 A 
HETATM   11  C   UNL     1      43.761 -18.192   4.465  1.00  0.00     0.015 A 
HETATM   12  C   UNL     1      44.052 -19.507   4.080  1.00  0.00     0.020 A 
HETATM   13  C   UNL     1      43.952 -19.879   2.742  1.00  0.00     0.011 A 
HETATM   14 BR   UNL     1      44.342 -21.656   2.229  1.00  0.00    -0.051 Br
HETATM   15  C   UNL     1      43.564 -18.951   1.783  1.00  0.00     0.020 A 
HETATM   16  C   UNL     1      43.274 -17.639   2.169  1.00  0.00     0.015 A 
ENDBRANCH   8  10
ENDBRANCH   2   5
BRANCH   1  17
HETATM   17  C   UNL     1      39.473 -12.539   7.092  1.00  0.00     0.184 C 
BRANCH  17  18
HETATM   18  S   UNL     1      39.792 -10.757   7.256  1.00  0.00    -0.094 SA
BRANCH  18  19
HETATM   19  C   UNL     1      40.657 -10.750   8.781  1.00  0.00     0.136 A 
HETATM   20  S   UNL     1      42.343 -10.480   8.872  1.00  0.00    -0.061 SA
HETATM   21  C   UNL     1      42.273 -10.651  10.585  1.00  0.00     0.036 A 
HETATM   22  C   UNL     1      40.951 -10.905  10.960  1.00  0.00     0.075 A 
HETATM   23  C   UNL     1      43.309 -10.569  11.531  1.00  0.00     0.021 A 
HETATM   24  C   UNL     1      40.654 -11.076  12.328  1.00  0.00     0.033 A 
HETATM   25  N   UNL     1      40.041 -10.966   9.918  1.00  0.00    -0.233 NA
HETATM   26  C   UNL     1      41.678 -10.995  13.277  1.00  0.00     0.002 A 
HETATM   27  C   UNL     1      42.989 -10.746  12.880  1.00  0.00     0.002 A 
ENDBRANCH  18  19
ENDBRANCH  17  18
ENDBRANCH   1  17
TORSDOF 5
ENDMDL
MODEL 7
REMARK VINA RESULT:      -8.4      6.072      9.487
REMARK  5 active torsions:
REMARK  status: ('A' for Active; 'I' for Inactive)
REMARK    1  A    between atoms: C_6  and  S_7 
REMARK    2  A    between atoms: S_7  and  C_8 
REMARK    3  A    between atoms: C_8  and  C_9 
REMARK       I    between atoms: C_9  and  N_10 
REMARK    4  A    between atoms: N_10  and  C_11 
REMARK    5  A    between atoms: C_14  and  C_15 
ROOT
HETATM    1  C   UNL     1      41.560 -16.561   6.495  1.00  0.00     0.233 C 
HETATM    2  N   UNL     1      41.973 -15.449   5.791  1.00  0.00    -0.305 N 
HETATM    3  O   UNL     1      40.425 -17.032   6.505  1.00  0.00    -0.272 OA
HETATM    4  H   UNL     1      42.905 -15.086   5.921  1.00  0.00     0.171 HD
ENDROOT
BRANCH   2   5
HETATM    5  C   UNL     1      41.139 -14.759   4.959  1.00  0.00     0.173 A 
HETATM    6  S   UNL     1      40.359 -13.429   5.687  1.00  0.00    -0.061 SA
HETATM    7  C   UNL     1      39.601 -13.080   4.182  1.00  0.00     0.085 A 
HETATM    8  C   UNL     1      40.001 -13.997   3.226  1.00  0.00     0.076 A 
HETATM    9  N   UNL     1      40.881 -14.960   3.696  1.00  0.00    -0.223 NA
BRANCH   8  10
HETATM   10  C   UNL     1      39.568 -14.011   1.827  1.00  0.00    -0.007 A 
HETATM   11  C   UNL     1      38.243 -13.761   1.441  1.00  0.00     0.015 A 
HETATM   12  C   UNL     1      37.878 -13.775   0.088  1.00  0.00     0.020 A 
HETATM   13  C   UNL     1      38.836 -14.038  -0.887  1.00  0.00     0.011 A 
HETATM   14 BR   UNL     1      38.341 -14.051  -2.711  1.00  0.00    -0.051 Br
HETATM   15  C   UNL     1      40.156 -14.286  -0.527  1.00  0.00     0.020 A 
HETATM   16  C   UNL     1      40.517 -14.270   0.824  1.00  0.00     0.015 A 
ENDBRANCH   8  10
ENDBRANCH   2   5
BRANCH   1  17
HETATM   17  C   UNL     1      42.682 -17.279   7.226  1.00  0.00     0.184 C 
BRANCH  17  18
HETATM   18  S   UNL     1      44.295 -17.022   6.428  1.00  0.00    -0.094 SA
BRANCH  18  19
HETATM   19  C   UNL     1      44.210 -18.255   5.184  1.00  0.00     0.136 A 
HETATM   20  S   UNL     1      43.589 -17.934   3.623  1.00  0.00    -0.061 SA
HETATM   21  C   UNL     1      43.879 -19.572   3.176  1.00  0.00     0.036 A 
HETATM   22  C   UNL     1      44.433 -20.247   4.267  1.00  0.00     0.075 A 
HETATM   23  C   UNL     1      43.634 -20.218   1.952  1.00  0.00     0.021 A 
HETATM   24  C   UNL     1      44.759 -21.611   4.127  1.00  0.00     0.033 A 
HETATM   25  N   UNL     1      44.609 -19.483   5.409  1.00  0.00    -0.233 NA
HETATM   26  C   UNL     1      44.520 -22.262   2.913  1.00  0.00     0.002 A 
HETATM   27  C   UNL     1      43.964 -21.572   1.841  1.00  0.00     0.002 A 
ENDBRANCH  18  19
ENDBRANCH  17  18
ENDBRANCH   1  17
TORSDOF 5
ENDMDL
MODEL 8
REMARK VINA RESULT:      -8.2      5.181      5.980
REMARK  5 active torsions:
REMARK  status: ('A' for Active; 'I' for Inactive)
REMARK    1  A    between atoms: C_6  and  S_7 
REMARK    2  A    between atoms: S_7  and  C_8 
REMARK    3  A    between atoms: C_8  and  C_9 
REMARK       I    between atoms: C_9  and  N_10 
REMARK    4  A    between atoms: N_10  and  C_11 
REMARK    5  A    between atoms: C_14  and  C_15 
ROOT
HETATM    1  C   UNL     1      40.172 -13.580   2.364  1.00  0.00     0.233 C 
HETATM    2  N   UNL     1      41.505 -13.899   2.217  1.00  0.00    -0.305 N 
HETATM    3  O   UNL     1      39.223 -14.348   2.221  1.00  0.00    -0.272 OA
HETATM    4  H   UNL     1      42.206 -13.174   2.265  1.00  0.00     0.171 HD
ENDROOT
BRANCH   2   5
HETATM    5  C   UNL     1      41.928 -15.166   1.935  1.00  0.00     0.173 A 
HETATM    6  S   UNL     1      41.813 -15.598   0.290  1.00  0.00    -0.061 SA
HETATM    7  C   UNL     1      42.486 -17.136   0.671  1.00  0.00     0.085 A 
HETATM    8  C   UNL     1      42.757 -17.211   2.026  1.00  0.00     0.076 A 
HETATM    9  N   UNL     1      42.422 -16.069   2.737  1.00  0.00    -0.223 NA
BRANCH   8  10
HETATM   10  C   UNL     1      43.342 -18.364   2.713  1.00  0.00    -0.007 A 
HETATM   11  C   UNL     1      43.704 -18.336   4.068  1.00  0.00     0.015 A 
HETATM   12  C   UNL     1      44.252 -19.468   4.685  1.00  0.00     0.020 A 
HETATM   13  C   UNL     1      44.438 -20.638   3.952  1.00  0.00     0.011 A 
HETATM   14 BR   UNL     1      45.172 -22.165   4.791  1.00  0.00    -0.051 Br
HETATM   15  C   UNL     1      44.084 -20.688   2.609  1.00  0.00     0.020 A 
HETATM   16  C   UNL     1      43.538 -19.557   1.996  1.00  0.00     0.015 A 
ENDBRANCH   8  10
ENDBRANCH   2   5
BRANCH   1  17
HETATM   17  C   UNL     1      39.927 -12.159   2.843  1.00  0.00     0.184 C 
BRANCH  17  18
HETATM   18  S   UNL     1      39.491 -12.094   4.606  1.00  0.00    -0.094 SA
BRANCH  18  19
HETATM   19  C   UNL     1      40.678 -13.215   5.246  1.00  0.00     0.136 A 
HETATM   20  S   UNL     1      40.269 -14.807   5.718  1.00  0.00    -0.061 SA
HETATM   21  C   UNL     1      41.908 -15.091   6.167  1.00  0.00     0.036 A 
HETATM   22  C   UNL     1      42.651 -13.933   5.919  1.00  0.00     0.075 A 
HETATM   23  C   UNL     1      42.497 -16.249   6.700  1.00  0.00     0.021 A 
HETATM   24  C   UNL     1      44.030 -13.937   6.208  1.00  0.00     0.033 A 
HETATM   25  N   UNL     1      41.933 -12.868   5.401  1.00  0.00    -0.233 NA
HETATM   26  C   UNL     1      44.626 -15.086   6.739  1.00  0.00     0.002 A 
HETATM   27  C   UNL     1      43.866 -16.226   6.981  1.00  0.00     0.002 A 
ENDBRANCH  18  19
ENDBRANCH  17  18
ENDBRANCH   1  17
TORSDOF 5
ENDMDL
MODEL 9
REMARK VINA RESULT:      -7.9      6.259      9.605
REMARK  5 active torsions:
REMARK  status: ('A' for Active; 'I' for Inactive)
REMARK    1  A    between atoms: C_6  and  S_7 
REMARK    2  A    between atoms: S_7  and  C_8 
REMARK    3  A    between atoms: C_8  and  C_9 
REMARK       I    between atoms: C_9  and  N_10 
REMARK    4  A    between atoms: N_10  and  C_11 
REMARK    5  A    between atoms: C_14  and  C_15 
ROOT
HETATM    1  C   UNL     1      42.865 -14.298   3.658  1.00  0.00     0.233 C 
HETATM    2  N   UNL     1      41.693 -14.443   2.947  1.00  0.00    -0.305 N 
HETATM    3  O   UNL     1      43.985 -14.123   3.183  1.00  0.00    -0.272 OA
HETATM    4  H   UNL     1      40.836 -14.676   3.427  1.00  0.00     0.171 HD
ENDROOT
BRANCH   2   5
HETATM    5  C   UNL     1      41.647 -14.353   1.585  1.00  0.00     0.173 A 
HETATM    6  S   UNL     1      41.149 -15.782   0.800  1.00  0.00    -0.061 SA
HETATM    7  C   UNL     1      41.287 -14.971  -0.712  1.00  0.00     0.085 A 
HETATM    8  C   UNL     1      41.697 -13.665  -0.513  1.00  0.00     0.076 A 
HETATM    9  N   UNL     1      41.906 -13.331   0.816  1.00  0.00    -0.223 NA
BRANCH   8  10
HETATM   10  C   UNL     1      41.914 -12.672  -1.567  1.00  0.00    -0.007 A 
HETATM   11  C   UNL     1      42.647 -11.494  -1.360  1.00  0.00     0.015 A 
HETATM   12  C   UNL     1      42.836 -10.578  -2.402  1.00  0.00     0.020 A 
HETATM   13  C   UNL     1      42.297 -10.834  -3.660  1.00  0.00     0.011 A 
HETATM   14 BR   UNL     1      42.560  -9.597  -5.065  1.00  0.00    -0.051 Br
HETATM   15  C   UNL     1      41.570 -11.997  -3.888  1.00  0.00     0.020 A 
HETATM   16  C   UNL     1      41.382 -12.909  -2.846  1.00  0.00     0.015 A 
ENDBRANCH   8  10
ENDBRANCH   2   5
BRANCH   1  17
HETATM   17  C   UNL     1      42.671 -14.263   5.165  1.00  0.00     0.184 C 
BRANCH  17  18
HETATM   18  S   UNL     1      41.612 -15.619   5.752  1.00  0.00    -0.094 SA
BRANCH  18  19
HETATM   19  C   UNL     1      42.463 -16.983   5.053  1.00  0.00     0.136 A 
HETATM   20  S   UNL     1      43.748 -17.770   5.862  1.00  0.00    -0.061 SA
HETATM   21  C   UNL     1      43.921 -18.848   4.530  1.00  0.00     0.036 A 
HETATM   22  C   UNL     1      42.974 -18.520   3.557  1.00  0.00     0.075 A 
HETATM   23  C   UNL     1      44.828 -19.907   4.353  1.00  0.00     0.021 A 
HETATM   24  C   UNL     1      42.927 -19.280   2.371  1.00  0.00     0.033 A 
HETATM   25  N   UNL     1      42.154 -17.448   3.867  1.00  0.00    -0.233 NA
HETATM   26  C   UNL     1      43.826 -20.336   2.186  1.00  0.00     0.002 A 
HETATM   27  C   UNL     1      44.764 -20.643   3.167  1.00  0.00     0.002 A 
ENDBRANCH  18  19
ENDBRANCH  17  18
ENDBRANCH   1  17
TORSDOF 5
ENDMDL
MODEL 10
REMARK VINA RESULT:      -7.7      6.510      9.940
REMARK  5 active torsions:
REMARK  status: ('A' for Active; 'I' for Inactive)
REMARK    1  A    between atoms: C_6  and  S_7 
REMARK    2  A    between atoms: S_7  and  C_8 
REMARK    3  A    between atoms: C_8  and  C_9 
REMARK       I    between atoms: C_9  and  N_10 
REMARK    4  A    between atoms: N_10  and  C_11 
REMARK    5  A    between atoms: C_14  and  C_15 
ROOT
HETATM    1  C   UNL     1      41.424 -16.713   5.984  1.00  0.00     0.233 C 
HETATM    2  N   UNL     1      41.785 -15.697   5.125  1.00  0.00    -0.305 N 
HETATM    3  O   UNL     1      40.421 -17.418   5.893  1.00  0.00    -0.272 OA
HETATM    4  H   UNL     1      42.580 -15.113   5.338  1.00  0.00     0.171 HD
ENDROOT
BRANCH   2   5
HETATM    5  C   UNL     1      41.061 -15.391   4.008  1.00  0.00     0.173 A 
HETATM    6  S   UNL     1      41.183 -16.538   2.752  1.00  0.00    -0.061 SA
HETATM    7  C   UNL     1      40.095 -15.591   1.814  1.00  0.00     0.085 A 
HETATM    8  C   UNL     1      39.708 -14.469   2.525  1.00  0.00     0.076 A 
HETATM    9  N   UNL     1      40.281 -14.370   3.784  1.00  0.00    -0.223 NA
BRANCH   8  10
HETATM   10  C   UNL     1      38.784 -13.438   2.050  1.00  0.00    -0.007 A 
HETATM   11  C   UNL     1      38.763 -12.137   2.576  1.00  0.00     0.015 A 
HETATM   12  C   UNL     1      37.866 -11.181   2.083  1.00  0.00     0.020 A 
HETATM   13  C   UNL     1      36.985 -11.518   1.058  1.00  0.00     0.011 A 
HETATM   14 BR   UNL     1      35.781 -10.223   0.392  1.00  0.00    -0.051 Br
HETATM   15  C   UNL     1      36.990 -12.800   0.521  1.00  0.00     0.020 A 
HETATM   16  C   UNL     1      37.886 -13.752   1.015  1.00  0.00     0.015 A 
ENDBRANCH   8  10
ENDBRANCH   2   5
BRANCH   1  17
HETATM   17  C   UNL     1      42.452 -16.999   7.066  1.00  0.00     0.184 C 
BRANCH  17  18
HETATM   18  S   UNL     1      44.156 -16.848   6.450  1.00  0.00    -0.094 SA
BRANCH  18  19
HETATM   19  C   UNL     1      44.265 -18.327   5.515  1.00  0.00     0.136 A 
HETATM   20  S   UNL     1      44.103 -18.344   3.812  1.00  0.00    -0.061 SA
HETATM   21  C   UNL     1      44.326 -20.052   3.813  1.00  0.00     0.036 A 
HETATM   22  C   UNL     1      44.508 -20.484   5.130  1.00  0.00     0.075 A 
HETATM   23  C   UNL     1      44.338 -20.950   2.732  1.00  0.00     0.021 A 
HETATM   24  C   UNL     1      44.716 -21.857   5.372  1.00  0.00     0.033 A 
HETATM   25  N   UNL     1      44.463 -19.488   6.091  1.00  0.00    -0.233 NA
HETATM   26  C   UNL     1      44.730 -22.757   4.302  1.00  0.00     0.002 A 
HETATM   27  C   UNL     1      44.543 -22.306   2.999  1.00  0.00     0.002 A 
ENDBRANCH  18  19
ENDBRANCH  17  18
ENDBRANCH   1  17
TORSDOF 5
ENDMDL
