MODEL 1
REMARK VINA RESULT:      -8.8      0.000      0.000
REMARK  3 active torsions:
REMARK  status: ('A' for Active; 'I' for Inactive)
REMARK    1  A    between atoms: C_11  and  N_12 
REMARK       I    between atoms: N_12  and  C_13 
REMARK    2  A    between atoms: C_13  and  C_14 
REMARK    3  A    between atoms: C_15  and  C_16 
ROOT
HETATM    1  N   UNL     1      42.024 -16.575   3.998  1.00  0.00    -0.352 N 
HETATM    2  C   UNL     1      41.914 -17.526   5.005  1.00  0.00     0.255 C 
HETATM    3  O   UNL     1      40.839 -18.020   5.321  1.00  0.00    -0.268 OA
HETATM    4  H   UNL     1      42.845 -15.989   4.108  1.00  0.00     0.163 HD
ENDROOT
BRANCH   2   5
HETATM    5  C   UNL     1      43.174 -17.880   5.637  1.00  0.00     0.080 A 
HETATM    6  C   UNL     1      44.168 -18.822   5.212  1.00  0.00     0.104 A 
HETATM    7  N   UNL     1      45.226 -18.798   6.040  1.00  0.00    -0.174 NA
HETATM    8  N   UNL     1      44.926 -17.888   6.967  1.00  0.00    -0.288 N 
HETATM    9  H   UNL     1      45.613 -17.703   7.692  1.00  0.00     0.188 HD
HETATM   10  C   UNL     1      43.704 -17.315   6.785  1.00  0.00     0.128 A 
BRANCH   6  11
HETATM   11  C   UNL     1      44.157 -19.754   4.080  1.00  0.00    -0.004 A 
HETATM   12  C   UNL     1      44.620 -21.070   4.255  1.00  0.00     0.017 A 
HETATM   13  C   UNL     1      44.591 -21.981   3.196  1.00  0.00     0.043 A 
HETATM   14  C   UNL     1      44.093 -21.581   1.963  1.00  0.00     0.116 A 
HETATM   15  F   UNL     1      44.060 -22.454   0.948  1.00  0.00    -0.206 F 
HETATM   16  C   UNL     1      43.619 -20.290   1.770  1.00  0.00     0.043 A 
HETATM   17  C   UNL     1      43.646 -19.377   2.829  1.00  0.00     0.017 A 
ENDBRANCH   6  11
ENDBRANCH   2   5
BRANCH   1  18
HETATM   18  C   UNL     1      40.843 -15.994   3.377  1.00  0.00     0.089 C 
HETATM   19  C   UNL     1      40.629 -16.379   1.905  1.00  0.00     0.063 C 
HETATM   20  C   UNL     1      41.610 -15.743   0.915  1.00  0.00     0.121 C 
HETATM   21  N   UNL     1      41.675 -14.248   1.161  1.00  0.00    -0.059 N 
HETATM   22  C   UNL     1      43.016 -16.349   0.945  1.00  0.00     0.046 C 
HETATM   23  C   UNL     1      41.065 -15.914  -0.518  1.00  0.00     0.046 C 
HETATM   24  C   UNL     1      41.770 -13.704   2.570  1.00  0.00     0.121 C 
HETATM   25  H   UNL     1      40.826 -13.844   0.738  1.00  0.00     0.279 HD
HETATM   26  H   UNL     1      42.442 -13.857   0.597  1.00  0.00     0.279 HD
HETATM   27  C   UNL     1      43.229 -13.713   3.042  1.00  0.00     0.046 C 
HETATM   28  C   UNL     1      41.322 -12.230   2.489  1.00  0.00     0.046 C 
HETATM   29  C   UNL     1      40.817 -14.467   3.507  1.00  0.00     0.063 C 
ENDBRANCH   1  18
TORSDOF 3
ENDMDL
MODEL 2
REMARK VINA RESULT:      -8.3      2.349      4.159
REMARK  3 active torsions:
REMARK  status: ('A' for Active; 'I' for Inactive)
REMARK    1  A    between atoms: C_11  and  N_12 
REMARK       I    between atoms: N_12  and  C_13 
REMARK    2  A    between atoms: C_13  and  C_14 
REMARK    3  A    between atoms: C_15  and  C_16 
ROOT
HETATM    1  N   UNL     1      41.922 -15.793   4.319  1.00  0.00    -0.352 N 
HETATM    2  C   UNL     1      41.949 -17.088   3.815  1.00  0.00     0.255 C 
HETATM    3  O   UNL     1      41.541 -18.046   4.458  1.00  0.00    -0.268 OA
HETATM    4  H   UNL     1      42.616 -15.194   3.884  1.00  0.00     0.163 HD
ENDROOT
BRANCH   2   5
HETATM    5  C   UNL     1      42.493 -17.198   2.472  1.00  0.00     0.080 A 
HETATM    6  C   UNL     1      43.224 -18.277   1.876  1.00  0.00     0.104 A 
HETATM    7  N   UNL     1      43.483 -18.015   0.583  1.00  0.00    -0.174 NA
HETATM    8  N   UNL     1      42.952 -16.814   0.355  1.00  0.00    -0.288 N 
HETATM    9  H   UNL     1      43.026 -16.431  -0.583  1.00  0.00     0.188 HD
HETATM   10  C   UNL     1      42.358 -16.270   1.452  1.00  0.00     0.128 A 
BRANCH   6  11
HETATM   11  C   UNL     1      43.706 -19.529   2.471  1.00  0.00    -0.004 A 
HETATM   12  C   UNL     1      43.517 -20.743   1.789  1.00  0.00     0.017 A 
HETATM   13  C   UNL     1      43.994 -21.942   2.325  1.00  0.00     0.043 A 
HETATM   14  C   UNL     1      44.666 -21.928   3.540  1.00  0.00     0.116 A 
HETATM   15  F   UNL     1      45.128 -23.075   4.054  1.00  0.00    -0.206 F 
HETATM   16  C   UNL     1      44.874 -20.738   4.226  1.00  0.00     0.043 A 
HETATM   17  C   UNL     1      44.399 -19.538   3.690  1.00  0.00     0.017 A 
ENDBRANCH   6  11
ENDBRANCH   2   5
BRANCH   1  18
HETATM   18  C   UNL     1      41.559 -15.531   5.704  1.00  0.00     0.089 C 
HETATM   19  C   UNL     1      40.631 -14.323   5.913  1.00  0.00     0.063 C 
HETATM   20  C   UNL     1      41.284 -12.955   5.699  1.00  0.00     0.121 C 
HETATM   21  N   UNL     1      42.578 -12.885   6.486  1.00  0.00    -0.059 N 
HETATM   22  C   UNL     1      41.535 -12.600   4.230  1.00  0.00     0.046 C 
HETATM   23  C   UNL     1      40.370 -11.860   6.287  1.00  0.00     0.046 C 
HETATM   24  C   UNL     1      43.548 -14.047   6.476  1.00  0.00     0.121 C 
HETATM   25  H   UNL     1      42.314 -12.720   7.469  1.00  0.00     0.279 HD
HETATM   26  H   UNL     1      43.079 -12.026   6.217  1.00  0.00     0.279 HD
HETATM   27  C   UNL     1      44.450 -13.970   5.239  1.00  0.00     0.046 C 
HETATM   28  C   UNL     1      44.450 -13.861   7.714  1.00  0.00     0.046 C 
HETATM   29  C   UNL     1      42.791 -15.381   6.603  1.00  0.00     0.063 C 
ENDBRANCH   1  18
TORSDOF 3
ENDMDL
MODEL 3
REMARK VINA RESULT:      -8.1      1.763      2.991
REMARK  3 active torsions:
REMARK  status: ('A' for Active; 'I' for Inactive)
REMARK    1  A    between atoms: C_11  and  N_12 
REMARK       I    between atoms: N_12  and  C_13 
REMARK    2  A    between atoms: C_13  and  C_14 
REMARK    3  A    between atoms: C_15  and  C_16 
ROOT
HETATM    1  N   UNL     1      42.911 -15.583   5.029  1.00  0.00    -0.352 N 
HETATM    2  C   UNL     1      43.853 -15.717   6.042  1.00  0.00     0.255 C 
HETATM    3  O   UNL     1      44.746 -14.898   6.215  1.00  0.00    -0.268 OA
HETATM    4  H   UNL     1      42.507 -16.473   4.755  1.00  0.00     0.163 HD
ENDROOT
BRANCH   2   5
HETATM    5  C   UNL     1      43.681 -16.901   6.868  1.00  0.00     0.080 A 
HETATM    6  C   UNL     1      43.739 -18.283   6.493  1.00  0.00     0.104 A 
HETATM    7  N   UNL     1      43.601 -19.071   7.574  1.00  0.00    -0.174 NA
HETATM    8  N   UNL     1      43.450 -18.235   8.601  1.00  0.00    -0.288 N 
HETATM    9  H   UNL     1      43.344 -18.635   9.529  1.00  0.00     0.188 HD
HETATM   10  C   UNL     1      43.476 -16.923   8.238  1.00  0.00     0.128 A 
BRANCH   6  11
HETATM   11  C   UNL     1      43.895 -18.893   5.169  1.00  0.00    -0.004 A 
HETATM   12  C   UNL     1      44.893 -19.861   4.960  1.00  0.00     0.017 A 
HETATM   13  C   UNL     1      45.040 -20.475   3.714  1.00  0.00     0.043 A 
HETATM   14  C   UNL     1      44.185 -20.127   2.676  1.00  0.00     0.116 A 
HETATM   15  F   UNL     1      44.321 -20.717   1.481  1.00  0.00    -0.206 F 
HETATM   16  C   UNL     1      43.184 -19.182   2.862  1.00  0.00     0.043 A 
HETATM   17  C   UNL     1      43.036 -18.569   4.109  1.00  0.00     0.017 A 
ENDBRANCH   6  11
ENDBRANCH   2   5
BRANCH   1  18
HETATM   18  C   UNL     1      43.035 -14.545   4.016  1.00  0.00     0.089 C 
HETATM   19  C   UNL     1      42.239 -13.262   4.302  1.00  0.00     0.063 C 
HETATM   20  C   UNL     1      40.720 -13.392   4.154  1.00  0.00     0.121 C 
HETATM   21  N   UNL     1      40.397 -14.038   2.821  1.00  0.00    -0.059 N 
HETATM   22  C   UNL     1      40.039 -14.156   5.294  1.00  0.00     0.046 C 
HETATM   23  C   UNL     1      40.093 -11.983   4.105  1.00  0.00     0.046 C 
HETATM   24  C   UNL     1      41.175 -15.244   2.342  1.00  0.00     0.121 C 
HETATM   25  H   UNL     1      40.507 -13.304   2.105  1.00  0.00     0.279 HD
HETATM   26  H   UNL     1      39.391 -14.256   2.798  1.00  0.00     0.279 HD
HETATM   27  C   UNL     1      40.594 -16.524   2.954  1.00  0.00     0.046 C 
HETATM   28  C   UNL     1      40.949 -15.321   0.818  1.00  0.00     0.046 C 
HETATM   29  C   UNL     1      42.678 -15.059   2.618  1.00  0.00     0.063 C 
ENDBRANCH   1  18
TORSDOF 3
ENDMDL
MODEL 4
REMARK VINA RESULT:      -8.1      2.563      4.533
REMARK  3 active torsions:
REMARK  status: ('A' for Active; 'I' for Inactive)
REMARK    1  A    between atoms: C_11  and  N_12 
REMARK       I    between atoms: N_12  and  C_13 
REMARK    2  A    between atoms: C_13  and  C_14 
REMARK    3  A    between atoms: C_15  and  C_16 
ROOT
HETATM    1  N   UNL     1      42.403 -14.728   3.205  1.00  0.00    -0.352 N 
HETATM    2  C   UNL     1      43.056 -15.672   2.420  1.00  0.00     0.255 C 
HETATM    3  O   UNL     1      44.270 -15.664   2.267  1.00  0.00    -0.268 OA
HETATM    4  H   UNL     1      41.432 -14.607   2.936  1.00  0.00     0.163 HD
ENDROOT
BRANCH   2   5
HETATM    5  C   UNL     1      42.178 -16.657   1.811  1.00  0.00     0.080 A 
HETATM    6  C   UNL     1      42.170 -18.082   1.965  1.00  0.00     0.104 A 
HETATM    7  N   UNL     1      41.145 -18.625   1.286  1.00  0.00    -0.174 NA
HETATM    8  N   UNL     1      40.523 -17.596   0.710  1.00  0.00    -0.288 N 
HETATM    9  H   UNL     1      39.696 -17.793   0.152  1.00  0.00     0.188 HD
HETATM   10  C   UNL     1      41.104 -16.395   0.977  1.00  0.00     0.128 A 
BRANCH   6  11
HETATM   11  C   UNL     1      43.092 -18.953   2.701  1.00  0.00    -0.004 A 
HETATM   12  C   UNL     1      43.346 -18.709   4.062  1.00  0.00     0.017 A 
HETATM   13  C   UNL     1      44.198 -19.545   4.788  1.00  0.00     0.043 A 
HETATM   14  C   UNL     1      44.793 -20.629   4.158  1.00  0.00     0.116 A 
HETATM   15  F   UNL     1      45.607 -21.434   4.852  1.00  0.00    -0.206 F 
HETATM   16  C   UNL     1      44.548 -20.897   2.816  1.00  0.00     0.043 A 
HETATM   17  C   UNL     1      43.694 -20.062   2.089  1.00  0.00     0.017 A 
ENDBRANCH   6  11
ENDBRANCH   2   5
BRANCH   1  18
HETATM   18  C   UNL     1      43.113 -13.582   3.753  1.00  0.00     0.089 C 
HETATM   19  C   UNL     1      44.102 -13.912   4.883  1.00  0.00     0.063 C 
HETATM   20  C   UNL     1      43.459 -14.303   6.217  1.00  0.00     0.121 C 
HETATM   21  N   UNL     1      42.410 -13.275   6.592  1.00  0.00    -0.059 N 
HETATM   22  C   UNL     1      42.856 -15.711   6.236  1.00  0.00     0.046 C 
HETATM   23  C   UNL     1      44.527 -14.245   7.329  1.00  0.00     0.046 C 
HETATM   24  C   UNL     1      41.433 -12.761   5.557  1.00  0.00     0.121 C 
HETATM   25  H   UNL     1      42.919 -12.457   6.960  1.00  0.00     0.279 HD
HETATM   26  H   UNL     1      41.885 -13.626   7.406  1.00  0.00     0.279 HD
HETATM   27  C   UNL     1      40.250 -13.726   5.423  1.00  0.00     0.046 C 
HETATM   28  C   UNL     1      40.880 -11.433   6.115  1.00  0.00     0.046 C 
HETATM   29  C   UNL     1      42.155 -12.484   4.226  1.00  0.00     0.063 C 
ENDBRANCH   1  18
TORSDOF 3
ENDMDL
MODEL 5
REMARK VINA RESULT:      -7.9      3.070      7.128
REMARK  3 active torsions:
REMARK  status: ('A' for Active; 'I' for Inactive)
REMARK    1  A    between atoms: C_11  and  N_12 
REMARK       I    between atoms: N_12  and  C_13 
REMARK    2  A    between atoms: C_13  and  C_14 
REMARK    3  A    between atoms: C_15  and  C_16 
ROOT
HETATM    1  N   UNL     1      41.389 -15.722   1.803  1.00  0.00    -0.352 N 
HETATM    2  C   UNL     1      40.460 -14.718   1.556  1.00  0.00     0.255 C 
HETATM    3  O   UNL     1      39.294 -14.805   1.917  1.00  0.00    -0.268 OA
HETATM    4  H   UNL     1      42.157 -15.710   1.140  1.00  0.00     0.163 HD
ENDROOT
BRANCH   2   5
HETATM    5  C   UNL     1      40.994 -13.569   0.843  1.00  0.00     0.080 A 
HETATM    6  C   UNL     1      40.911 -13.250  -0.553  1.00  0.00     0.104 A 
HETATM    7  N   UNL     1      41.472 -12.054  -0.797  1.00  0.00    -0.174 NA
HETATM    8  N   UNL     1      41.908 -11.622   0.386  1.00  0.00    -0.288 N 
HETATM    9  H   UNL     1      42.359 -10.712   0.424  1.00  0.00     0.188 HD
HETATM   10  C   UNL     1      41.663 -12.493   1.403  1.00  0.00     0.128 A 
BRANCH   6  11
HETATM   11  C   UNL     1      40.350 -14.026  -1.663  1.00  0.00    -0.004 A 
HETATM   12  C   UNL     1      41.017 -15.177  -2.117  1.00  0.00     0.017 A 
HETATM   13  C   UNL     1      40.484 -15.947  -3.154  1.00  0.00     0.043 A 
HETATM   14  C   UNL     1      39.280 -15.571  -3.735  1.00  0.00     0.116 A 
HETATM   15  F   UNL     1      38.765 -16.308  -4.727  1.00  0.00    -0.206 F 
HETATM   16  C   UNL     1      38.597 -14.444  -3.295  1.00  0.00     0.043 A 
HETATM   17  C   UNL     1      39.129 -13.674  -2.257  1.00  0.00     0.017 A 
ENDBRANCH   6  11
ENDBRANCH   2   5
BRANCH   1  18
HETATM   18  C   UNL     1      40.983 -17.003   2.361  1.00  0.00     0.089 C 
HETATM   19  C   UNL     1      41.076 -17.102   3.892  1.00  0.00     0.063 C 
HETATM   20  C   UNL     1      42.498 -17.172   4.455  1.00  0.00     0.121 C 
HETATM   21  N   UNL     1      43.281 -18.240   3.717  1.00  0.00    -0.059 N 
HETATM   22  C   UNL     1      43.254 -15.840   4.423  1.00  0.00     0.046 C 
HETATM   23  C   UNL     1      42.438 -17.631   5.927  1.00  0.00     0.046 C 
HETATM   24  C   UNL     1      43.202 -18.347   2.209  1.00  0.00     0.121 C 
HETATM   25  H   UNL     1      42.974 -19.146   4.101  1.00  0.00     0.279 HD
HETATM   26  H   UNL     1      44.270 -18.174   3.998  1.00  0.00     0.279 HD
HETATM   27  C   UNL     1      44.182 -17.364   1.558  1.00  0.00     0.046 C 
HETATM   28  C   UNL     1      43.679 -19.772   1.858  1.00  0.00     0.046 C 
HETATM   29  C   UNL     1      41.749 -18.173   1.733  1.00  0.00     0.063 C 
ENDBRANCH   1  18
TORSDOF 3
ENDMDL
MODEL 6
REMARK VINA RESULT:      -7.8      2.266      3.995
REMARK  3 active torsions:
REMARK  status: ('A' for Active; 'I' for Inactive)
REMARK    1  A    between atoms: C_11  and  N_12 
REMARK       I    between atoms: N_12  and  C_13 
REMARK    2  A    between atoms: C_13  and  C_14 
REMARK    3  A    between atoms: C_15  and  C_16 
ROOT
HETATM    1  N   UNL     1      40.862 -14.607   2.084  1.00  0.00    -0.352 N 
HETATM    2  C   UNL     1      41.837 -14.980   3.001  1.00  0.00     0.255 C 
HETATM    3  O   UNL     1      43.023 -14.730   2.829  1.00  0.00    -0.268 OA
HETATM    4  H   UNL     1      40.035 -15.193   2.140  1.00  0.00     0.163 HD
ENDROOT
BRANCH   2   5
HETATM    5  C   UNL     1      41.327 -15.680   4.168  1.00  0.00     0.080 A 
HETATM    6  C   UNL     1      41.663 -16.983   4.662  1.00  0.00     0.104 A 
HETATM    7  N   UNL     1      41.022 -17.230   5.817  1.00  0.00    -0.174 NA
HETATM    8  N   UNL     1      40.294 -16.138   6.055  1.00  0.00    -0.288 N 
HETATM    9  H   UNL     1      39.736 -16.115   6.903  1.00  0.00     0.188 HD
HETATM   10  C   UNL     1      40.426 -15.182   5.095  1.00  0.00     0.128 A 
BRANCH   6  11
HETATM   11  C   UNL     1      42.540 -18.009   4.088  1.00  0.00    -0.004 A 
HETATM   12  C   UNL     1      42.397 -18.372   2.737  1.00  0.00     0.017 A 
HETATM   13  C   UNL     1      43.241 -19.326   2.164  1.00  0.00     0.043 A 
HETATM   14  C   UNL     1      44.233 -19.914   2.937  1.00  0.00     0.116 A 
HETATM   15  F   UNL     1      45.046 -20.826   2.389  1.00  0.00    -0.206 F 
HETATM   16  C   UNL     1      44.400 -19.563   4.270  1.00  0.00     0.043 A 
HETATM   17  C   UNL     1      43.558 -18.607   4.845  1.00  0.00     0.017 A 
ENDBRANCH   6  11
ENDBRANCH   2   5
BRANCH   1  18
HETATM   18  C   UNL     1      41.219 -14.045   0.790  1.00  0.00     0.089 C 
HETATM   19  C   UNL     1      41.421 -12.521   0.779  1.00  0.00     0.063 C 
HETATM   20  C   UNL     1      40.140 -11.693   0.920  1.00  0.00     0.121 C 
HETATM   21  N   UNL     1      39.108 -12.188  -0.074  1.00  0.00    -0.059 N 
HETATM   22  C   UNL     1      39.553 -11.679   2.334  1.00  0.00     0.046 C 
HETATM   23  C   UNL     1      40.438 -10.230   0.530  1.00  0.00     0.046 C 
HETATM   24  C   UNL     1      38.874 -13.671  -0.265  1.00  0.00     0.121 C 
HETATM   25  H   UNL     1      39.378 -11.804  -0.992  1.00  0.00     0.279 HD
HETATM   26  H   UNL     1      38.210 -11.729   0.132  1.00  0.00     0.279 HD
HETATM   27  C   UNL     1      37.905 -14.193   0.802  1.00  0.00     0.046 C 
HETATM   28  C   UNL     1      38.175 -13.819  -1.632  1.00  0.00     0.046 C 
HETATM   29  C   UNL     1      40.214 -14.427  -0.302  1.00  0.00     0.063 C 
ENDBRANCH   1  18
TORSDOF 3
ENDMDL
MODEL 7
REMARK VINA RESULT:      -7.4      2.171      3.147
REMARK  3 active torsions:
REMARK  status: ('A' for Active; 'I' for Inactive)
REMARK    1  A    between atoms: C_11  and  N_12 
REMARK       I    between atoms: N_12  and  C_13 
REMARK    2  A    between atoms: C_13  and  C_14 
REMARK    3  A    between atoms: C_15  and  C_16 
ROOT
HETATM    1  N   UNL     1      41.012 -15.074   1.786  1.00  0.00    -0.352 N 
HETATM    2  C   UNL     1      40.759 -16.194   2.569  1.00  0.00     0.255 C 
HETATM    3  O   UNL     1      40.061 -17.120   2.177  1.00  0.00    -0.268 OA
HETATM    4  H   UNL     1      41.245 -14.258   2.342  1.00  0.00     0.163 HD
ENDROOT
BRANCH   2   5
HETATM    5  C   UNL     1      41.393 -16.168   3.877  1.00  0.00     0.080 A 
HETATM    6  C   UNL     1      42.454 -16.986   4.386  1.00  0.00     0.104 A 
HETATM    7  N   UNL     1      42.805 -16.590   5.622  1.00  0.00    -0.174 NA
HETATM    8  N   UNL     1      41.998 -15.566   5.904  1.00  0.00    -0.288 N 
HETATM    9  H   UNL     1      42.112 -15.106   6.802  1.00  0.00     0.188 HD
HETATM   10  C   UNL     1      41.123 -15.277   4.903  1.00  0.00     0.128 A 
BRANCH   6  11
HETATM   11  C   UNL     1      43.135 -18.132   3.773  1.00  0.00    -0.004 A 
HETATM   12  C   UNL     1      43.926 -18.980   4.568  1.00  0.00     0.017 A 
HETATM   13  C   UNL     1      44.559 -20.093   4.009  1.00  0.00     0.043 A 
HETATM   14  C   UNL     1      44.398 -20.363   2.657  1.00  0.00     0.116 A 
HETATM   15  F   UNL     1      45.001 -21.431   2.120  1.00  0.00    -0.206 F 
HETATM   16  C   UNL     1      43.612 -19.546   1.854  1.00  0.00     0.043 A 
HETATM   17  C   UNL     1      42.977 -18.433   2.413  1.00  0.00     0.017 A 
ENDBRANCH   6  11
ENDBRANCH   2   5
BRANCH   1  18
HETATM   18  C   UNL     1      40.325 -14.869   0.519  1.00  0.00     0.089 C 
HETATM   19  C   UNL     1      41.059 -13.956  -0.475  1.00  0.00     0.063 C 
HETATM   20  C   UNL     1      41.073 -12.469  -0.105  1.00  0.00     0.121 C 
HETATM   21  N   UNL     1      39.665 -12.019   0.227  1.00  0.00    -0.059 N 
HETATM   22  C   UNL     1      42.029 -12.115   1.038  1.00  0.00     0.046 C 
HETATM   23  C   UNL     1      41.503 -11.646  -1.337  1.00  0.00     0.046 C 
HETATM   24  C   UNL     1      38.772 -12.870   1.103  1.00  0.00     0.121 C 
HETATM   25  H   UNL     1      39.176 -11.896  -0.673  1.00  0.00     0.279 HD
HETATM   26  H   UNL     1      39.709 -11.066   0.616  1.00  0.00     0.279 HD
HETATM   27  C   UNL     1      39.068 -12.596   2.582  1.00  0.00     0.046 C 
HETATM   28  C   UNL     1      37.329 -12.398   0.828  1.00  0.00     0.046 C 
HETATM   29  C   UNL     1      38.896 -14.355   0.717  1.00  0.00     0.063 C 
ENDBRANCH   1  18
TORSDOF 3
ENDMDL
MODEL 8
REMARK VINA RESULT:      -7.4      2.831      4.021
REMARK  3 active torsions:
REMARK  status: ('A' for Active; 'I' for Inactive)
REMARK    1  A    between atoms: C_11  and  N_12 
REMARK       I    between atoms: N_12  and  C_13 
REMARK    2  A    between atoms: C_13  and  C_14 
REMARK    3  A    between atoms: C_15  and  C_16 
ROOT
HETATM    1  N   UNL     1      41.221 -15.711   3.069  1.00  0.00    -0.352 N 
HETATM    2  C   UNL     1      41.336 -16.975   3.634  1.00  0.00     0.255 C 
HETATM    3  O   UNL     1      40.591 -17.361   4.525  1.00  0.00    -0.268 OA
HETATM    4  H   UNL     1      42.092 -15.388   2.662  1.00  0.00     0.163 HD
ENDROOT
BRANCH   2   5
HETATM    5  C   UNL     1      42.404 -17.788   3.075  1.00  0.00     0.080 A 
HETATM    6  C   UNL     1      43.425 -18.532   3.752  1.00  0.00     0.104 A 
HETATM    7  N   UNL     1      44.176 -19.213   2.870  1.00  0.00    -0.174 NA
HETATM    8  N   UNL     1      43.670 -18.914   1.674  1.00  0.00    -0.288 N 
HETATM    9  H   UNL     1      44.093 -19.345   0.857  1.00  0.00     0.188 HD
HETATM   10  C   UNL     1      42.616 -18.054   1.733  1.00  0.00     0.128 A 
BRANCH   6  11
HETATM   11  C   UNL     1      43.736 -18.615   5.183  1.00  0.00    -0.004 A 
HETATM   12  C   UNL     1      44.129 -17.458   5.879  1.00  0.00     0.017 A 
HETATM   13  C   UNL     1      44.402 -17.510   7.248  1.00  0.00     0.043 A 
HETATM   14  C   UNL     1      44.277 -18.715   7.925  1.00  0.00     0.116 A 
HETATM   15  F   UNL     1      44.535 -18.767   9.238  1.00  0.00    -0.206 F 
HETATM   16  C   UNL     1      43.881 -19.869   7.261  1.00  0.00     0.043 A 
HETATM   17  C   UNL     1      43.605 -19.818   5.891  1.00  0.00     0.017 A 
ENDBRANCH   6  11
ENDBRANCH   2   5
BRANCH   1  18
HETATM   18  C   UNL     1      40.311 -14.718   3.622  1.00  0.00     0.089 C 
HETATM   19  C   UNL     1      39.966 -13.557   2.675  1.00  0.00     0.063 C 
HETATM   20  C   UNL     1      41.100 -12.558   2.429  1.00  0.00     0.121 C 
HETATM   21  N   UNL     1      41.683 -12.120   3.758  1.00  0.00    -0.059 N 
HETATM   22  C   UNL     1      42.207 -13.076   1.507  1.00  0.00     0.046 C 
HETATM   23  C   UNL     1      40.520 -11.284   1.780  1.00  0.00     0.046 C 
HETATM   24  C   UNL     1      41.972 -13.135   4.843  1.00  0.00     0.121 C 
HETATM   25  H   UNL     1      41.025 -11.433   4.155  1.00  0.00     0.279 HD
HETATM   26  H   UNL     1      42.535 -11.570   3.577  1.00  0.00     0.279 HD
HETATM   27  C   UNL     1      43.339 -13.786   4.606  1.00  0.00     0.046 C 
HETATM   28  C   UNL     1      42.065 -12.337   6.160  1.00  0.00     0.046 C 
HETATM   29  C   UNL     1      40.819 -14.150   4.951  1.00  0.00     0.063 C 
ENDBRANCH   1  18
TORSDOF 3
ENDMDL
MODEL 9
REMARK VINA RESULT:      -7.3      3.633      7.398
REMARK  3 active torsions:
REMARK  status: ('A' for Active; 'I' for Inactive)
REMARK    1  A    between atoms: C_11  and  N_12 
REMARK       I    between atoms: N_12  and  C_13 
REMARK    2  A    between atoms: C_13  and  C_14 
REMARK    3  A    between atoms: C_15  and  C_16 
ROOT
HETATM    1  N   UNL     1      42.092 -15.776   1.978  1.00  0.00    -0.352 N 
HETATM    2  C   UNL     1      41.660 -14.481   1.716  1.00  0.00     0.255 C 
HETATM    3  O   UNL     1      42.386 -13.508   1.872  1.00  0.00    -0.268 OA
HETATM    4  H   UNL     1      41.324 -16.404   2.188  1.00  0.00     0.163 HD
ENDROOT
BRANCH   2   5
HETATM    5  C   UNL     1      40.290 -14.390   1.241  1.00  0.00     0.080 A 
HETATM    6  C   UNL     1      39.800 -13.955  -0.035  1.00  0.00     0.104 A 
HETATM    7  N   UNL     1      38.464 -14.094  -0.099  1.00  0.00    -0.174 NA
HETATM    8  N   UNL     1      38.105 -14.588   1.086  1.00  0.00    -0.288 N 
HETATM    9  H   UNL     1      37.120 -14.783   1.241  1.00  0.00     0.188 HD
HETATM   10  C   UNL     1      39.153 -14.772   1.934  1.00  0.00     0.128 A 
BRANCH   6  11
HETATM   11  C   UNL     1      40.525 -13.398  -1.181  1.00  0.00    -0.004 A 
HETATM   12  C   UNL     1      40.854 -12.031  -1.201  1.00  0.00     0.017 A 
HETATM   13  C   UNL     1      41.570 -11.487  -2.270  1.00  0.00     0.043 A 
HETATM   14  C   UNL     1      41.965 -12.309  -3.317  1.00  0.00     0.116 A 
HETATM   15  F   UNL     1      42.654 -11.791  -4.341  1.00  0.00    -0.206 F 
HETATM   16  C   UNL     1      41.661 -13.665  -3.314  1.00  0.00     0.043 A 
HETATM   17  C   UNL     1      40.946 -14.210  -2.244  1.00  0.00     0.017 A 
ENDBRANCH   6  11
ENDBRANCH   2   5
BRANCH   1  18
HETATM   18  C   UNL     1      43.378 -16.028   2.611  1.00  0.00     0.089 C 
HETATM   19  C   UNL     1      44.091 -17.306   2.142  1.00  0.00     0.063 C 
HETATM   20  C   UNL     1      43.462 -18.617   2.623  1.00  0.00     0.121 C 
HETATM   21  N   UNL     1      43.236 -18.548   4.120  1.00  0.00    -0.059 N 
HETATM   22  C   UNL     1      42.162 -18.992   1.906  1.00  0.00     0.046 C 
HETATM   23  C   UNL     1      44.462 -19.771   2.398  1.00  0.00     0.046 C 
HETATM   24  C   UNL     1      42.647 -17.305   4.753  1.00  0.00     0.121 C 
HETATM   25  H   UNL     1      44.154 -18.706   4.563  1.00  0.00     0.279 HD
HETATM   26  H   UNL     1      42.680 -19.366   4.406  1.00  0.00     0.279 HD
HETATM   27  C   UNL     1      41.118 -17.338   4.655  1.00  0.00     0.046 C 
HETATM   28  C   UNL     1      43.014 -17.373   6.249  1.00  0.00     0.046 C 
HETATM   29  C   UNL     1      43.275 -16.040   4.140  1.00  0.00     0.063 C 
ENDBRANCH   1  18
TORSDOF 3
ENDMDL
MODEL 10
REMARK VINA RESULT:      -7.3      3.508      7.329
REMARK  3 active torsions:
REMARK  status: ('A' for Active; 'I' for Inactive)
REMARK    1  A    between atoms: C_11  and  N_12 
REMARK       I    between atoms: N_12  and  C_13 
REMARK    2  A    between atoms: C_13  and  C_14 
REMARK    3  A    between atoms: C_15  and  C_16 
ROOT
HETATM    1  N   UNL     1      42.353 -15.960   1.954  1.00  0.00    -0.352 N 
HETATM    2  C   UNL     1      42.039 -14.626   1.722  1.00  0.00     0.255 C 
HETATM    3  O   UNL     1      42.843 -13.724   1.917  1.00  0.00    -0.268 OA
HETATM    4  H   UNL     1      41.530 -16.525   2.134  1.00  0.00     0.163 HD
ENDROOT
BRANCH   2   5
HETATM    5  C   UNL     1      40.689 -14.404   1.232  1.00  0.00     0.080 A 
HETATM    6  C   UNL     1      39.573 -13.795   1.894  1.00  0.00     0.104 A 
HETATM    7  N   UNL     1      38.519 -13.713   1.063  1.00  0.00    -0.174 NA
HETATM    8  N   UNL     1      38.932 -14.254  -0.083  1.00  0.00    -0.288 N 
HETATM    9  H   UNL     1      38.279 -14.278  -0.860  1.00  0.00     0.188 HD
HETATM   10  C   UNL     1      40.218 -14.698  -0.037  1.00  0.00     0.128 A 
BRANCH   6  11
HETATM   11  C   UNL     1      39.448 -13.309   3.272  1.00  0.00    -0.004 A 
HETATM   12  C   UNL     1      39.790 -14.153   4.343  1.00  0.00     0.017 A 
HETATM   13  C   UNL     1      39.705 -13.699   5.661  1.00  0.00     0.043 A 
HETATM   14  C   UNL     1      39.285 -12.399   5.911  1.00  0.00     0.116 A 
HETATM   15  F   UNL     1      39.206 -11.961   7.174  1.00  0.00    -0.206 F 
HETATM   16  C   UNL     1      38.953 -11.544   4.869  1.00  0.00     0.043 A 
HETATM   17  C   UNL     1      39.038 -11.996   3.549  1.00  0.00     0.017 A 
ENDBRANCH   6  11
ENDBRANCH   2   5
BRANCH   1  18
HETATM   18  C   UNL     1      43.603 -16.340   2.596  1.00  0.00     0.089 C 
HETATM   19  C   UNL     1      44.197 -17.675   2.119  1.00  0.00     0.063 C 
HETATM   20  C   UNL     1      43.442 -18.925   2.579  1.00  0.00     0.121 C 
HETATM   21  N   UNL     1      43.206 -18.851   4.074  1.00  0.00    -0.059 N 
HETATM   22  C   UNL     1      42.120 -19.168   1.843  1.00  0.00     0.046 C 
HETATM   23  C   UNL     1      44.330 -20.166   2.349  1.00  0.00     0.046 C 
HETATM   24  C   UNL     1      42.730 -17.566   4.715  1.00  0.00     0.121 C 
HETATM   25  H   UNL     1      44.100 -19.100   4.524  1.00  0.00     0.279 HD
HETATM   26  H   UNL     1      42.572 -19.617   4.344  1.00  0.00     0.279 HD
HETATM   27  C   UNL     1      41.206 -17.453   4.602  1.00  0.00     0.046 C 
HETATM   28  C   UNL     1      43.072 -17.685   6.215  1.00  0.00     0.046 C 
HETATM   29  C   UNL     1      43.481 -16.359   4.124  1.00  0.00     0.063 C 
ENDBRANCH   1  18
TORSDOF 3
ENDMDL
